
 Created by Python create_sdf_string function

 30  0  0  0  0  0  0  0  0  0999 V2000
    0.0000    0.0000    0.0000 C   0  0  0  0  0  0  0  0  0  0  0  0
    0.7911    0.7686    1.5772 C   0  0  0  0  0  0  0  0  0  0  0  0
    0.7713   -0.1220    0.4416 C   0  0  0  0  0  0  0  0  0  0  0  0
    0.7495   -0.5966   -2.0546 C   0  0  0  0  0  0  0  0  0  0  0  0
   -0.3650    1.4626    1.3495 C   0  0  0  0  0  0  0  0  0  0  0  0
   -1.7738   -1.4638   -0.5003 C   0  0  0  0  0  0  0  0  0  0  0  0
   -0.5828    0.5217    2.2654 C   0  0  0  0  0  0  0  0  0  0  0  0
    1.5019    0.3378   -0.2793 C   0  0  0  0  0  0  0  0  0  0  0  0
   -0.7901    0.0627    2.3844 C   0  0  0  0  0  0  0  0  0  0  0  0
    1.2530    1.1698    0.5117 C   0  0  0  0  0  0  0  0  0  0  0  0
   -0.7308    0.8959   -0.0528 C   0  0  0  0  0  0  0  0  0  0  0  0
   -0.4361   -1.8275   -0.4330 C   0  0  0  0  0  0  0  0  0  0  0  0
    0.7163   -0.3121    2.2314 C   0  0  0  0  0  0  0  0  0  0  0  0
   -2.1727   -0.4847   -0.0135 C   0  0  0  0  0  0  0  0  0  0  0  0
    0.8253    0.2627    1.8386 C   0  0  0  0  0  0  0  0  0  0  0  0
   -1.1577    1.2537   -0.5676 C   0  0  0  0  0  0  0  0  0  0  0  0
   -1.5883   -0.1612   -1.1567 C   0  0  0  0  0  0  0  0  0  0  0  0
   -1.8566    0.9947    1.4035 C   0  0  0  0  0  0  0  0  0  0  0  0
   -0.2528   -1.1221    0.7576 C   0  0  0  0  0  0  0  0  0  0  0  0
   -1.3769    1.2576   -0.6695 C   0  0  0  0  0  0  0  0  0  0  0  0
    2.0675   -0.2979    0.1221 C   0  0  0  0  0  0  0  0  0  0  0  0
   -0.7104   -1.4030   -2.1534 C   0  0  0  0  0  0  0  0  0  0  0  0
    0.5081    0.4459   -1.6840 C   0  0  0  0  0  0  0  0  0  0  0  0
    0.7281    1.6304    0.1168 C   0  0  0  0  0  0  0  0  0  0  0  0
   -2.5113    0.7703    0.9663 C   0  0  0  0  0  0  0  0  0  0  0  0
   -2.0679   -0.8482   -1.4743 C   0  0  0  0  0  0  0  0  0  0  0  0
   -0.3533   -1.7809   -1.1080 C   0  0  0  0  0  0  0  0  0  0  0  0
    0.3483    1.4142    2.1075 C   0  0  0  0  0  0  0  0  0  0  0  0
    0.8202    1.7387    1.1583 C   0  0  0  0  0  0  0  0  0  0  0  0
    0.2104   -1.9923    1.7627 C   0  0  0  0  0  0  0  0  0  0  0  0
M  END
$$$$

 Created by Python create_sdf_string function

 30 25  0  0  0  0  0  0  0  0999 V2000
    8.2183    8.3757   22.0003 F   0  0  0  0  0  0  0  0  0  0  0  0
   10.2843    7.4571   20.2240 F   0  0  0  0  0  0  0  0  0  0  0  0
    8.9320    8.5391   21.9249 C   0  0  0  0  0  0  0  0  0  0  0  0
   10.0525    5.6402   21.0015 N   0  0  0  0  0  0  0  0  0  0  0  0
    9.2416    8.3724   20.8368 N   0  0  0  0  0  0  0  0  0  0  0  0
    7.1195    5.7601   20.4698 F   0  0  0  0  0  0  0  0  0  0  0  0
    9.0048    6.1450   20.9553 F   0  0  0  0  0  0  0  0  0  0  0  0
    9.0427    8.3981   19.6712 P   0  0  0  0  0  0  0  0  0  0  0  0
    7.7933    8.5183   19.9553 C   0  0  0  0  0  0  0  0  0  0  0  0
    8.3488    5.3975   19.5763 Br  0  0  0  0  0  0  0  0  0  0  0  0
   10.4233    9.1565   22.6164 Cl  0  0  0  0  0  0  0  0  0  0  0  0
    8.1527    7.0415   21.5040 He  0  0  0  0  0  0  0  0  0  0  0  0
   11.3489    7.3933   19.9446 He  0  0  0  0  0  0  0  0  0  0  0  0
   11.4603    6.3907   20.0756 He  0  0  0  0  0  0  0  0  0  0  0  0
    7.8110    7.2505   21.6324 He  0  0  0  0  0  0  0  0  0  0  0  0
    8.6059    6.4799   21.1133 He  0  0  0  0  0  0  0  0  0  0  0  0
   10.7878    6.5486   21.2084 He  0  0  0  0  0  0  0  0  0  0  0  0
    9.6676    6.8287   19.2035 He  0  0  0  0  0  0  0  0  0  0  0  0
    9.8179    7.2459   21.3599 He  0  0  0  0  0  0  0  0  0  0  0  0
   11.2229    8.6742   21.8806 He  0  0  0  0  0  0  0  0  0  0  0  0
   10.7061    8.6841   21.5037 He  0  0  0  0  0  0  0  0  0  0  0  0
    8.1084    6.1353   22.5781 He  0  0  0  0  0  0  0  0  0  0  0  0
   10.3628    6.2400   21.7458 He  0  0  0  0  0  0  0  0  0  0  0  0
    9.2424    6.9501   21.4310 He  0  0  0  0  0  0  0  0  0  0  0  0
    9.3616    7.4612   19.8664 He  0  0  0  0  0  0  0  0  0  0  0  0
    7.9449    8.2919   21.0121 He  0  0  0  0  0  0  0  0  0  0  0  0
   10.2729    7.0748   20.7465 He  0  0  0  0  0  0  0  0  0  0  0  0
    9.7758    8.0663   20.9278 He  0  0  0  0  0  0  0  0  0  0  0  0
    8.6868    5.9228   23.2363 He  0  0  0  0  0  0  0  0  0  0  0  0
    8.7347    4.9044   19.5955 He  0  0  0  0  0  0  0  0  0  0  0  0
  1  4  3  0
  1  6  1  0
  1  8  2  0
  2  3  1  0
  2  4  4  0
  2  5  4  0
  2  8  4  0
  2 11  4  0
  3  6  2  0
  3  7  2  0
  3  8  4  0
  4  7  4  0
  4  8  2  0
  4  9  4  0
  4 10  2  0
  4 11  3  0
  5  6  4  0
  5  7  1  0
  5  8  1  0
  5 11  4  0
  7 10  4  0
  7 11  3  0
  8  9  3  0
  8 10  1  0
  8 11  2  0
M  END
$$$$

 Created by Python create_sdf_string function

 30  0  0  0  0  0  0  0  0  0999 V2000
    7.2126    6.8566   21.8365 C   0  0  0  0  0  0  0  0  0  0  0  0
   11.9533    7.1791   19.3151 C   0  0  0  0  0  0  0  0  0  0  0  0
   12.0948    6.2250   19.6179 C   0  0  0  0  0  0  0  0  0  0  0  0
    7.5400    8.8352   22.2797 C   0  0  0  0  0  0  0  0  0  0  0  0
    7.0054    7.1645   22.0063 C   0  0  0  0  0  0  0  0  0  0  0  0
    7.7537    5.9432   21.3540 C   0  0  0  0  0  0  0  0  0  0  0  0
   11.5533    6.1368   21.2089 C   0  0  0  0  0  0  0  0  0  0  0  0
   11.0125    7.6649   19.5632 C   0  0  0  0  0  0  0  0  0  0  0  0
   10.0467    6.7539   18.5466 C   0  0  0  0  0  0  0  0  0  0  0  0
   10.4298    7.4454   21.8438 C   0  0  0  0  0  0  0  0  0  0  0  0
   11.6378    9.1202   22.1213 C   0  0  0  0  0  0  0  0  0  0  0  0
    8.8649    9.3245   22.1522 C   0  0  0  0  0  0  0  0  0  0  0  0
   11.1484    9.2818   21.8548 C   0  0  0  0  0  0  0  0  0  0  0  0
   10.4282    4.9769   20.8915 C   0  0  0  0  0  0  0  0  0  0  0  0
    9.0426    9.1771   20.6995 C   0  0  0  0  0  0  0  0  0  0  0  0
    7.6139    5.8689   23.0080 C   0  0  0  0  0  0  0  0  0  0  0  0
   10.8459    5.5749   22.2244 C   0  0  0  0  0  0  0  0  0  0  0  0
    6.9008    5.4107   20.4056 C   0  0  0  0  0  0  0  0  0  0  0  0
    8.6044    5.2258   20.8626 C   0  0  0  0  0  0  0  0  0  0  0  0
    8.9844    6.5379   22.1960 C   0  0  0  0  0  0  0  0  0  0  0  0
    9.3950    7.7523   18.9108 C   0  0  0  0  0  0  0  0  0  0  0  0
    8.7139    8.9785   19.2048 C   0  0  0  0  0  0  0  0  0  0  0  0
    7.2630    8.9430   21.0792 C   0  0  0  0  0  0  0  0  0  0  0  0
    7.4854    8.9462   19.6240 C   0  0  0  0  0  0  0  0  0  0  0  0
   11.0878    6.7335   20.5541 C   0  0  0  0  0  0  0  0  0  0  0  0
   10.0234    8.9883   21.0228 C   0  0  0  0  0  0  0  0  0  0  0  0
    8.4745    5.6515   23.5555 C   0  0  0  0  0  0  0  0  0  0  0  0
    8.1452    4.8592   19.2980 C   0  0  0  0  0  0  0  0  0  0  0  0
    8.5842    4.4744   19.4453 C   0  0  0  0  0  0  0  0  0  0  0  0
   10.6505    9.6623   22.8095 C   0  0  0  0  0  0  0  0  0  0  0  0
M  END
$$$$

 Created by Python create_sdf_string function

 30 23  0  0  0  0  0  0  0  0999 V2000
   12.1589    8.9460   19.4877 C   0  0  0  0  0  0  0  0  0  0  0  0
    5.5829   10.2176   21.3852 C   0  0  0  0  0  0  0  0  0  0  0  0
    7.2639    8.3762   22.5435 N   0  0  0  0  0  0  0  0  0  0  0  0
   10.4384    8.2734   22.3391 C   0  0  0  0  0  0  0  0  0  0  0  0
   12.0912    9.1789   21.4264 F   0  0  0  0  0  0  0  0  0  0  0  0
    8.1980    6.8056   20.7298 P   0  0  0  0  0  0  0  0  0  0  0  0
    8.4137    4.9860   20.4598 F   0  0  0  0  0  0  0  0  0  0  0  0
    9.9331    5.5313   22.3875 N   0  0  0  0  0  0  0  0  0  0  0  0
    6.9251    9.7179   22.7164 Cl  0  0  0  0  0  0  0  0  0  0  0  0
   10.9431    6.9979   21.9578 P   0  0  0  0  0  0  0  0  0  0  0  0
    9.5811    6.3975   23.1783 N   0  0  0  0  0  0  0  0  0  0  0  0
    8.8821    2.3520   20.0843 N   0  0  0  0  0  0  0  0  0  0  0  0
    7.4998    5.7485   22.0572 He  0  0  0  0  0  0  0  0  0  0  0  0
   12.8417    6.9223   17.2453 He  0  0  0  0  0  0  0  0  0  0  0  0
    7.0878    4.9406   21.9692 He  0  0  0  0  0  0  0  0  0  0  0  0
   12.1248    7.1263   20.3295 He  0  0  0  0  0  0  0  0  0  0  0  0
   12.6938    8.2087   18.0199 He  0  0  0  0  0  0  0  0  0  0  0  0
    7.3556    6.2335   19.2970 He  0  0  0  0  0  0  0  0  0  0  0  0
   10.7529    6.3113   21.5614 He  0  0  0  0  0  0  0  0  0  0  0  0
   10.2749    8.9352   22.2448 He  0  0  0  0  0  0  0  0  0  0  0  0
   10.1741    5.7479   21.7900 He  0  0  0  0  0  0  0  0  0  0  0  0
    8.8388   11.0022   18.6698 He  0  0  0  0  0  0  0  0  0  0  0  0
    7.5580    5.5374   23.0695 He  0  0  0  0  0  0  0  0  0  0  0  0
   10.1353    5.3441   22.2236 He  0  0  0  0  0  0  0  0  0  0  0  0
    9.6034    6.6561   19.7385 He  0  0  0  0  0  0  0  0  0  0  0  0
    7.2053    9.7944   19.8430 He  0  0  0  0  0  0  0  0  0  0  0  0
    9.0074    9.5774   21.6006 He  0  0  0  0  0  0  0  0  0  0  0  0
    9.8565    5.7281   20.2964 He  0  0  0  0  0  0  0  0  0  0  0  0
    8.7872    6.6424   19.4490 He  0  0  0  0  0  0  0  0  0  0  0  0
    9.3807    9.5458   22.7629 He  0  0  0  0  0  0  0  0  0  0  0  0
  1  2  1  0
  1  3  3  0
  1 10  4  0
  2  7  1  0
  2  8  1  0
  2  9  4  0
  2 11  4  0
  3  5  4  0
  3  6  4  0
  3  7  4  0
  3 11  4  0
  4  5  3  0
  4 10  1  0
  4 11  1  0
  5  8  2  0
  6  8  3  0
  6 11  2  0
  6 12  4  0
  7 11  3  0
  8  9  4  0
  8 12  3  0
  9 11  3  0
 10 12  3  0
M  END
$$$$

 Created by Python create_sdf_string function

 30  1  0  0  0  0  0  0  0  0999 V2000
    7.3557    5.6859   22.1398 C   0  0  0  0  0  0  0  0  0  0  0  0
   12.1250    8.5022   19.4219 C   0  0  0  0  0  0  0  0  0  0  0  0
   12.3167    7.0669   18.0471 C   0  0  0  0  0  0  0  0  0  0  0  0
    6.5417    9.9401   21.2527 C   0  0  0  0  0  0  0  0  0  0  0  0
    7.4086    8.6682   22.2903 C   0  0  0  0  0  0  0  0  0  0  0  0
    7.2406    4.9374   21.8386 C   0  0  0  0  0  0  0  0  0  0  0  0
   12.0824    7.2972   19.9399 C   0  0  0  0  0  0  0  0  0  0  0  0
   12.2943    7.8890   18.4483 C   0  0  0  0  0  0  0  0  0  0  0  0
    7.5238    6.1859   19.4239 C   0  0  0  0  0  0  0  0  0  0  0  0
   11.0903    6.4136   21.4313 C   0  0  0  0  0  0  0  0  0  0  0  0
   10.2524    9.2050   22.1873 C   0  0  0  0  0  0  0  0  0  0  0  0
   10.5983    8.5756   22.3462 C   0  0  0  0  0  0  0  0  0  0  0  0
   11.8503    9.0268   21.3684 C   0  0  0  0  0  0  0  0  0  0  0  0
   10.2858    5.5994   21.8340 C   0  0  0  0  0  0  0  0  0  0  0  0
    8.5424   10.2988   19.6136 C   0  0  0  0  0  0  0  0  0  0  0  0
    7.5460    5.5852   23.0073 C   0  0  0  0  0  0  0  0  0  0  0  0
   10.1855    5.2102   22.3251 C   0  0  0  0  0  0  0  0  0  0  0  0
    7.8837    6.9020   20.5429 C   0  0  0  0  0  0  0  0  0  0  0  0
    8.2528    4.6567   20.3805 C   0  0  0  0  0  0  0  0  0  0  0  0
    9.9244    5.3803   22.6312 C   0  0  0  0  0  0  0  0  0  0  0  0
    9.9953    6.6794   19.4023 C   0  0  0  0  0  0  0  0  0  0  0  0
    7.5355    9.8662   20.3122 C   0  0  0  0  0  0  0  0  0  0  0  0
    7.2698    9.6385   22.2801 C   0  0  0  0  0  0  0  0  0  0  0  0
    8.8225    9.7849   21.4461 C   0  0  0  0  0  0  0  0  0  0  0  0
    9.8328    5.4653   20.0300 C   0  0  0  0  0  0  0  0  0  0  0  0
   11.2215    7.3569   22.0000 C   0  0  0  0  0  0  0  0  0  0  0  0
    9.6110    6.4457   23.3329 C   0  0  0  0  0  0  0  0  0  0  0  0
    8.6428    6.6145   19.3389 C   0  0  0  0  0  0  0  0  0  0  0  0
    8.7934    3.2854   20.3393 C   0  0  0  0  0  0  0  0  0  0  0  0
    9.2230    9.6065   22.4925 C   0  0  0  0  0  0  0  0  0  0  0  0
  3  8  4  0
M  END
$$$$

 Created by Python create_sdf_string function

 30 58  0  0  0  0  0  0  0  0999 V2000
   12.4559    8.4728   20.6953 O   0  0  0  0  0  0  0  0  0  0  0  0
   10.0915    8.7333   18.7415 F   0  0  0  0  0  0  0  0  0  0  0  0
    6.0362    9.6092   22.4680 Cl  0  0  0  0  0  0  0  0  0  0  0  0
    6.6537    8.6943   21.9553 C   0  0  0  0  0  0  0  0  0  0  0  0
   11.0462    7.4456   21.8351 Cl  0  0  0  0  0  0  0  0  0  0  0  0
    9.2322    9.7868   23.1537 C   0  0  0  0  0  0  0  0  0  0  0  0
   11.3768    9.0418   22.1554 O   0  0  0  0  0  0  0  0  0  0  0  0
    7.6398    6.2039   23.9771 C   0  0  0  0  0  0  0  0  0  0  0  0
    8.7117    4.6317   22.3307 N   0  0  0  0  0  0  0  0  0  0  0  0
    8.5310    6.4885   20.1515 O   0  0  0  0  0  0  0  0  0  0  0  0
    8.1604    6.6172   20.8972 S   0  0  0  0  0  0  0  0  0  0  0  0
   11.1752    5.5444   19.8013 I   0  0  0  0  0  0  0  0  0  0  0  0
    5.9292    7.4756   22.0077 F   0  0  0  0  0  0  0  0  0  0  0  0
    9.9506   10.2484   22.1307 O   0  0  0  0  0  0  0  0  0  0  0  0
    9.6188    5.5501   18.8101 N   0  0  0  0  0  0  0  0  0  0  0  0
    9.7426    7.4599   22.0726 F   0  0  0  0  0  0  0  0  0  0  0  0
    7.2323    7.4149   19.4636 C   0  0  0  0  0  0  0  0  0  0  0  0
    6.8127    4.4357   22.1678 He  0  0  0  0  0  0  0  0  0  0  0  0
    5.9696    3.6721   19.5832 He  0  0  0  0  0  0  0  0  0  0  0  0
   11.5220    6.8838   17.5937 He  0  0  0  0  0  0  0  0  0  0  0  0
    7.9168    4.9507   19.9738 He  0  0  0  0  0  0  0  0  0  0  0  0
   10.2247    6.8036   22.3522 He  0  0  0  0  0  0  0  0  0  0  0  0
   11.1063    7.1843   21.9302 He  0  0  0  0  0  0  0  0  0  0  0  0
    8.9828    5.5026   22.7485 He  0  0  0  0  0  0  0  0  0  0  0  0
    8.7298    9.4904   19.3311 He  0  0  0  0  0  0  0  0  0  0  0  0
   10.1007    6.5577   20.9815 He  0  0  0  0  0  0  0  0  0  0  0  0
    6.2742    8.9947   20.2349 He  0  0  0  0  0  0  0  0  0  0  0  0
   12.0873    8.3425   21.1385 He  0  0  0  0  0  0  0  0  0  0  0  0
    8.2667    4.6003   20.8789 He  0  0  0  0  0  0  0  0  0  0  0  0
    9.5628   10.2515   20.2358 He  0  0  0  0  0  0  0  0  0  0  0  0
  1  4  1  0
  1  5  2  0
  1  6  1  0
  1  7  1  0
  1  9  3  0
  1 11  2  0
  1 12  2  0
  1 16  1  0
  2  3  1  0
  2  7  2  0
  2  9  1  0
  2 11  4  0
  2 16  4  0
  2 17  3  0
  3  4  3  0
  3 10  3  0
  3 11  4  0
  3 13  1  0
  3 14  4  0
  3 16  3  0
  3 17  3  0
  4 12  1  0
  4 13  2  0
  4 15  2  0
  4 16  2  0
  5  7  2  0
  5  9  4  0
  5 10  2  0
  5 12  2  0
  5 14  4  0
  6 14  2  0
  6 15  2  0
  6 16  3  0
  6 17  4  0
  7  8  1  0
  7  9  2  0
  7 11  1  0
  7 15  4  0
  7 16  2  0
  7 17  4  0
  8 12  3  0
  8 13  3  0
  8 17  4  0
  9 11  3  0
  9 13  2  0
  9 16  4  0
 10 13  3  0
 10 14  2  0
 10 16  3  0
 10 17  2  0
 11 12  1  0
 11 14  2  0
 11 16  4  0
 11 17  4  0
 12 14  1  0
 12 16  2  0
 13 14  1  0
 14 15  3  0
M  END
$$$$

 Created by Python create_sdf_string function

 30  1  0  0  0  0  0  0  0  0999 V2000
    7.1767    4.3593   22.1106 C   0  0  0  0  0  0  0  0  0  0  0  0
   12.2780    8.4635   20.6965 C   0  0  0  0  0  0  0  0  0  0  0  0
   10.1069    8.5791   18.9421 C   0  0  0  0  0  0  0  0  0  0  0  0
    6.5192    9.2626   22.2237 C   0  0  0  0  0  0  0  0  0  0  0  0
    6.7786    8.7857   21.8030 C   0  0  0  0  0  0  0  0  0  0  0  0
    6.8878    3.9023   20.0414 C   0  0  0  0  0  0  0  0  0  0  0  0
   11.2926    7.7660   21.8836 C   0  0  0  0  0  0  0  0  0  0  0  0
   11.3365    6.8421   18.2899 C   0  0  0  0  0  0  0  0  0  0  0  0
    7.9124    4.8379   19.9645 C   0  0  0  0  0  0  0  0  0  0  0  0
   10.3461    6.8817   22.6067 C   0  0  0  0  0  0  0  0  0  0  0  0
    9.2626    9.6553   22.5105 C   0  0  0  0  0  0  0  0  0  0  0  0
   11.3458    9.0701   22.1138 C   0  0  0  0  0  0  0  0  0  0  0  0
   11.2695    7.3920   21.9317 C   0  0  0  0  0  0  0  0  0  0  0  0
    8.6928    5.3524   22.9009 C   0  0  0  0  0  0  0  0  0  0  0  0
    8.7923    9.3698   19.6390 C   0  0  0  0  0  0  0  0  0  0  0  0
    7.9262    6.0104   23.6839 C   0  0  0  0  0  0  0  0  0  0  0  0
    8.4194    4.6480   22.4276 C   0  0  0  0  0  0  0  0  0  0  0  0
    8.3944    6.4524   19.9076 C   0  0  0  0  0  0  0  0  0  0  0  0
    7.8931    6.5221   20.7617 C   0  0  0  0  0  0  0  0  0  0  0  0
   10.3778    6.3745   20.6004 C   0  0  0  0  0  0  0  0  0  0  0  0
   11.2179    5.8264   19.4658 C   0  0  0  0  0  0  0  0  0  0  0  0
    6.6736    8.7899   20.3001 C   0  0  0  0  0  0  0  0  0  0  0  0
    6.1670    7.9513   21.9660 C   0  0  0  0  0  0  0  0  0  0  0  0
    9.7295   10.1371   21.9097 C   0  0  0  0  0  0  0  0  0  0  0  0
    9.9909    5.6897   18.9218 C   0  0  0  0  0  0  0  0  0  0  0  0
   11.9453    8.4149   21.1013 C   0  0  0  0  0  0  0  0  0  0  0  0
    9.7399    7.6826   22.4288 C   0  0  0  0  0  0  0  0  0  0  0  0
    7.1635    7.7202   19.6347 C   0  0  0  0  0  0  0  0  0  0  0  0
    8.0200    4.4397   20.9028 C   0  0  0  0  0  0  0  0  0  0  0  0
    9.5006    9.9693   20.4569 C   0  0  0  0  0  0  0  0  0  0  0  0
  4  5  1  0
M  END
$$$$

 Created by Python create_sdf_string function

 30 21  0  0  0  0  0  0  0  0999 V2000
    6.5147    8.1859   22.3749 F   0  0  0  0  0  0  0  0  0  0  0  0
   12.8574    5.5982   17.4356 C   0  0  0  0  0  0  0  0  0  0  0  0
   11.2013    8.7759   21.3606 C   0  0  0  0  0  0  0  0  0  0  0  0
    8.7908   10.1924   24.2926 Cl  0  0  0  0  0  0  0  0  0  0  0  0
    7.7770    4.9459   22.3301 N   0  0  0  0  0  0  0  0  0  0  0  0
    7.5324    8.9493   18.9541 Se  0  0  0  0  0  0  0  0  0  0  0  0
    7.3478    3.1243   21.7508 S   0  0  0  0  0  0  0  0  0  0  0  0
    6.9159    6.6324   20.2341 F   0  0  0  0  0  0  0  0  0  0  0  0
    6.6403    8.8503   19.4879 C   0  0  0  0  0  0  0  0  0  0  0  0
    6.0828    7.4924   19.4067 C   0  0  0  0  0  0  0  0  0  0  0  0
    8.2203    7.2258   20.1504 C   0  0  0  0  0  0  0  0  0  0  0  0
    5.4019    3.9176   21.5251 He  0  0  0  0  0  0  0  0  0  0  0  0
   12.5941    9.2221   21.6473 He  0  0  0  0  0  0  0  0  0  0  0  0
   10.2292    8.9100   17.6676 He  0  0  0  0  0  0  0  0  0  0  0  0
    5.5403    8.8054   22.0596 He  0  0  0  0  0  0  0  0  0  0  0  0
    7.2637    5.4040   18.6445 He  0  0  0  0  0  0  0  0  0  0  0  0
   11.9833    7.1260   21.3795 He  0  0  0  0  0  0  0  0  0  0  0  0
    7.2296    5.3706   17.9314 He  0  0  0  0  0  0  0  0  0  0  0  0
   11.2679    8.5186   23.7750 He  0  0  0  0  0  0  0  0  0  0  0  0
   10.5783    8.2090   22.9443 He  0  0  0  0  0  0  0  0  0  0  0  0
    7.6494    7.0165   23.9083 He  0  0  0  0  0  0  0  0  0  0  0  0
    9.0840    6.4863   19.8105 He  0  0  0  0  0  0  0  0  0  0  0  0
    9.9483    5.8516   18.1416 He  0  0  0  0  0  0  0  0  0  0  0  0
    9.5654    5.0207   20.1167 He  0  0  0  0  0  0  0  0  0  0  0  0
    7.8355    9.8520   21.8028 He  0  0  0  0  0  0  0  0  0  0  0  0
   10.4916    3.8095   17.6807 He  0  0  0  0  0  0  0  0  0  0  0  0
   11.5511    7.8163   20.7357 He  0  0  0  0  0  0  0  0  0  0  0  0
   10.3519    6.9636   22.2088 He  0  0  0  0  0  0  0  0  0  0  0  0
    8.1173    3.6884   20.6778 He  0  0  0  0  0  0  0  0  0  0  0  0
    9.3421   10.1656   20.3219 He  0  0  0  0  0  0  0  0  0  0  0  0
  1  2  1  0
  1  5  3  0
  1  6  1  0
  1  8  4  0
  1 11  1  0
  2  4  1  0
  2  6  1  0
  2 10  4  0
  3 11  1  0
  4  5  4  0
  4  6  1  0
  4  7  2  0
  4  8  1  0
  4  9  4  0
  4 11  2  0
  5  8  2  0
  5 11  2  0
  7  9  4  0
  7 10  4  0
  8 11  4  0
  9 11  4  0
M  END
$$$$

 Created by Python create_sdf_string function

 30  0  0  0  0  0  0  0  0  0999 V2000
    6.4234    3.9614   21.3203 C   0  0  0  0  0  0  0  0  0  0  0  0
   12.0620    8.8682   21.6458 C   0  0  0  0  0  0  0  0  0  0  0  0
   10.0163    8.3423   18.4476 C   0  0  0  0  0  0  0  0  0  0  0  0
    6.2874    8.5592   21.8907 C   0  0  0  0  0  0  0  0  0  0  0  0
    6.9025    8.2482   22.2574 C   0  0  0  0  0  0  0  0  0  0  0  0
    7.5519    5.3338   18.8245 C   0  0  0  0  0  0  0  0  0  0  0  0
   11.6062    7.4318   21.2538 C   0  0  0  0  0  0  0  0  0  0  0  0
   11.5770    5.5739   18.1856 C   0  0  0  0  0  0  0  0  0  0  0  0
    7.6217    5.4353   18.3528 C   0  0  0  0  0  0  0  0  0  0  0  0
   11.0401    8.6686   21.3937 C   0  0  0  0  0  0  0  0  0  0  0  0
    8.7113    9.3780   23.5294 C   0  0  0  0  0  0  0  0  0  0  0  0
   10.9520    8.4845   23.2922 C   0  0  0  0  0  0  0  0  0  0  0  0
   10.4433    8.3292   22.8557 C   0  0  0  0  0  0  0  0  0  0  0  0
    7.5044    4.7581   21.8003 C   0  0  0  0  0  0  0  0  0  0  0  0
    7.5907    8.8526   19.1942 C   0  0  0  0  0  0  0  0  0  0  0  0
    7.6841    7.4367   23.3132 C   0  0  0  0  0  0  0  0  0  0  0  0
    7.4176    3.5431   21.2685 C   0  0  0  0  0  0  0  0  0  0  0  0
    9.3214    6.2618   19.3735 C   0  0  0  0  0  0  0  0  0  0  0  0
    6.9732    6.4485   20.3122 C   0  0  0  0  0  0  0  0  0  0  0  0
   10.2675    5.7041   18.4148 C   0  0  0  0  0  0  0  0  0  0  0  0
    9.3826    4.8857   19.5277 C   0  0  0  0  0  0  0  0  0  0  0  0
    6.7710    8.7111   19.6546 C   0  0  0  0  0  0  0  0  0  0  0  0
    6.2830    7.5579   19.4542 C   0  0  0  0  0  0  0  0  0  0  0  0
    7.9085    9.3189   21.9137 C   0  0  0  0  0  0  0  0  0  0  0  0
   10.3788    4.3811   18.0358 C   0  0  0  0  0  0  0  0  0  0  0  0
   11.3570    7.8424   20.5818 C   0  0  0  0  0  0  0  0  0  0  0  0
   10.3488    7.3339   22.2556 C   0  0  0  0  0  0  0  0  0  0  0  0
    7.8881    7.4129   20.0893 C   0  0  0  0  0  0  0  0  0  0  0  0
    7.9773    3.6850   20.6394 C   0  0  0  0  0  0  0  0  0  0  0  0
    9.1350    9.6622   20.4688 C   0  0  0  0  0  0  0  0  0  0  0  0
M  END
$$$$

 Created by Python create_sdf_string function

 30 55  0  0  0  0  0  0  0  0999 V2000
   11.0112    9.0348   22.5657 F   0  0  0  0  0  0  0  0  0  0  0  0
    5.5598    8.2371   22.8767 C   0  0  0  0  0  0  0  0  0  0  0  0
   12.6077    7.7415   20.7436 S   0  0  0  0  0  0  0  0  0  0  0  0
   11.4239    6.6042   16.5716 N   0  0  0  0  0  0  0  0  0  0  0  0
    4.9435    4.2981   18.8938 N   0  0  0  0  0  0  0  0  0  0  0  0
    7.8380    9.5274   24.6343 C   0  0  0  0  0  0  0  0  0  0  0  0
   11.0467    9.0132   23.6693 S   0  0  0  0  0  0  0  0  0  0  0  0
   10.2809    8.9182   22.0043 O   0  0  0  0  0  0  0  0  0  0  0  0
    6.1594    3.7752   20.6893 F   0  0  0  0  0  0  0  0  0  0  0  0
    8.1605    8.0768   22.9433 N   0  0  0  0  0  0  0  0  0  0  0  0
    6.3682    9.5691   18.0815 O   0  0  0  0  0  0  0  0  0  0  0  0
    6.3608    7.2675   19.5437 C   0  0  0  0  0  0  0  0  0  0  0  0
    8.1516    9.7354   21.5525 O   0  0  0  0  0  0  0  0  0  0  0  0
   11.7941    8.0407   18.8879 O   0  0  0  0  0  0  0  0  0  0  0  0
    8.5570    7.9986   22.3749 F   0  0  0  0  0  0  0  0  0  0  0  0
    7.5642    7.6564   19.2959 S   0  0  0  0  0  0  0  0  0  0  0  0
    8.5829    7.2945   20.2853 F   0  0  0  0  0  0  0  0  0  0  0  0
    4.5472    2.8666   22.0009 He  0  0  0  0  0  0  0  0  0  0  0  0
    8.8554    8.1314   18.8884 He  0  0  0  0  0  0  0  0  0  0  0  0
    7.0749    9.9358   21.8316 He  0  0  0  0  0  0  0  0  0  0  0  0
    7.0123    6.8292   18.9679 He  0  0  0  0  0  0  0  0  0  0  0  0
   11.3869   10.0103   21.4510 He  0  0  0  0  0  0  0  0  0  0  0  0
    7.5285    6.8483   18.8062 He  0  0  0  0  0  0  0  0  0  0  0  0
    8.7834    3.2119   21.2928 He  0  0  0  0  0  0  0  0  0  0  0  0
    9.3728    5.2461   21.9452 He  0  0  0  0  0  0  0  0  0  0  0  0
    7.5995    6.0992   20.9688 He  0  0  0  0  0  0  0  0  0  0  0  0
   11.5622    5.3997   16.4165 He  0  0  0  0  0  0  0  0  0  0  0  0
    9.4689    4.3659   18.1655 He  0  0  0  0  0  0  0  0  0  0  0  0
    8.3267    5.9141   18.3980 He  0  0  0  0  0  0  0  0  0  0  0  0
    9.6350   10.3984   19.9058 He  0  0  0  0  0  0  0  0  0  0  0  0
  1  5  2  0
  1  9  1  0
  1 13  2  0
  2  3  2  0
  2  7  2  0
  2  8  2  0
  2 11  2  0
  2 12  1  0
  2 14  1  0
  2 15  2  0
  2 16  4  0
  2 17  3  0
  3  6  1  0
  3 11  1  0
  3 12  3  0
  4  5  1  0
  4  8  1  0
  4  9  2  0
  4 11  2  0
  4 14  2  0
  5 11  2  0
  5 13  3  0
  5 14  2  0
  5 15  2  0
  5 16  1  0
  6  8  4  0
  6 11  4  0
  6 12  2  0
  6 14  2  0
  6 16  2  0
  7  9  2  0
  7 14  3  0
  7 15  1  0
  7 17  4  0
  8 10  4  0
  8 11  1  0
  8 15  2  0
  9 11  1  0
  9 13  1  0
  9 14  2  0
 10 11  4  0
 10 12  1  0
 10 13  4  0
 11 12  1  0
 11 13  3  0
 11 14  1  0
 11 16  4  0
 12 16  1  0
 12 17  4  0
 13 14  2  0
 13 16  4  0
 13 17  1  0
 14 15  2  0
 14 16  4  0
 14 17  1  0
M  END
$$$$

 Created by Python create_sdf_string function

 30  2  0  0  0  0  0  0  0  0999 V2000
    5.8906    3.3237   21.0519 C   0  0  0  0  0  0  0  0  0  0  0  0
   10.9778    8.9915   22.3284 C   0  0  0  0  0  0  0  0  0  0  0  0
    9.2304    7.8919   18.8511 C   0  0  0  0  0  0  0  0  0  0  0  0
    6.4450    8.3332   22.8321 C   0  0  0  0  0  0  0  0  0  0  0  0
    7.3473    9.4183   22.0716 C   0  0  0  0  0  0  0  0  0  0  0  0
    6.9213    6.5802   18.9377 C   0  0  0  0  0  0  0  0  0  0  0  0
   11.8347    8.2200   20.7151 C   0  0  0  0  0  0  0  0  0  0  0  0
   11.0712    6.4090   17.4940 C   0  0  0  0  0  0  0  0  0  0  0  0
    5.7697    4.4412   19.5592 C   0  0  0  0  0  0  0  0  0  0  0  0
   11.2398    9.4967   21.3999 C   0  0  0  0  0  0  0  0  0  0  0  0
    7.9090    9.1996   23.9140 C   0  0  0  0  0  0  0  0  0  0  0  0
   10.7631    8.9166   23.1178 C   0  0  0  0  0  0  0  0  0  0  0  0
   10.3300    8.8716   21.8491 C   0  0  0  0  0  0  0  0  0  0  0  0
    6.5424    3.8327   20.6744 C   0  0  0  0  0  0  0  0  0  0  0  0
    7.6688    6.6261   18.7319 C   0  0  0  0  0  0  0  0  0  0  0  0
    8.1774    8.1518   22.7958 C   0  0  0  0  0  0  0  0  0  0  0  0
    7.9195    3.6167   20.9167 C   0  0  0  0  0  0  0  0  0  0  0  0
    8.6324    5.2586   21.6009 C   0  0  0  0  0  0  0  0  0  0  0  0
    7.4980    5.4930   20.8809 C   0  0  0  0  0  0  0  0  0  0  0  0
   11.0307    5.8183   17.3374 C   0  0  0  0  0  0  0  0  0  0  0  0
    9.7355    5.0380   18.1543 C   0  0  0  0  0  0  0  0  0  0  0  0
    6.7550    8.8419   18.5545 O   0  0  0  0  0  0  0  0  0  0  0  0
    6.4343    7.0782   19.4022 C   0  0  0  0  0  0  0  0  0  0  0  0
    8.2907    9.3830   21.6725 C   0  0  0  0  0  0  0  0  0  0  0  0
    8.7403    5.9237   18.3168 C   0  0  0  0  0  0  0  0  0  0  0  0
   11.2438    7.5233   18.7960 C   0  0  0  0  0  0  0  0  0  0  0  0
    8.5747    8.1156   22.5491 C   0  0  0  0  0  0  0  0  0  0  0  0
    7.4751    7.6586   19.1620 C   0  0  0  0  0  0  0  0  0  0  0  0
    8.7003    7.2543   20.1863 C   0  0  0  0  0  0  0  0  0  0  0  0
    9.8319    9.7586   20.2096 C   0  0  0  0  0  0  0  0  0  0  0  0
  1 14  1  0
  8 20  4  0
M  END
$$$$

 Created by Python create_sdf_string function

 30 51  0  0  0  0  0  0  0  0999 V2000
    6.5894    4.1677   20.5714 F   0  0  0  0  0  0  0  0  0  0  0  0
    8.0975    6.0952   21.5848 N   0  0  0  0  0  0  0  0  0  0  0  0
    6.4912    3.7410   18.2034 F   0  0  0  0  0  0  0  0  0  0  0  0
    6.6602    9.7941   23.8135 C   0  0  0  0  0  0  0  0  0  0  0  0
   12.4284    9.9834   23.4513 I   0  0  0  0  0  0  0  0  0  0  0  0
    5.5993    4.0923   20.5650 Br  0  0  0  0  0  0  0  0  0  0  0  0
    6.2872    5.7982   20.1242 Cl  0  0  0  0  0  0  0  0  0  0  0  0
    6.5358    8.0805   23.0005 C   0  0  0  0  0  0  0  0  0  0  0  0
    8.0279    6.5205   20.8234 N   0  0  0  0  0  0  0  0  0  0  0  0
    6.3416    6.9825   19.1925 C   0  0  0  0  0  0  0  0  0  0  0  0
    9.3770    4.7349   17.5476 C   0  0  0  0  0  0  0  0  0  0  0  0
    6.5910    8.8754   17.7976 F   0  0  0  0  0  0  0  0  0  0  0  0
    5.5173    7.1038   20.1957 C   0  0  0  0  0  0  0  0  0  0  0  0
    8.8613    4.7662   18.0262 F   0  0  0  0  0  0  0  0  0  0  0  0
    8.2221    8.5860   22.8218 C   0  0  0  0  0  0  0  0  0  0  0  0
    7.7354    7.2038   21.0597 F   0  0  0  0  0  0  0  0  0  0  0  0
   10.4655    9.9553   22.2659 C   0  0  0  0  0  0  0  0  0  0  0  0
   10.1714    7.8343   22.0241 He  0  0  0  0  0  0  0  0  0  0  0  0
    8.5015    6.7074   18.0882 He  0  0  0  0  0  0  0  0  0  0  0  0
    6.9978    8.8169   21.6371 He  0  0  0  0  0  0  0  0  0  0  0  0
    6.9367    7.7585   20.5033 He  0  0  0  0  0  0  0  0  0  0  0  0
   12.1656    9.1425   20.1459 He  0  0  0  0  0  0  0  0  0  0  0  0
    9.8329    6.3278   16.9845 He  0  0  0  0  0  0  0  0  0  0  0  0
   11.1013   10.0881   21.2896 He  0  0  0  0  0  0  0  0  0  0  0  0
   11.8650    8.2275   23.6039 He  0  0  0  0  0  0  0  0  0  0  0  0
    9.7861    3.2024   21.0949 He  0  0  0  0  0  0  0  0  0  0  0  0
    8.7782    5.9767   17.1738 He  0  0  0  0  0  0  0  0  0  0  0  0
    7.0273    8.6074   22.4883 He  0  0  0  0  0  0  0  0  0  0  0  0
   12.4551    8.1127   18.6078 He  0  0  0  0  0  0  0  0  0  0  0  0
    6.6280    7.6841   20.4365 He  0  0  0  0  0  0  0  0  0  0  0  0
  1  4  1  0
  1  5  1  0
  1 10  1  0
  1 13  3  0
  1 14  3  0
  1 16  3  0
  2  3  3  0
  2 11  4  0
  2 13  4  0
  2 14  4  0
  2 16  3  0
  2 17  3  0
  3  4  4  0
  3  6  1  0
  3 11  4  0
  3 17  2  0
  4  5  4  0
  4  7  2  0
  4  9  4  0
  4 11  1  0
  4 12  3  0
  4 14  2  0
  5 10  3  0
  5 11  3  0
  5 16  4  0
  6  8  2  0
  6  9  2  0
  6 15  2  0
  6 16  3  0
  6 17  4  0
  7 14  1  0
  8 10  1  0
  8 11  3  0
  8 12  4  0
  8 16  2  0
  9 10  1  0
  9 14  1  0
  9 16  2  0
  9 17  3  0
 10 13  1  0
 10 14  2  0
 10 15  2  0
 10 17  1  0
 11 13  4  0
 11 14  2  0
 11 16  3  0
 11 17  2  0
 12 14  3  0
 14 15  3  0
 14 16  1  0
 15 17  2  0
M  END
$$$$

 Created by Python create_sdf_string function

 30  1  0  0  0  0  0  0  0  0999 V2000
    7.0404    3.8529   20.2808 C   0  0  0  0  0  0  0  0  0  0  0  0
   10.3256    8.0832   21.8033 C   0  0  0  0  0  0  0  0  0  0  0  0
    8.2979    6.5331   17.9164 C   0  0  0  0  0  0  0  0  0  0  0  0
    8.2891    6.1203   21.5300 C   0  0  0  0  0  0  0  0  0  0  0  0
    6.9998    8.8168   21.8795 C   0  0  0  0  0  0  0  0  0  0  0  0
    6.8429    7.8427   20.3351 C   0  0  0  0  0  0  0  0  0  0  0  0
   11.6105    8.8064   20.5534 C   0  0  0  0  0  0  0  0  0  0  0  0
    9.5018    6.0851   17.3277 C   0  0  0  0  0  0  0  0  0  0  0  0
    7.0215    4.0133   18.5768 C   0  0  0  0  0  0  0  0  0  0  0  0
   11.1391    9.4176   21.3491 C   0  0  0  0  0  0  0  0  0  0  0  0
    6.9221    9.5700   23.4897 C   0  0  0  0  0  0  0  0  0  0  0  0
   11.4875    8.6608   22.9058 C   0  0  0  0  0  0  0  0  0  0  0  0
   12.0376    9.5558   22.8820 C   0  0  0  0  0  0  0  0  0  0  0  0
    6.2443    3.9878   20.2889 C   0  0  0  0  0  0  0  0  0  0  0  0
    6.4451    5.4200   19.8912 C   0  0  0  0  0  0  0  0  0  0  0  0
    6.6639    8.3874   23.0319 C   0  0  0  0  0  0  0  0  0  0  0  0
    8.7811    3.5352   20.4600 C   0  0  0  0  0  0  0  0  0  0  0  0
    8.1907    6.2584   20.8011 C   0  0  0  0  0  0  0  0  0  0  0  0
    6.3638    6.9395   19.0970 C   0  0  0  0  0  0  0  0  0  0  0  0
    8.6068    5.9333   17.3198 C   0  0  0  0  0  0  0  0  0  0  0  0
    9.0236    4.7312   17.8074 C   0  0  0  0  0  0  0  0  0  0  0  0
    6.8698    8.3584   18.2791 O   0  0  0  0  0  0  0  0  0  0  0  0
    5.5186    7.1190   19.8120 C   0  0  0  0  0  0  0  0  0  0  0  0
    7.0760    8.7332   22.6537 C   0  0  0  0  0  0  0  0  0  0  0  0
    8.6869    4.7559   18.0933 C   0  0  0  0  0  0  0  0  0  0  0  0
   11.5137    8.1576   19.4846 C   0  0  0  0  0  0  0  0  0  0  0  0
    8.5559    8.6990   22.7428 C   0  0  0  0  0  0  0  0  0  0  0  0
    6.3503    7.7901   20.1893 C   0  0  0  0  0  0  0  0  0  0  0  0
    8.1035    7.3785   21.3961 C   0  0  0  0  0  0  0  0  0  0  0  0
   10.5977    9.4568   22.2495 C   0  0  0  0  0  0  0  0  0  0  0  0
 12 13  1  0
M  END
$$$$

 Created by Python create_sdf_string function

 30 33  0  0  0  0  0  0  0  0999 V2000
    6.5200    6.6399   19.0167 N   0  0  0  0  0  0  0  0  0  0  0  0
   10.1158    5.8916   18.3272 C   0  0  0  0  0  0  0  0  0  0  0  0
    7.6487    3.7765   18.6386 O   0  0  0  0  0  0  0  0  0  0  0  0
    5.7321    9.5104   23.6310 F   0  0  0  0  0  0  0  0  0  0  0  0
    4.0760    8.2180   23.5447 F   0  0  0  0  0  0  0  0  0  0  0  0
    9.1943    3.4519   20.2932 I   0  0  0  0  0  0  0  0  0  0  0  0
    7.0377    5.6912   21.9966 N   0  0  0  0  0  0  0  0  0  0  0  0
    7.2013    7.0459   17.8166 C   0  0  0  0  0  0  0  0  0  0  0  0
    7.7455    9.6465   24.1458 N   0  0  0  0  0  0  0  0  0  0  0  0
   10.3802    7.2506   19.4286 Se  0  0  0  0  0  0  0  0  0  0  0  0
    8.8863    9.3775   21.3057 Cl  0  0  0  0  0  0  0  0  0  0  0  0
    6.0629    6.2400   20.7161 S   0  0  0  0  0  0  0  0  0  0  0  0
   10.9977   10.3924   22.1489 O   0  0  0  0  0  0  0  0  0  0  0  0
    8.0415    5.0241   19.2634 He  0  0  0  0  0  0  0  0  0  0  0  0
   10.1683    8.5651   23.9519 He  0  0  0  0  0  0  0  0  0  0  0  0
    8.3756    8.4189   16.2371 He  0  0  0  0  0  0  0  0  0  0  0  0
    8.9177    5.9562   20.4099 He  0  0  0  0  0  0  0  0  0  0  0  0
    5.9085    7.6215   20.7929 He  0  0  0  0  0  0  0  0  0  0  0  0
   11.7299    9.3553   20.4748 He  0  0  0  0  0  0  0  0  0  0  0  0
   12.6858   11.1557   21.5998 He  0  0  0  0  0  0  0  0  0  0  0  0
   10.4795    8.9156   23.1026 He  0  0  0  0  0  0  0  0  0  0  0  0
   12.6432    9.6090   22.6006 He  0  0  0  0  0  0  0  0  0  0  0  0
    6.4995    4.7366   18.1531 He  0  0  0  0  0  0  0  0  0  0  0  0
    6.0120    5.8943   18.2786 He  0  0  0  0  0  0  0  0  0  0  0  0
    6.8257    7.5240   18.7356 He  0  0  0  0  0  0  0  0  0  0  0  0
    9.2631    6.4356   17.5756 He  0  0  0  0  0  0  0  0  0  0  0  0
    9.2889    3.3501   16.2547 He  0  0  0  0  0  0  0  0  0  0  0  0
    3.7804    5.9228   18.9322 He  0  0  0  0  0  0  0  0  0  0  0  0
    9.4203    5.7504   17.0184 He  0  0  0  0  0  0  0  0  0  0  0  0
    7.7360    5.7043   18.8674 He  0  0  0  0  0  0  0  0  0  0  0  0
  1  2  1  0
  1  3  1  0
  1  4  4  0
  1  5  1  0
  1  6  1  0
  1 13  3  0
  2  3  3  0
  2  4  1  0
  2  6  3  0
  2 10  1  0
  2 13  2  0
  3  5  3  0
  3  7  2  0
  4  5  2  0
  4  6  2  0
  4  9  4  0
  4 11  4  0
  4 13  1  0
  5  6  3  0
  5  8  4  0
  5  9  2  0
  6  7  2  0
  6  9  3  0
  6 10  3  0
  6 12  1  0
  7  8  1  0
  7  9  4  0
  7 13  1  0
  9 10  3  0
  9 12  2  0
  9 13  2  0
 11 13  3  0
 12 13  1  0
M  END
$$$$

 Created by Python create_sdf_string function

 30  2  0  0  0  0  0  0  0  0999 V2000
    8.2761    4.8151   19.2608 C   0  0  0  0  0  0  0  0  0  0  0  0
    9.8354    8.9186   22.9609 C   0  0  0  0  0  0  0  0  0  0  0  0
    8.3250    7.6790   16.8048 O   0  0  0  0  0  0  0  0  0  0  0  0
    9.1264    6.3509   20.4656 C   0  0  0  0  0  0  0  0  0  0  0  0
    6.1332    6.7293   19.2502 C   0  0  0  0  0  0  0  0  0  0  0  0
    6.0782    7.6362   21.3497 C   0  0  0  0  0  0  0  0  0  0  0  0
   11.2053    9.0224   20.9256 C   0  0  0  0  0  0  0  0  0  0  0  0
   10.0664    6.0229   18.2976 C   0  0  0  0  0  0  0  0  0  0  0  0
    7.7280    3.8703   18.5857 C   0  0  0  0  0  0  0  0  0  0  0  0
   12.0758   10.2298   21.7314 C   0  0  0  0  0  0  0  0  0  0  0  0
    6.3150    8.6207   23.0009 C   0  0  0  0  0  0  0  0  0  0  0  0
   10.2337    9.0122   22.5332 C   0  0  0  0  0  0  0  0  0  0  0  0
   12.0267    9.5823   22.3260 C   0  0  0  0  0  0  0  0  0  0  0  0
    6.6135    4.8730   18.3775 C   0  0  0  0  0  0  0  0  0  0  0  0
    5.8599    6.0728   18.7209 C   0  0  0  0  0  0  0  0  0  0  0  0
    5.3138    8.1815   22.9853 O   0  0  0  0  0  0  0  0  0  0  0  0
    9.0574    3.7568   19.7995 C   0  0  0  0  0  0  0  0  0  0  0  0
    6.8879    6.6583   21.8966 C   0  0  0  0  0  0  0  0  0  0  0  0
    6.5833    7.4306   18.9615 C   0  0  0  0  0  0  0  0  0  0  0  0
    9.3160    6.4670   17.6720 C   0  0  0  0  0  0  0  0  0  0  0  0
    9.4312    4.2377   16.8808 C   0  0  0  0  0  0  0  0  0  0  0  0
    7.4908    7.0435   17.8111 C   0  0  0  0  0  0  0  0  0  0  0  0
    4.4628    6.1989   19.1106 C   0  0  0  0  0  0  0  0  0  0  0  0
    7.5569    8.9214   23.2129 C   0  0  0  0  0  0  0  0  0  0  0  0
    9.3264    5.4711   17.1284 C   0  0  0  0  0  0  0  0  0  0  0  0
   10.2817    7.5884   19.7988 C   0  0  0  0  0  0  0  0  0  0  0  0
    9.1458    8.7671   21.8063 C   0  0  0  0  0  0  0  0  0  0  0  0
    5.9175    6.8778   20.8345 C   0  0  0  0  0  0  0  0  0  0  0  0
    8.0891    5.5326   18.7369 C   0  0  0  0  0  0  0  0  0  0  0  0
   10.9377    9.8574   22.1070 C   0  0  0  0  0  0  0  0  0  0  0  0
 11 24  1  0
 21 25  1  0
M  END
$$$$

 Created by Python create_sdf_string function

 30 41  0  0  0  0  0  0  0  0999 V2000
    6.4189    6.3682   19.1893 O   0  0  0  0  0  0  0  0  0  0  0  0
    4.2491    8.5111   21.5034 N   0  0  0  0  0  0  0  0  0  0  0  0
   11.1987   10.0006   22.5726 O   0  0  0  0  0  0  0  0  0  0  0  0
    9.1682    4.4549   17.4504 P   0  0  0  0  0  0  0  0  0  0  0  0
   11.5134   10.1800   22.5643 N   0  0  0  0  0  0  0  0  0  0  0  0
    5.5594    7.2963   23.7291 C   0  0  0  0  0  0  0  0  0  0  0  0
   10.4822    9.1756   21.3936 C   0  0  0  0  0  0  0  0  0  0  0  0
    9.7005   11.0285   22.7620 S   0  0  0  0  0  0  0  0  0  0  0  0
    7.1573    7.3946   23.7606 S   0  0  0  0  0  0  0  0  0  0  0  0
    9.4910    3.2314   20.7108 F   0  0  0  0  0  0  0  0  0  0  0  0
    4.9162    7.3155   22.4208 F   0  0  0  0  0  0  0  0  0  0  0  0
    8.9727    6.5578   17.9902 O   0  0  0  0  0  0  0  0  0  0  0  0
    8.9956    5.9135   15.6398 C   0  0  0  0  0  0  0  0  0  0  0  0
    5.7933    8.5397   22.2382 C   0  0  0  0  0  0  0  0  0  0  0  0
    7.1965    6.5455   20.2890 He  0  0  0  0  0  0  0  0  0  0  0  0
    9.6254    9.6092   23.1608 He  0  0  0  0  0  0  0  0  0  0  0  0
    6.8528    8.1363   18.1301 He  0  0  0  0  0  0  0  0  0  0  0  0
   10.2572    6.3082   22.2495 He  0  0  0  0  0  0  0  0  0  0  0  0
    8.1959    3.9213   20.4150 He  0  0  0  0  0  0  0  0  0  0  0  0
    7.3893    4.7958   17.4275 He  0  0  0  0  0  0  0  0  0  0  0  0
    6.0201    6.5342   18.7343 He  0  0  0  0  0  0  0  0  0  0  0  0
    6.2175    8.6920   20.2187 He  0  0  0  0  0  0  0  0  0  0  0  0
    7.5668    7.5380   19.7296 He  0  0  0  0  0  0  0  0  0  0  0  0
    5.1955    6.4289   18.4924 He  0  0  0  0  0  0  0  0  0  0  0  0
   10.5510    4.7980   17.2650 He  0  0  0  0  0  0  0  0  0  0  0  0
    9.7295    7.9513   19.0905 He  0  0  0  0  0  0  0  0  0  0  0  0
    8.9017    7.4257   21.4277 He  0  0  0  0  0  0  0  0  0  0  0  0
    5.5614    5.8453   21.5538 He  0  0  0  0  0  0  0  0  0  0  0  0
    7.3571    5.4321   17.9199 He  0  0  0  0  0  0  0  0  0  0  0  0
   10.0105   10.1426   22.7001 He  0  0  0  0  0  0  0  0  0  0  0  0
  1  3  4  0
  1  4  4  0
  1  5  3  0
  1  8  4  0
  1 12  1  0
  2  3  2  0
  2  6  4  0
  2  8  1  0
  2 10  2  0
  2 13  1  0
  3  5  1  0
  3  6  4  0
  3  8  4  0
  3  9  1  0
  3 11  2  0
  3 12  1  0
  3 13  2  0
  4  7  4  0
  4  8  1  0
  4 11  4  0
  5  6  1  0
  5 11  2  0
  5 13  3  0
  5 14  1  0
  6 10  2  0
  6 11  1  0
  6 12  3  0
  7  9  4  0
  7 10  1  0
  7 12  2  0
  8 10  2  0
  8 14  1  0
  9 11  3  0
  9 13  1  0
  9 14  3  0
 10 12  4  0
 11 12  1  0
 11 13  3  0
 12 13  3  0
 12 14  2  0
 13 14  2  0
M  END
$$$$

 Created by Python create_sdf_string function

 30  4  0  0  0  0  0  0  0  0999 V2000
    7.2755    6.6958   20.4757 C   0  0  0  0  0  0  0  0  0  0  0  0
    9.6191    9.3493   22.7712 C   0  0  0  0  0  0  0  0  0  0  0  0
    6.7942    7.9120   18.5499 C   0  0  0  0  0  0  0  0  0  0  0  0
    9.8021    6.8155   21.6747 C   0  0  0  0  0  0  0  0  0  0  0  0
    6.6056    6.3503   19.1071 C   0  0  0  0  0  0  0  0  0  0  0  0
    4.6848    8.1583   21.6421 C   0  0  0  0  0  0  0  0  0  0  0  0
   11.1033    9.8721   22.4718 C   0  0  0  0  0  0  0  0  0  0  0  0
    9.3076    4.3445   17.5228 C   0  0  0  0  0  0  0  0  0  0  0  0
    8.4172    4.1924   19.7872 C   0  0  0  0  0  0  0  0  0  0  0  0
   11.3070    9.9665   22.4446 C   0  0  0  0  0  0  0  0  0  0  0  0
    5.4058    7.4043   23.3859 C   0  0  0  0  0  0  0  0  0  0  0  0
   10.2189    8.7770   21.3847 C   0  0  0  0  0  0  0  0  0  0  0  0
    9.9034   10.5262   22.7033 C   0  0  0  0  0  0  0  0  0  0  0  0
    7.8052    4.9056   17.5537 C   0  0  0  0  0  0  0  0  0  0  0  0
    5.9727    6.5998   18.8806 C   0  0  0  0  0  0  0  0  0  0  0  0
    6.9544    7.5873   23.2510 C   0  0  0  0  0  0  0  0  0  0  0  0
    9.1945    3.8687   19.7399 C   0  0  0  0  0  0  0  0  0  0  0  0
    5.0813    7.4609   22.5786 C   0  0  0  0  0  0  0  0  0  0  0  0
    6.0989    8.2799   20.4546 C   0  0  0  0  0  0  0  0  0  0  0  0
    8.6871    6.1277   17.7700 C   0  0  0  0  0  0  0  0  0  0  0  0
    8.7812    5.2809   16.2612 C   0  0  0  0  0  0  0  0  0  0  0  0
    7.8719    7.5127   20.0460 C   0  0  0  0  0  0  0  0  0  0  0  0
    5.3886    6.5577   18.8615 C   0  0  0  0  0  0  0  0  0  0  0  0
    5.8651    8.2823   22.2145 C   0  0  0  0  0  0  0  0  0  0  0  0
    9.7134    4.4306   17.2796 C   0  0  0  0  0  0  0  0  0  0  0  0
    9.6430    7.8569   19.7259 C   0  0  0  0  0  0  0  0  0  0  0  0
    9.1430    7.5747   21.3947 C   0  0  0  0  0  0  0  0  0  0  0  0
    5.5971    6.4186   21.7734 C   0  0  0  0  0  0  0  0  0  0  0  0
    7.6602    5.3068   17.7904 C   0  0  0  0  0  0  0  0  0  0  0  0
    9.9118    9.7344   22.5020 C   0  0  0  0  0  0  0  0  0  0  0  0
  4 27  4  0
  7 10  1  0
  8 25  4  0
 11 18  1  0
M  END
$$$$

 Created by Python create_sdf_string function

 30 37  0  0  0  0  0  0  0  0999 V2000
    6.5002    7.0644   21.0302 F   0  0  0  0  0  0  0  0  0  0  0  0
    7.1657    9.2022   18.9780 F   0  0  0  0  0  0  0  0  0  0  0  0
   11.2687    6.0282   20.8833 Cl  0  0  0  0  0  0  0  0  0  0  0  0
    8.9213    5.0336   16.6183 O   0  0  0  0  0  0  0  0  0  0  0  0
    9.9553    4.6411   20.3227 C   0  0  0  0  0  0  0  0  0  0  0  0
    4.4151    7.3833   24.0166 F   0  0  0  0  0  0  0  0  0  0  0  0
    8.7713    4.8775   17.2856 P   0  0  0  0  0  0  0  0  0  0  0  0
    5.5789    6.9325   17.7871 F   0  0  0  0  0  0  0  0  0  0  0  0
    7.6995    7.8506   20.7624 C   0  0  0  0  0  0  0  0  0  0  0  0
    7.5292    7.0994   21.7061 Cl  0  0  0  0  0  0  0  0  0  0  0  0
    8.7361    5.5944   17.1452 P   0  0  0  0  0  0  0  0  0  0  0  0
    7.2282    7.3189   19.5284 S   0  0  0  0  0  0  0  0  0  0  0  0
    7.1027    7.3760   22.0333 C   0  0  0  0  0  0  0  0  0  0  0  0
    7.0172    7.4064   17.7029 Se  0  0  0  0  0  0  0  0  0  0  0  0
   10.2369   10.4496   23.7345 He  0  0  0  0  0  0  0  0  0  0  0  0
    5.9339    6.8611   20.8444 He  0  0  0  0  0  0  0  0  0  0  0  0
    3.3241    8.7616   22.8683 He  0  0  0  0  0  0  0  0  0  0  0  0
   11.7956    8.8940   23.0708 He  0  0  0  0  0  0  0  0  0  0  0  0
   12.2590    9.9014   23.2983 He  0  0  0  0  0  0  0  0  0  0  0  0
   10.7348    8.9072   20.3225 He  0  0  0  0  0  0  0  0  0  0  0  0
    8.6799   11.5623   22.2320 He  0  0  0  0  0  0  0  0  0  0  0  0
    8.6781    5.1627   18.3372 He  0  0  0  0  0  0  0  0  0  0  0  0
    5.7249    7.3325   20.4292 He  0  0  0  0  0  0  0  0  0  0  0  0
    9.4005    5.2048   15.6886 He  0  0  0  0  0  0  0  0  0  0  0  0
    5.1388    6.3866   19.4867 He  0  0  0  0  0  0  0  0  0  0  0  0
    5.3921    8.5329   23.6204 He  0  0  0  0  0  0  0  0  0  0  0  0
   10.0821    3.4681   15.3853 He  0  0  0  0  0  0  0  0  0  0  0  0
    9.2940    8.5352   17.3582 He  0  0  0  0  0  0  0  0  0  0  0  0
    7.2760    6.1071   22.5731 He  0  0  0  0  0  0  0  0  0  0  0  0
   10.6488   10.0390   22.6132 He  0  0  0  0  0  0  0  0  0  0  0  0
  1  5  2  0
  1  7  2  0
  1  8  2  0
  1 12  1  0
  1 13  2  0
  2  4  4  0
  2  8  4  0
  2  9  1  0
  3  6  1  0
  3 10  3  0
  3 12  4  0
  3 13  1  0
  3 14  2  0
  4  6  1  0
  4  7  2  0
  4  9  4  0
  4 10  4  0
  4 13  3  0
  4 14  1  0
  5  7  1  0
  5  8  1  0
  5  9  1  0
  5 10  1  0
  5 13  4  0
  6 10  3  0
  6 12  2  0
  6 13  4  0
  6 14  4  0
  7 13  1  0
  7 14  4  0
  8  9  1  0
  8 11  2  0
  9 11  1  0
  9 13  1  0
 11 12  3  0
 11 13  4  0
 13 14  2  0
M  END
$$$$

 Created by Python create_sdf_string function

 30  1  0  0  0  0  0  0  0  0999 V2000
    6.3550    7.2225   21.1583 C   0  0  0  0  0  0  0  0  0  0  0  0
   10.2890   10.0581   22.9646 C   0  0  0  0  0  0  0  0  0  0  0  0
    7.3702    8.6477   18.9492 C   0  0  0  0  0  0  0  0  0  0  0  0
   10.5331    6.6633   20.7992 C   0  0  0  0  0  0  0  0  0  0  0  0
    5.7102    7.1414   21.0577 C   0  0  0  0  0  0  0  0  0  0  0  0
    4.1101    8.1894   22.7956 C   0  0  0  0  0  0  0  0  0  0  0  0
   11.3401    8.9540   22.5717 C   0  0  0  0  0  0  0  0  0  0  0  0
    9.0147    4.8393   16.4901 C   0  0  0  0  0  0  0  0  0  0  0  0
    9.7010    5.4929   19.7246 C   0  0  0  0  0  0  0  0  0  0  0  0
   11.7402    9.7233   22.9090 C   0  0  0  0  0  0  0  0  0  0  0  0
    4.8412    7.5972   23.5413 C   0  0  0  0  0  0  0  0  0  0  0  0
   10.3401    8.5343   21.0356 C   0  0  0  0  0  0  0  0  0  0  0  0
    9.2960   10.4104   22.3297 C   0  0  0  0  0  0  0  0  0  0  0  0
    8.9658    4.8933   17.1803 C   0  0  0  0  0  0  0  0  0  0  0  0
    5.9416    6.9085   18.3038 C   0  0  0  0  0  0  0  0  0  0  0  0
    8.3686    7.9560   20.9536 C   0  0  0  0  0  0  0  0  0  0  0  0
    8.7838    5.3688   18.0454 C   0  0  0  0  0  0  0  0  0  0  0  0
    7.9897    7.3912   21.7990 C   0  0  0  0  0  0  0  0  0  0  0  0
    5.5527    7.3242   20.4442 C   0  0  0  0  0  0  0  0  0  0  0  0
    8.6158    5.5497   16.9545 C   0  0  0  0  0  0  0  0  0  0  0  0
    9.2153    4.7592   15.9353 C   0  0  0  0  0  0  0  0  0  0  0  0
    7.4141    7.1971   19.2592 C   0  0  0  0  0  0  0  0  0  0  0  0
    5.2457    6.8297   19.4057 C   0  0  0  0  0  0  0  0  0  0  0  0
    5.3692    8.1238   23.4419 C   0  0  0  0  0  0  0  0  0  0  0  0
   10.0426    3.9280   16.0841 C   0  0  0  0  0  0  0  0  0  0  0  0
    8.6783    7.8604   17.7172 C   0  0  0  0  0  0  0  0  0  0  0  0
    7.2224    7.5629   22.2181 C   0  0  0  0  0  0  0  0  0  0  0  0
    7.2190    6.6779   22.5354 C   0  0  0  0  0  0  0  0  0  0  0  0
    7.4518    7.0466   17.8219 C   0  0  0  0  0  0  0  0  0  0  0  0
   10.6364    9.6961   22.4426 C   0  0  0  0  0  0  0  0  0  0  0  0
 11 24  1  0
M  END
$$$$

 Created by Python create_sdf_string function

 30 45  0  0  0  0  0  0  0  0999 V2000
    5.2262    8.0356   21.6698 F   0  0  0  0  0  0  0  0  0  0  0  0
    9.4683   11.2862   23.0982 O   0  0  0  0  0  0  0  0  0  0  0  0
    6.3625    8.5976   17.9883 F   0  0  0  0  0  0  0  0  0  0  0  0
    9.9042    6.9045   20.5625 F   0  0  0  0  0  0  0  0  0  0  0  0
   13.4004    8.8220   22.8465 C   0  0  0  0  0  0  0  0  0  0  0  0
    7.0725    8.7921   21.7281 C   0  0  0  0  0  0  0  0  0  0  0  0
   10.7866    8.1021   21.0071 F   0  0  0  0  0  0  0  0  0  0  0  0
    9.5300    4.4900   16.3256 F   0  0  0  0  0  0  0  0  0  0  0  0
    8.6833    7.3311   21.3134 O   0  0  0  0  0  0  0  0  0  0  0  0
    6.2168    7.4242   20.0976 Cl  0  0  0  0  0  0  0  0  0  0  0  0
   10.0900    3.9122   17.1071 N   0  0  0  0  0  0  0  0  0  0  0  0
    6.7753    8.8608   19.5723 P   0  0  0  0  0  0  0  0  0  0  0  0
    7.7359    8.0970   22.6812 C   0  0  0  0  0  0  0  0  0  0  0  0
    6.8255    5.2092   17.9384 N   0  0  0  0  0  0  0  0  0  0  0  0
   11.5909    8.6498   22.6818 C   0  0  0  0  0  0  0  0  0  0  0  0
    3.2336    6.9095   21.3420 He  0  0  0  0  0  0  0  0  0  0  0  0
    4.5835    7.5396   22.6173 He  0  0  0  0  0  0  0  0  0  0  0  0
   11.2986    7.6162   21.5634 He  0  0  0  0  0  0  0  0  0  0  0  0
    9.0527    4.6133   15.4098 He  0  0  0  0  0  0  0  0  0  0  0  0
    9.8584    5.1150   19.6589 He  0  0  0  0  0  0  0  0  0  0  0  0
    9.4619   10.6952   23.1310 He  0  0  0  0  0  0  0  0  0  0  0  0
    6.9947    8.2130   17.4858 He  0  0  0  0  0  0  0  0  0  0  0  0
    7.0199    7.5172   21.7277 He  0  0  0  0  0  0  0  0  0  0  0  0
    8.4298    5.5727   17.4493 He  0  0  0  0  0  0  0  0  0  0  0  0
    8.8586    5.2630   18.3303 He  0  0  0  0  0  0  0  0  0  0  0  0
    7.8443    9.7470   18.9083 He  0  0  0  0  0  0  0  0  0  0  0  0
    6.6211    9.2142   23.5169 He  0  0  0  0  0  0  0  0  0  0  0  0
   10.8623    3.8803   17.1439 He  0  0  0  0  0  0  0  0  0  0  0  0
    9.0947    8.4682   16.8740 He  0  0  0  0  0  0  0  0  0  0  0  0
    7.6922    6.8131   22.8530 He  0  0  0  0  0  0  0  0  0  0  0  0
  1  2  4  0
  1  4  2  0
  1  5  2  0
  1  8  3  0
  1 11  2  0
  1 13  4  0
  1 14  1  0
  2  4  3  0
  2  5  1  0
  2  6  2  0
  2  8  4  0
  2  9  1  0
  2 13  3  0
  2 14  1  0
  3  4  1  0
  3  5  3  0
  3  8  3  0
  4  5  3  0
  4  8  2  0
  4  9  3  0
  4 13  3  0
  5  6  4  0
  5  7  1  0
  5  8  4  0
  5  9  3  0
  5 11  2  0
  5 15  3  0
  6  7  2  0
  6  9  2  0
  6 13  2  0
  6 15  3  0
  7  9  4  0
  7 12  2  0
  7 13  4  0
  8 10  4  0
  8 14  1  0
  9 10  1  0
  9 13  4  0
  9 14  2  0
 11 12  1  0
 11 13  3  0
 11 14  4  0
 11 15  2  0
 12 14  3  0
 13 14  1  0
M  END
$$$$

 Created by Python create_sdf_string function

 30  2  0  0  0  0  0  0  0  0999 V2000
    5.2763    7.8618   21.7309 C   0  0  0  0  0  0  0  0  0  0  0  0
    9.5352   10.2071   22.9263 C   0  0  0  0  0  0  0  0  0  0  0  0
    6.8540    8.3302   18.3919 C   0  0  0  0  0  0  0  0  0  0  0  0
    9.9223    6.9462   20.5807 C   0  0  0  0  0  0  0  0  0  0  0  0
    4.1820    7.2195   21.3842 C   0  0  0  0  0  0  0  0  0  0  0  0
    4.9022    7.5898   22.4155 C   0  0  0  0  0  0  0  0  0  0  0  0
   11.1730    7.7966   21.6416 C   0  0  0  0  0  0  0  0  0  0  0  0
    9.1315    4.4992   15.9516 C   0  0  0  0  0  0  0  0  0  0  0  0
    9.7100    5.3696   19.0759 C   0  0  0  0  0  0  0  0  0  0  0  0
   12.2951    8.7601   22.4544 C   0  0  0  0  0  0  0  0  0  0  0  0
    7.2018    8.6592   21.9414 C   0  0  0  0  0  0  0  0  0  0  0  0
   10.7361    8.0374   21.4415 C   0  0  0  0  0  0  0  0  0  0  0  0
    9.5831    9.8235   22.8602 C   0  0  0  0  0  0  0  0  0  0  0  0
    9.4925    4.3889   16.4925 C   0  0  0  0  0  0  0  0  0  0  0  0
    7.4714    7.8590   17.8682 C   0  0  0  0  0  0  0  0  0  0  0  0
    6.7887    7.6941   21.6541 C   0  0  0  0  0  0  0  0  0  0  0  0
    8.3358    5.7234   17.3609 C   0  0  0  0  0  0  0  0  0  0  0  0
    9.0270    7.5541   21.4156 C   0  0  0  0  0  0  0  0  0  0  0  0
    6.0529    7.6114   20.1316 C   0  0  0  0  0  0  0  0  0  0  0  0
    8.9466    5.4029   18.1273 C   0  0  0  0  0  0  0  0  0  0  0  0
   10.0791    4.0628   17.1244 C   0  0  0  0  0  0  0  0  0  0  0  0
    7.6050    9.1482   18.9035 C   0  0  0  0  0  0  0  0  0  0  0  0
    6.8614    8.5910   19.4051 C   0  0  0  0  0  0  0  0  0  0  0  0
    6.7446    8.9310   23.1852 C   0  0  0  0  0  0  0  0  0  0  0  0
   10.3655    3.8568   17.1730 C   0  0  0  0  0  0  0  0  0  0  0  0
    8.2909    7.9252   17.3545 C   0  0  0  0  0  0  0  0  0  0  0  0
    8.0069    8.3854   22.4872 C   0  0  0  0  0  0  0  0  0  0  0  0
    7.6469    7.4177   22.5140 C   0  0  0  0  0  0  0  0  0  0  0  0
    7.3636    5.9070   17.7983 C   0  0  0  0  0  0  0  0  0  0  0  0
   11.2987    8.8211   22.4625 C   0  0  0  0  0  0  0  0  0  0  0  0
  2 13  1  0
 21 25  4  0
M  END
$$$$

 Created by Python create_sdf_string function

 30 52  0  0  0  0  0  0  0  0999 V2000
    8.6306   10.3041   21.8991 I   0  0  0  0  0  0  0  0  0  0  0  0
    7.3564    5.9885   18.1532 C   0  0  0  0  0  0  0  0  0  0  0  0
    9.2555    5.0501   19.6224 C   0  0  0  0  0  0  0  0  0  0  0  0
    4.2970    6.9772   21.3904 Se  0  0  0  0  0  0  0  0  0  0  0  0
    3.6482    7.6598   21.8207 S   0  0  0  0  0  0  0  0  0  0  0  0
    9.8449    4.7995   19.3824 N   0  0  0  0  0  0  0  0  0  0  0  0
    6.7858    8.3040   22.1090 F   0  0  0  0  0  0  0  0  0  0  0  0
   11.7542    8.6797   21.6521 O   0  0  0  0  0  0  0  0  0  0  0  0
    7.9321    8.6711   16.7187 I   0  0  0  0  0  0  0  0  0  0  0  0
    5.8293    7.0912   19.5554 C   0  0  0  0  0  0  0  0  0  0  0  0
    9.6386    5.1430   17.7321 S   0  0  0  0  0  0  0  0  0  0  0  0
    7.9476    8.9955   19.8850 O   0  0  0  0  0  0  0  0  0  0  0  0
    6.0452    8.2343   21.9068 S   0  0  0  0  0  0  0  0  0  0  0  0
    8.8858    6.6580   15.7804 N   0  0  0  0  0  0  0  0  0  0  0  0
    7.0556    6.6203   22.3830 O   0  0  0  0  0  0  0  0  0  0  0  0
    7.8158    5.4472   17.5226 N   0  0  0  0  0  0  0  0  0  0  0  0
   11.1331    7.4681   21.2624 Br  0  0  0  0  0  0  0  0  0  0  0  0
    3.0795    6.8846   20.0216 He  0  0  0  0  0  0  0  0  0  0  0  0
   12.6514    6.1093   21.3084 He  0  0  0  0  0  0  0  0  0  0  0  0
    8.8252    4.4892   15.5608 He  0  0  0  0  0  0  0  0  0  0  0  0
   13.1525    8.7621   20.6477 He  0  0  0  0  0  0  0  0  0  0  0  0
   10.1470    9.5865   22.1511 He  0  0  0  0  0  0  0  0  0  0  0  0
   10.1031    3.0967   17.2007 He  0  0  0  0  0  0  0  0  0  0  0  0
    9.2507    6.4649   16.1924 He  0  0  0  0  0  0  0  0  0  0  0  0
    8.3902    6.8584   21.0190 He  0  0  0  0  0  0  0  0  0  0  0  0
    6.1470    9.4021   20.4018 He  0  0  0  0  0  0  0  0  0  0  0  0
    9.0106    3.0786   15.8273 He  0  0  0  0  0  0  0  0  0  0  0  0
    6.9903    8.3813   19.5306 He  0  0  0  0  0  0  0  0  0  0  0  0
   11.5111    2.9670   16.4265 He  0  0  0  0  0  0  0  0  0  0  0  0
    7.0215    7.7839   21.6233 He  0  0  0  0  0  0  0  0  0  0  0  0
  1  2  3  0
  1  4  2  0
  1  5  1  0
  1  8  4  0
  1 12  4  0
  1 15  2  0
  1 16  1  0
  1 17  3  0
  2  4  1  0
  2  6  3  0
  2  7  3  0
  2  9  3  0
  2 11  1  0
  2 13  2  0
  2 14  2  0
  2 16  3  0
  3  4  2  0
  3  6  2  0
  3  7  4  0
  3 11  1  0
  3 14  1  0
  4  7  2  0
  4  8  4  0
  4  9  4  0
  4 10  2  0
  4 12  2  0
  4 13  4  0
  5 10  1  0
  5 15  1  0
  5 16  2  0
  6  8  4  0
  6  9  2  0
  6 15  1  0
  6 16  3  0
  7 12  4  0
  7 17  4  0
  8  9  1  0
  8 10  3  0
  8 11  2  0
  8 12  4  0
  9 10  3  0
  9 11  3  0
  9 16  1  0
 10 11  2  0
 10 14  4  0
 10 16  1  0
 11 14  1  0
 13 14  3  0
 13 15  1  0
 13 16  4  0
 14 16  3  0
 15 17  3  0
M  END
$$$$

 Created by Python create_sdf_string function

 30  4  0  0  0  0  0  0  0  0999 V2000
    3.7636    7.1416   20.1735 O   0  0  0  0  0  0  0  0  0  0  0  0
    8.9165    9.5016   21.6414 C   0  0  0  0  0  0  0  0  0  0  0  0
    7.4683    6.3874   18.0578 C   0  0  0  0  0  0  0  0  0  0  0  0
    9.4654    5.3968   19.3206 C   0  0  0  0  0  0  0  0  0  0  0  0
    4.3985    7.2697   21.2666 C   0  0  0  0  0  0  0  0  0  0  0  0
    4.0517    7.5540   21.5063 O   0  0  0  0  0  0  0  0  0  0  0  0
   11.7554    6.8477   21.0043 C   0  0  0  0  0  0  0  0  0  0  0  0
    9.2152    4.6385   15.7680 C   0  0  0  0  0  0  0  0  0  0  0  0
    9.9181    5.0104   19.0799 C   0  0  0  0  0  0  0  0  0  0  0  0
   12.2541    8.2433   21.0593 C   0  0  0  0  0  0  0  0  0  0  0  0
    6.9454    8.2601   21.8407 C   0  0  0  0  0  0  0  0  0  0  0  0
   11.4402    8.4454   21.4556 C   0  0  0  0  0  0  0  0  0  0  0  0
   10.0629    8.8861   21.6436 C   0  0  0  0  0  0  0  0  0  0  0  0
   10.4752    3.5842   17.1941 C   0  0  0  0  0  0  0  0  0  0  0  0
    7.8392    7.8830   17.2785 C   0  0  0  0  0  0  0  0  0  0  0  0
    5.6492    7.2514   19.6458 C   0  0  0  0  0  0  0  0  0  0  0  0
    8.4122    6.2619   16.4446 C   0  0  0  0  0  0  0  0  0  0  0  0
    8.8554    7.2178   21.0331 C   0  0  0  0  0  0  0  0  0  0  0  0
    6.2460    8.9371   20.5195 C   0  0  0  0  0  0  0  0  0  0  0  0
    9.3818    4.8289   17.7147 C   0  0  0  0  0  0  0  0  0  0  0  0
    9.9333    3.9847   16.0389 C   0  0  0  0  0  0  0  0  0  0  0  0
    7.9482    8.7586   20.1327 C   0  0  0  0  0  0  0  0  0  0  0  0
    7.0078    8.0664   19.5096 C   0  0  0  0  0  0  0  0  0  0  0  0
    5.9725    8.0045   21.6577 C   0  0  0  0  0  0  0  0  0  0  0  0
   10.7317    3.3759   16.7455 C   0  0  0  0  0  0  0  0  0  0  0  0
    8.3164    6.3519   16.0751 C   0  0  0  0  0  0  0  0  0  0  0  0
    7.1339    7.8778   21.4428 C   0  0  0  0  0  0  0  0  0  0  0  0
    6.9551    7.0661   22.1016 C   0  0  0  0  0  0  0  0  0  0  0  0
    7.8979    5.9722   17.5894 C   0  0  0  0  0  0  0  0  0  0  0  0
   11.0108    7.6550   21.2483 C   0  0  0  0  0  0  0  0  0  0  0  0
  8 21  4  0
 14 25  4  0
 17 26  4  0
 21 25  4  0
M  END
$$$$

 Created by Python create_sdf_string function

 30 66  0  0  0  0  0  0  0  0999 V2000
    3.9129    6.7265   20.3398 O   0  0  0  0  0  0  0  0  0  0  0  0
    9.1208    6.0093   20.2044 C   0  0  0  0  0  0  0  0  0  0  0  0
    3.5194    8.3033   22.4050 F   0  0  0  0  0  0  0  0  0  0  0  0
    2.4024    7.5514   21.1879 Se  0  0  0  0  0  0  0  0  0  0  0  0
   10.5559    6.1891   20.7779 F   0  0  0  0  0  0  0  0  0  0  0  0
    8.9641    3.6062   14.8898 O   0  0  0  0  0  0  0  0  0  0  0  0
    9.5194    6.3731   17.9635 O   0  0  0  0  0  0  0  0  0  0  0  0
   12.5582    8.7248   20.9425 Cl  0  0  0  0  0  0  0  0  0  0  0  0
    5.8504    6.6606   21.3886 C   0  0  0  0  0  0  0  0  0  0  0  0
   10.6073    8.3544   22.4640 P   0  0  0  0  0  0  0  0  0  0  0  0
    4.7063    7.6371   18.8093 Cl  0  0  0  0  0  0  0  0  0  0  0  0
    7.0672    6.5716   16.0490 N   0  0  0  0  0  0  0  0  0  0  0  0
   10.2734    4.3286   18.3025 N   0  0  0  0  0  0  0  0  0  0  0  0
    9.4819    3.0088   15.4328 C   0  0  0  0  0  0  0  0  0  0  0  0
    8.0293    8.9313   17.7335 P   0  0  0  0  0  0  0  0  0  0  0  0
    5.2594    8.1352   22.3937 C   0  0  0  0  0  0  0  0  0  0  0  0
   10.8308    4.3113   17.9430 O   0  0  0  0  0  0  0  0  0  0  0  0
    7.8701    6.2607   22.5621 P   0  0  0  0  0  0  0  0  0  0  0  0
   10.2351    7.5554   22.9658 C   0  0  0  0  0  0  0  0  0  0  0  0
    8.4608    9.9179   19.7816 He  0  0  0  0  0  0  0  0  0  0  0  0
    6.5186    4.6346   18.3303 He  0  0  0  0  0  0  0  0  0  0  0  0
   12.2964    7.3523   21.1691 He  0  0  0  0  0  0  0  0  0  0  0  0
   11.3965    4.5720   16.1610 He  0  0  0  0  0  0  0  0  0  0  0  0
    6.8507    7.0914   16.8386 He  0  0  0  0  0  0  0  0  0  0  0  0
    9.1034    8.7402   21.1723 He  0  0  0  0  0  0  0  0  0  0  0  0
    6.5729    7.9712   21.5694 He  0  0  0  0  0  0  0  0  0  0  0  0
    9.4903    7.0680   18.9514 He  0  0  0  0  0  0  0  0  0  0  0  0
    8.2131    6.8666   16.9492 He  0  0  0  0  0  0  0  0  0  0  0  0
    7.4957    7.6842   21.6325 He  0  0  0  0  0  0  0  0  0  0  0  0
    8.7507    7.5162   17.1268 He  0  0  0  0  0  0  0  0  0  0  0  0
  1  6  3  0
  1 11  4  0
  1 12  1  0
  1 18  3  0
  1 19  3  0
  2  6  3  0
  2 11  3  0
  3  8  2  0
  3 11  3  0
  3 12  1  0
  3 13  1  0
  3 16  3  0
  3 17  1  0
  3 18  1  0
  4  6  1  0
  4 12  4  0
  4 16  1  0
  4 18  3  0
  5  8  4  0
  5  9  3  0
  5 11  2  0
  5 13  1  0
  5 14  3  0
  5 18  3  0
  6  7  2  0
  6  8  3  0
  6 13  4  0
  6 15  3  0
  6 19  3  0
  7  8  4  0
  7  9  2  0
  7 12  1  0
  7 15  2  0
  7 16  2  0
  7 19  2  0
  8  9  1  0
  8 11  3  0
  8 12  2  0
  8 15  3  0
  8 17  4  0
  9 11  1  0
  9 12  2  0
 10 12  3  0
 10 13  2  0
 10 16  4  0
 10 18  4  0
 10 19  3  0
 11 13  1  0
 11 14  1  0
 11 19  4  0
 12 14  1  0
 12 17  4  0
 13 14  2  0
 13 15  1  0
 13 18  2  0
 14 15  1  0
 14 16  2  0
 14 17  4  0
 14 19  4  0
 15 17  4  0
 15 18  2  0
 15 19  1  0
 16 18  1  0
 16 19  3  0
 17 18  4  0
 17 19  4  0
M  END
$$$$

 Created by Python create_sdf_string function

 30  6  0  0  0  0  0  0  0  0999 V2000
    4.2016    7.0547   20.3124 C   0  0  0  0  0  0  0  0  0  0  0  0
    8.3694    9.1383   19.8547 C   0  0  0  0  0  0  0  0  0  0  0  0
    6.7600    5.5826   18.0831 C   0  0  0  0  0  0  0  0  0  0  0  0
    9.3630    6.5181   20.1201 C   0  0  0  0  0  0  0  0  0  0  0  0
    3.8559    7.9555   21.9761 C   0  0  0  0  0  0  0  0  0  0  0  0
    3.1838    7.6128   21.1993 C   0  0  0  0  0  0  0  0  0  0  0  0
   10.7177    6.6229   20.7775 C   0  0  0  0  0  0  0  0  0  0  0  0
    9.4976    4.2696   15.4122 C   0  0  0  0  0  0  0  0  0  0  0  0
    9.3725    5.9690   17.8557 C   0  0  0  0  0  0  0  0  0  0  0  0
   12.0332    8.1591   21.1809 C   0  0  0  0  0  0  0  0  0  0  0  0
    5.6897    7.2605   21.0563 C   0  0  0  0  0  0  0  0  0  0  0  0
   11.7826    7.5059   21.2748 C   0  0  0  0  0  0  0  0  0  0  0  0
   10.4495    8.0506   22.3017 C   0  0  0  0  0  0  0  0  0  0  0  0
   10.7211    3.9207   16.2117 C   0  0  0  0  0  0  0  0  0  0  0  0
    7.3585    6.9936   17.3587 C   0  0  0  0  0  0  0  0  0  0  0  0
    4.9251    7.3301   19.5806 C   0  0  0  0  0  0  0  0  0  0  0  0
    7.7190    6.4247   16.3797 C   0  0  0  0  0  0  0  0  0  0  0  0
    9.0239    8.3160   21.2200 C   0  0  0  0  0  0  0  0  0  0  0  0
    6.3528    7.7935   21.3196 C   0  0  0  0  0  0  0  0  0  0  0  0
   10.1925    4.5510   17.7590 C   0  0  0  0  0  0  0  0  0  0  0  0
   10.0193    4.0433   15.7589 C   0  0  0  0  0  0  0  0  0  0  0  0
    9.3498    6.9433   19.2438 C   0  0  0  0  0  0  0  0  0  0  0  0
    8.0110    8.5548   18.0985 C   0  0  0  0  0  0  0  0  0  0  0  0
    5.0346    7.9410   21.9649 C   0  0  0  0  0  0  0  0  0  0  0  0
   10.5732    4.2038   17.4710 C   0  0  0  0  0  0  0  0  0  0  0  0
    8.0764    6.6568   16.9642 C   0  0  0  0  0  0  0  0  0  0  0  0
    7.3956    7.7323   21.4771 C   0  0  0  0  0  0  0  0  0  0  0  0
    7.9673    6.9183   22.3473 C   0  0  0  0  0  0  0  0  0  0  0  0
    8.5627    7.1227   17.3567 C   0  0  0  0  0  0  0  0  0  0  0  0
   10.3689    7.6561   22.3880 C   0  0  0  0  0  0  0  0  0  0  0  0
  1 16  4  0
  8 21  4  0
 10 12  1  0
 13 30  1  0
 14 21  4  0
 20 25  4  0
M  END
$$$$

 Created by Python create_sdf_string function

 30 52  0  0  0  0  0  0  0  0999 V2000
    4.7478    7.3698   22.0363 C   0  0  0  0  0  0  0  0  0  0  0  0
    7.1542    7.1274   19.0872 F   0  0  0  0  0  0  0  0  0  0  0  0
   10.0425    6.8982   18.5475 C   0  0  0  0  0  0  0  0  0  0  0  0
    1.3745    7.4517   20.9021 F   0  0  0  0  0  0  0  0  0  0  0  0
    9.3949    6.4977   19.3130 F   0  0  0  0  0  0  0  0  0  0  0  0
    9.8246    5.9150   19.0624 C   0  0  0  0  0  0  0  0  0  0  0  0
   12.0926    8.3402   19.4916 F   0  0  0  0  0  0  0  0  0  0  0  0
   11.0518    6.8506   23.5204 C   0  0  0  0  0  0  0  0  0  0  0  0
    7.7125    4.3247   16.5487 O   0  0  0  0  0  0  0  0  0  0  0  0
    3.4171    8.6680   18.9630 O   0  0  0  0  0  0  0  0  0  0  0  0
    8.2154    8.2079   20.8434 C   0  0  0  0  0  0  0  0  0  0  0  0
    5.9403    7.3621   21.7424 O   0  0  0  0  0  0  0  0  0  0  0  0
    8.7351    6.6490   19.5441 C   0  0  0  0  0  0  0  0  0  0  0  0
    8.1902    6.5808   17.1884 F   0  0  0  0  0  0  0  0  0  0  0  0
   10.3841    6.3539   16.3988 P   0  0  0  0  0  0  0  0  0  0  0  0
    8.2816    7.2917   20.9386 N   0  0  0  0  0  0  0  0  0  0  0  0
   11.1447    8.1428   22.5343 F   0  0  0  0  0  0  0  0  0  0  0  0
    8.6273    8.4856   20.7168 He  0  0  0  0  0  0  0  0  0  0  0  0
    4.6484    7.9154   20.5748 He  0  0  0  0  0  0  0  0  0  0  0  0
    9.4760    3.3524   16.2698 He  0  0  0  0  0  0  0  0  0  0  0  0
    5.8142    8.5079   21.3037 He  0  0  0  0  0  0  0  0  0  0  0  0
   11.8162    7.5735   22.1279 He  0  0  0  0  0  0  0  0  0  0  0  0
   11.6092    4.1512   16.4594 He  0  0  0  0  0  0  0  0  0  0  0  0
    6.7145    8.7478   17.4595 He  0  0  0  0  0  0  0  0  0  0  0  0
    8.8084    5.0436   18.8552 He  0  0  0  0  0  0  0  0  0  0  0  0
   11.3019    2.9976   17.6903 He  0  0  0  0  0  0  0  0  0  0  0  0
    5.1431    9.9208   22.2831 He  0  0  0  0  0  0  0  0  0  0  0  0
    7.5677    6.4638   15.4485 He  0  0  0  0  0  0  0  0  0  0  0  0
    7.2314    8.4361   20.4515 He  0  0  0  0  0  0  0  0  0  0  0  0
    9.3984    6.0847   18.5810 He  0  0  0  0  0  0  0  0  0  0  0  0
  1  2  3  0
  1  6  1  0
  1  7  1  0
  1 10  4  0
  1 14  2  0
  2  3  1  0
  2  8  1  0
  2  9  4  0
  2 11  1  0
  2 12  4  0
  2 15  4  0
  2 16  2  0
  3  5  2  0
  3  6  2  0
  3  7  1  0
  3  9  3  0
  3 11  4  0
  3 13  1  0
  3 14  3  0
  3 15  1  0
  4  5  1  0
  4 10  4  0
  4 12  1  0
  5  6  4  0
  5  8  3  0
  5 14  1  0
  5 15  4  0
  5 16  4  0
  5 17  3  0
  6 10  4  0
  6 11  4  0
  7 13  3  0
  7 16  1  0
  7 17  3  0
  8 11  3  0
  8 13  4  0
  8 16  4  0
  8 17  2  0
  9 14  3  0
  9 15  2  0
  9 16  3  0
 10 12  2  0
 10 13  3  0
 10 17  4  0
 11 12  1  0
 11 13  1  0
 11 17  4  0
 12 14  2  0
 12 15  1  0
 12 16  3  0
 12 17  2  0
 16 17  3  0
M  END
$$$$

 Created by Python create_sdf_string function

 30  0  0  0  0  0  0  0  0  0999 V2000
    4.4791    7.8508   21.6018 C   0  0  0  0  0  0  0  0  0  0  0  0
    8.7998    8.2729   21.0683 C   0  0  0  0  0  0  0  0  0  0  0  0
    6.8236    7.4871   18.9822 C   0  0  0  0  0  0  0  0  0  0  0  0
   10.3746    6.8563   18.7730 C   0  0  0  0  0  0  0  0  0  0  0  0
    4.2209    8.0723   20.3167 C   0  0  0  0  0  0  0  0  0  0  0  0
    2.7582    7.8110   20.8585 O   0  0  0  0  0  0  0  0  0  0  0  0
    9.6383    6.6748   19.4632 C   0  0  0  0  0  0  0  0  0  0  0  0
    9.8678    4.0386   16.3641 C   0  0  0  0  0  0  0  0  0  0  0  0
   10.1493    5.8703   18.8758 C   0  0  0  0  0  0  0  0  0  0  0  0
   11.7555    7.8688   20.1002 C   0  0  0  0  0  0  0  0  0  0  0  0
    5.5355    8.4893   21.1174 C   0  0  0  0  0  0  0  0  0  0  0  0
   11.5167    7.7016   21.8647 C   0  0  0  0  0  0  0  0  0  0  0  0
   10.8414    7.3161   22.7613 C   0  0  0  0  0  0  0  0  0  0  0  0
   10.9031    3.9599   16.6985 C   0  0  0  0  0  0  0  0  0  0  0  0
    8.2507    4.6145   16.4873 C   0  0  0  0  0  0  0  0  0  0  0  0
    3.8962    8.3700   19.4493 O   0  0  0  0  0  0  0  0  0  0  0  0
    6.7822    8.0896   18.1275 O   0  0  0  0  0  0  0  0  0  0  0  0
    8.2478    8.0762   20.9921 C   0  0  0  0  0  0  0  0  0  0  0  0
    5.7414    7.8439   21.4988 C   0  0  0  0  0  0  0  0  0  0  0  0
    9.2017    4.6457   18.0799 C   0  0  0  0  0  0  0  0  0  0  0  0
   10.9407    3.3445   17.4826 C   0  0  0  0  0  0  0  0  0  0  0  0
    8.7141    7.1430   19.7655 C   0  0  0  0  0  0  0  0  0  0  0  0
    8.0620    6.4223   17.0205 C   0  0  0  0  0  0  0  0  0  0  0  0
    5.0083    9.0769   21.7742 C   0  0  0  0  0  0  0  0  0  0  0  0
   10.0202    5.9686   16.6341 C   0  0  0  0  0  0  0  0  0  0  0  0
    7.8601    6.2667   15.9586 O   0  0  0  0  0  0  0  0  0  0  0  0
    6.7806    8.2845   20.4696 C   0  0  0  0  0  0  0  0  0  0  0  0
    8.4877    7.5936   21.1236 C   0  0  0  0  0  0  0  0  0  0  0  0
    9.3612    5.7727   18.0811 C   0  0  0  0  0  0  0  0  0  0  0  0
   11.0118    7.9578   22.2171 C   0  0  0  0  0  0  0  0  0  0  0  0
M  END
$$$$

 Created by Python create_sdf_string function

 30 30  0  0  0  0  0  0  0  0999 V2000
    3.8184    9.1979   21.6619 Br  0  0  0  0  0  0  0  0  0  0  0  0
   10.5090    5.2988   19.0715 N   0  0  0  0  0  0  0  0  0  0  0  0
    4.8144    8.4888   21.1558 Se  0  0  0  0  0  0  0  0  0  0  0  0
   12.3777    8.0211   23.5893 N   0  0  0  0  0  0  0  0  0  0  0  0
    9.5770    3.6889   16.4523 B   0  0  0  0  0  0  0  0  0  0  0  0
    8.8395    7.4975   20.9421 C   0  0  0  0  0  0  0  0  0  0  0  0
    5.5185    6.7520   21.3578 O   0  0  0  0  0  0  0  0  0  0  0  0
    8.4386    4.8665   18.2478 O   0  0  0  0  0  0  0  0  0  0  0  0
    8.8416    7.7824   20.6206 C   0  0  0  0  0  0  0  0  0  0  0  0
    8.3880    5.3223   16.6533 S   0  0  0  0  0  0  0  0  0  0  0  0
    3.7033   11.2126   20.1601 C   0  0  0  0  0  0  0  0  0  0  0  0
    7.5305    6.1852   13.3578 S   0  0  0  0  0  0  0  0  0  0  0  0
    9.0241    7.2595   22.1882 O   0  0  0  0  0  0  0  0  0  0  0  0
   12.0581    8.3348   22.7022 C   0  0  0  0  0  0  0  0  0  0  0  0
    7.5437    8.4347   21.2361 He  0  0  0  0  0  0  0  0  0  0  0  0
    7.6610    8.1254   19.3885 He  0  0  0  0  0  0  0  0  0  0  0  0
   10.8395    7.7374   18.8865 He  0  0  0  0  0  0  0  0  0  0  0  0
    4.2047    7.6166   20.4671 He  0  0  0  0  0  0  0  0  0  0  0  0
    1.9577    6.0327   21.6435 He  0  0  0  0  0  0  0  0  0  0  0  0
   10.0212    6.7348   18.6657 He  0  0  0  0  0  0  0  0  0  0  0  0
   10.9928    4.1828   17.0382 He  0  0  0  0  0  0  0  0  0  0  0  0
   12.7311    8.0061   21.5105 He  0  0  0  0  0  0  0  0  0  0  0  0
   11.7625    7.7059   23.5170 He  0  0  0  0  0  0  0  0  0  0  0  0
    6.4512    4.8546   14.9534 He  0  0  0  0  0  0  0  0  0  0  0  0
    3.8112    8.4029   19.9590 He  0  0  0  0  0  0  0  0  0  0  0  0
    8.2137    8.4234   17.1510 He  0  0  0  0  0  0  0  0  0  0  0  0
    8.8446    2.3880   17.4187 He  0  0  0  0  0  0  0  0  0  0  0  0
   10.0257    6.9822   15.8451 He  0  0  0  0  0  0  0  0  0  0  0  0
    6.6195    7.0334   19.6536 He  0  0  0  0  0  0  0  0  0  0  0  0
    7.5273    7.2161   17.4385 He  0  0  0  0  0  0  0  0  0  0  0  0
  1  3  3  0
  1  5  4  0
  1  8  4  0
  1  9  4  0
  1 11  3  0
  1 14  1  0
  2  4  1  0
  2  5  2  0
  2  8  3  0
  3  6  4  0
  3  7  2  0
  3  8  3  0
  4  5  3  0
  4 12  4  0
  5  9  3  0
  6 10  3  0
  6 11  4  0
  6 13  3  0
  6 14  4  0
  7 13  3  0
  8  9  3  0
  8 10  3  0
  8 13  4  0
  9 10  1  0
 10 13  3  0
 11 12  3  0
 11 13  3  0
 11 14  3  0
 12 13  1  0
 12 14  3  0
M  END
$$$$

 Created by Python create_sdf_string function

 30  3  0  0  0  0  0  0  0  0999 V2000
    3.7085    8.9681   21.1303 C   0  0  0  0  0  0  0  0  0  0  0  0
    7.4841    7.9955   21.0862 C   0  0  0  0  0  0  0  0  0  0  0  0
    7.3676    7.8082   19.4379 C   0  0  0  0  0  0  0  0  0  0  0  0
   10.5008    7.3660   19.3275 C   0  0  0  0  0  0  0  0  0  0  0  0
    4.2017    7.7215   20.7358 C   0  0  0  0  0  0  0  0  0  0  0  0
    2.8924    7.0071   21.3051 O   0  0  0  0  0  0  0  0  0  0  0  0
    9.6742    6.8780   18.7719 C   0  0  0  0  0  0  0  0  0  0  0  0
   10.4559    4.2593   16.9746 C   0  0  0  0  0  0  0  0  0  0  0  0
   10.3728    5.7016   18.6507 C   0  0  0  0  0  0  0  0  0  0  0  0
   12.0599    7.8383   21.6155 C   0  0  0  0  0  0  0  0  0  0  0  0
    4.9168    8.3965   20.6733 C   0  0  0  0  0  0  0  0  0  0  0  0
   11.3205    7.7189   23.0471 C   0  0  0  0  0  0  0  0  0  0  0  0
   12.0074    7.9111   23.0382 O   0  0  0  0  0  0  0  0  0  0  0  0
    9.7707    4.3482   16.3082 C   0  0  0  0  0  0  0  0  0  0  0  0
    8.0650    5.2461   15.3960 C   0  0  0  0  0  0  0  0  0  0  0  0
    4.0138    8.6311   20.1966 C   0  0  0  0  0  0  0  0  0  0  0  0
    8.0454    7.7536   17.4337 C   0  0  0  0  0  0  0  0  0  0  0  0
    9.0661    7.6442   20.9866 C   0  0  0  0  0  0  0  0  0  0  0  0
    5.3636    7.1097   21.0333 C   0  0  0  0  0  0  0  0  0  0  0  0
    8.6614    4.9697   17.8406 C   0  0  0  0  0  0  0  0  0  0  0  0
    9.4171    3.8457   17.3697 C   0  0  0  0  0  0  0  0  0  0  0  0
    8.9684    7.6651   20.5392 C   0  0  0  0  0  0  0  0  0  0  0  0
    8.5554    5.2500   16.2897 C   0  0  0  0  0  0  0  0  0  0  0  0
    4.0122   10.0150   20.2167 C   0  0  0  0  0  0  0  0  0  0  0  0
    9.3821    6.5823   16.1308 C   0  0  0  0  0  0  0  0  0  0  0  0
    7.9813    6.1290   14.4656 O   0  0  0  0  0  0  0  0  0  0  0  0
    6.6795    7.5553   19.7302 C   0  0  0  0  0  0  0  0  0  0  0  0
    9.4383    7.6244   21.9706 C   0  0  0  0  0  0  0  0  0  0  0  0
    7.8240    7.1006   17.4078 C   0  0  0  0  0  0  0  0  0  0  0  0
   11.6291    7.9348   22.4944 C   0  0  0  0  0  0  0  0  0  0  0  0
  3 27  4  0
 12 30  1  0
 13 30  1  0
M  END
$$$$

 Created by Python create_sdf_string function

 30 67  0  0  0  0  0  0  0  0999 V2000
    7.4743    9.5612   21.9062 C   0  0  0  0  0  0  0  0  0  0  0  0
    9.7778    5.6994   18.9452 P   0  0  0  0  0  0  0  0  0  0  0  0
    2.9263    6.6971   19.3760 F   0  0  0  0  0  0  0  0  0  0  0  0
    8.9361    6.0712   19.0735 O   0  0  0  0  0  0  0  0  0  0  0  0
   10.2138    6.6025   18.5454 S   0  0  0  0  0  0  0  0  0  0  0  0
   11.5759    8.4282   21.2939 F   0  0  0  0  0  0  0  0  0  0  0  0
    4.0429    9.1564   19.5876 C   0  0  0  0  0  0  0  0  0  0  0  0
   10.7767    7.4663   23.5327 S   0  0  0  0  0  0  0  0  0  0  0  0
    8.8308    4.9605   16.9177 B   0  0  0  0  0  0  0  0  0  0  0  0
    8.9457    6.2274   15.9956 C   0  0  0  0  0  0  0  0  0  0  0  0
    3.0760    9.3746   22.2132 F   0  0  0  0  0  0  0  0  0  0  0  0
   10.4229    7.8721   19.3298 C   0  0  0  0  0  0  0  0  0  0  0  0
    6.7557    6.2704   19.6423 N   0  0  0  0  0  0  0  0  0  0  0  0
   10.1771    5.3983   17.2557 C   0  0  0  0  0  0  0  0  0  0  0  0
    9.9283    4.0199   17.9659 F   0  0  0  0  0  0  0  0  0  0  0  0
    8.2729    7.0892   21.0607 O   0  0  0  0  0  0  0  0  0  0  0  0
    8.0894    3.9032   16.6615 O   0  0  0  0  0  0  0  0  0  0  0  0
    2.3704   10.4065   19.5481 C   0  0  0  0  0  0  0  0  0  0  0  0
    7.5678    6.1245   16.4586 N   0  0  0  0  0  0  0  0  0  0  0  0
    7.0857    6.6422   14.0594 C   0  0  0  0  0  0  0  0  0  0  0  0
    7.9411    6.8032   18.9781 P   0  0  0  0  0  0  0  0  0  0  0  0
   12.3906    9.2227   20.9426 C   0  0  0  0  0  0  0  0  0  0  0  0
    1.7280    9.1288   21.0713 He  0  0  0  0  0  0  0  0  0  0  0  0
    6.9832    6.7880   16.7819 He  0  0  0  0  0  0  0  0  0  0  0  0
    2.8342    7.8628   21.2712 He  0  0  0  0  0  0  0  0  0  0  0  0
   10.4064    5.8411   17.2940 He  0  0  0  0  0  0  0  0  0  0  0  0
   10.1996    7.8463   21.7076 He  0  0  0  0  0  0  0  0  0  0  0  0
    7.9819   10.4330   15.4492 He  0  0  0  0  0  0  0  0  0  0  0  0
    9.9775    7.7120   22.4380 He  0  0  0  0  0  0  0  0  0  0  0  0
    7.0161    7.7440   16.7033 He  0  0  0  0  0  0  0  0  0  0  0  0
  1  2  2  0
  1  9  3  0
  1 12  2  0
  1 17  3  0
  1 19  4  0
  2  5  3  0
  2 17  4  0
  2 20  4  0
  3  5  1  0
  3 10  1  0
  3 12  1  0
  4  6  2  0
  4 13  2  0
  4 17  1  0
  4 19  4  0
  4 20  2  0
  5  7  1  0
  5 13  1  0
  5 20  2  0
  5 21  3  0
  6  9  3  0
  6 10  1  0
  6 11  4  0
  6 16  4  0
  6 17  2  0
  6 18  3  0
  6 19  2  0
  6 20  3  0
  6 21  2  0
  7 11  2  0
  7 15  2  0
  7 16  4  0
  8 17  2  0
  8 18  4  0
  8 21  4  0
  9 10  2  0
  9 15  2  0
  9 17  3  0
  9 19  2  0
  9 21  3  0
 10 11  3  0
 10 13  3  0
 10 17  1  0
 10 20  3  0
 11 12  1  0
 11 13  3  0
 11 18  2  0
 11 19  4  0
 12 16  3  0
 12 22  4  0
 13 16  2  0
 13 17  4  0
 13 18  2  0
 13 21  1  0
 13 22  3  0
 14 17  1  0
 14 19  3  0
 14 22  2  0
 15 16  2  0
 15 17  2  0
 15 18  2  0
 17 19  1  0
 17 21  4  0
 18 20  3  0
 19 21  1  0
 20 21  3  0
 20 22  3  0
M  END
$$$$

 Created by Python create_sdf_string function

 30  0  0  0  0  0  0  0  0  0999 V2000
    2.3537    8.8426   20.5645 C   0  0  0  0  0  0  0  0  0  0  0  0
    7.2268    8.2582   21.3369 C   0  0  0  0  0  0  0  0  0  0  0  0
    7.2962    6.9895   17.3144 C   0  0  0  0  0  0  0  0  0  0  0  0
    9.9372    6.1917   19.0344 C   0  0  0  0  0  0  0  0  0  0  0  0
    3.2912    8.2325   20.5549 C   0  0  0  0  0  0  0  0  0  0  0  0
    3.8225    7.5860   19.7174 C   0  0  0  0  0  0  0  0  0  0  0  0
    8.6507    6.4862   19.3244 C   0  0  0  0  0  0  0  0  0  0  0  0
   10.3512    5.7444   17.5534 C   0  0  0  0  0  0  0  0  0  0  0  0
   10.4004    6.7800   18.9320 C   0  0  0  0  0  0  0  0  0  0  0  0
   11.3556    8.3077   21.3834 C   0  0  0  0  0  0  0  0  0  0  0  0
    4.3415    8.4690   19.9643 C   0  0  0  0  0  0  0  0  0  0  0  0
   10.2738    7.8959   21.6757 C   0  0  0  0  0  0  0  0  0  0  0  0
   10.7967    7.8441   22.9106 C   0  0  0  0  0  0  0  0  0  0  0  0
    8.9592    4.8341   16.5669 C   0  0  0  0  0  0  0  0  0  0  0  0
    8.6180    6.3622   15.7639 C   0  0  0  0  0  0  0  0  0  0  0  0
    3.3289    9.1841   21.3185 C   0  0  0  0  0  0  0  0  0  0  0  0
    8.2469    8.4469   15.7133 O   0  0  0  0  0  0  0  0  0  0  0  0
   10.5805    7.7141   19.9873 C   0  0  0  0  0  0  0  0  0  0  0  0
    6.2877    7.1750   19.5642 C   0  0  0  0  0  0  0  0  0  0  0  0
   10.0074    5.2025   17.2255 C   0  0  0  0  0  0  0  0  0  0  0  0
   10.0047    3.9899   17.5393 C   0  0  0  0  0  0  0  0  0  0  0  0
    8.0045    7.4594   20.9239 C   0  0  0  0  0  0  0  0  0  0  0  0
    8.4725    4.3954   16.5305 C   0  0  0  0  0  0  0  0  0  0  0  0
    2.9686    9.4262   19.8218 C   0  0  0  0  0  0  0  0  0  0  0  0
    7.9083    6.2512   16.4631 C   0  0  0  0  0  0  0  0  0  0  0  0
    7.9979    6.8428   14.6656 C   0  0  0  0  0  0  0  0  0  0  0  0
    7.2428    7.1896   19.4276 C   0  0  0  0  0  0  0  0  0  0  0  0
    9.8201    7.8680   22.1028 C   0  0  0  0  0  0  0  0  0  0  0  0
    7.4161    7.4336   17.3271 C   0  0  0  0  0  0  0  0  0  0  0  0
   11.8239    8.5878   21.0318 C   0  0  0  0  0  0  0  0  0  0  0  0
M  END
$$$$

 Created by Python create_sdf_string function

 30  7  0  0  0  0  0  0  0  0999 V2000
    7.1810    9.3653   21.9042 C   0  0  0  0  0  0  0  0  0  0  0  0
   11.6608    7.3313   18.2397 Cl  0  0  0  0  0  0  0  0  0  0  0  0
   10.8580    7.6246   22.3143 C   0  0  0  0  0  0  0  0  0  0  0  0
    9.5312    6.1213   14.5447 O   0  0  0  0  0  0  0  0  0  0  0  0
    7.7167    8.6486   15.9852 Br  0  0  0  0  0  0  0  0  0  0  0  0
   10.1040    5.7341   17.8915 C   0  0  0  0  0  0  0  0  0  0  0  0
    7.1365    7.0168   20.8195 N   0  0  0  0  0  0  0  0  0  0  0  0
    5.9678    6.9226   17.5974 N   0  0  0  0  0  0  0  0  0  0  0  0
   -0.3864    8.8014   22.0358 He  0  0  0  0  0  0  0  0  0  0  0  0
    7.4077    8.1576   17.2017 He  0  0  0  0  0  0  0  0  0  0  0  0
    8.7656    8.2072   17.6156 He  0  0  0  0  0  0  0  0  0  0  0  0
    2.4945    9.9011   21.0575 He  0  0  0  0  0  0  0  0  0  0  0  0
    3.3751    6.8017   17.3901 He  0  0  0  0  0  0  0  0  0  0  0  0
    7.5780    7.1402   18.8948 He  0  0  0  0  0  0  0  0  0  0  0  0
   10.5797    5.3693   17.3496 He  0  0  0  0  0  0  0  0  0  0  0  0
    4.1280    8.9726   20.0908 He  0  0  0  0  0  0  0  0  0  0  0  0
   11.1536    8.4068   21.9049 He  0  0  0  0  0  0  0  0  0  0  0  0
   10.8170    7.5046   22.3688 He  0  0  0  0  0  0  0  0  0  0  0  0
    6.5742    7.2295   15.6273 He  0  0  0  0  0  0  0  0  0  0  0  0
    1.4049    9.0705   20.8538 He  0  0  0  0  0  0  0  0  0  0  0  0
   10.1307    7.9470   20.4719 He  0  0  0  0  0  0  0  0  0  0  0  0
    7.6400    7.3814   21.4367 He  0  0  0  0  0  0  0  0  0  0  0  0
    9.5862    4.9249   17.6786 He  0  0  0  0  0  0  0  0  0  0  0  0
    8.4900    6.3457   21.8488 He  0  0  0  0  0  0  0  0  0  0  0  0
    9.4430    5.9547   16.1645 He  0  0  0  0  0  0  0  0  0  0  0  0
    3.3246    9.1704   20.1220 He  0  0  0  0  0  0  0  0  0  0  0  0
    7.2947    6.0556   16.0710 He  0  0  0  0  0  0  0  0  0  0  0  0
    9.2794    4.7674   16.6267 He  0  0  0  0  0  0  0  0  0  0  0  0
    9.5304    8.2322   23.0917 He  0  0  0  0  0  0  0  0  0  0  0  0
   12.1144    8.3484   19.4933 He  0  0  0  0  0  0  0  0  0  0  0  0
  1  4  3  0
  1  7  3  0
  2  5  4  0
  2  8  1  0
  3  5  4  0
  4  5  2  0
  5  8  3  0
M  END
$$$$

 Created by Python create_sdf_string function

 30  5  0  0  0  0  0  0  0  0999 V2000
    1.3207    8.7946   21.0517 C   0  0  0  0  0  0  0  0  0  0  0  0
    6.6545    8.3596   21.2661 C   0  0  0  0  0  0  0  0  0  0  0  0
    7.5207    7.7860   17.8021 C   0  0  0  0  0  0  0  0  0  0  0  0
    8.6934    7.7242   17.8583 C   0  0  0  0  0  0  0  0  0  0  0  0
    2.7508    9.2139   20.7318 C   0  0  0  0  0  0  0  0  0  0  0  0
    4.1443    7.4487   19.2118 C   0  0  0  0  0  0  0  0  0  0  0  0
    6.7790    7.5348   19.1692 C   0  0  0  0  0  0  0  0  0  0  0  0
   10.6747    5.4445   17.4184 C   0  0  0  0  0  0  0  0  0  0  0  0
   11.3288    7.2042   18.7626 C   0  0  0  0  0  0  0  0  0  0  0  0
   10.7661    7.8127   22.0488 C   0  0  0  0  0  0  0  0  0  0  0  0
    4.3488    8.3960   20.0409 C   0  0  0  0  0  0  0  0  0  0  0  0
   11.1618    8.1036   21.6641 C   0  0  0  0  0  0  0  0  0  0  0  0
   10.6979    7.6842   22.2007 C   0  0  0  0  0  0  0  0  0  0  0  0
    9.0514    5.7611   15.0490 C   0  0  0  0  0  0  0  0  0  0  0  0
    7.7102    7.1250   15.9296 C   0  0  0  0  0  0  0  0  0  0  0  0
    2.2437    8.8094   20.5341 C   0  0  0  0  0  0  0  0  0  0  0  0
    8.1553    7.9642   16.4875 C   0  0  0  0  0  0  0  0  0  0  0  0
   10.2204    7.6246   20.4410 C   0  0  0  0  0  0  0  0  0  0  0  0
    7.5981    7.6601   21.2690 C   0  0  0  0  0  0  0  0  0  0  0  0
   10.2772    6.2150   18.0071 C   0  0  0  0  0  0  0  0  0  0  0  0
    9.8356    5.1875   17.3913 C   0  0  0  0  0  0  0  0  0  0  0  0
    8.4126    7.0953   21.6036 C   0  0  0  0  0  0  0  0  0  0  0  0
    9.4460    5.7129   16.2376 C   0  0  0  0  0  0  0  0  0  0  0  0
    3.2717    8.6497   20.1395 C   0  0  0  0  0  0  0  0  0  0  0  0
    7.9958    6.1788   16.2265 C   0  0  0  0  0  0  0  0  0  0  0  0
    9.5418    4.8074   16.4183 C   0  0  0  0  0  0  0  0  0  0  0  0
    6.8733    7.5740   20.5758 C   0  0  0  0  0  0  0  0  0  0  0  0
    9.5281    7.9980   22.7160 C   0  0  0  0  0  0  0  0  0  0  0  0
    5.6373    7.2952   18.8857 C   0  0  0  0  0  0  0  0  0  0  0  0
   11.5419    7.8266   19.8188 C   0  0  0  0  0  0  0  0  0  0  0  0
  1 16  1  0
  5 16  1  0
  6 11  4  0
  6 29  4  0
  7 29  4  0
M  END
$$$$

 Created by Python create_sdf_string function

 30 66  0  0  0  0  0  0  0  0999 V2000
    1.2935    8.4240   21.7871 Cl  0  0  0  0  0  0  0  0  0  0  0  0
    7.3914    8.3939   17.8006 O   0  0  0  0  0  0  0  0  0  0  0  0
    8.6276    9.2838   17.4131 C   0  0  0  0  0  0  0  0  0  0  0  0
    3.5551    8.5043   20.0454 S   0  0  0  0  0  0  0  0  0  0  0  0
   11.2278    6.0418   15.9510 Br  0  0  0  0  0  0  0  0  0  0  0  0
   10.9199    8.2711   22.2023 C   0  0  0  0  0  0  0  0  0  0  0  0
    3.7667    8.2507   20.0947 C   0  0  0  0  0  0  0  0  0  0  0  0
   10.8282    7.0716   21.6222 I   0  0  0  0  0  0  0  0  0  0  0  0
    8.4300    4.1922   15.3409 C   0  0  0  0  0  0  0  0  0  0  0  0
    7.7770    6.5126   16.2822 C   0  0  0  0  0  0  0  0  0  0  0  0
    2.4044    8.6037   20.1541 F   0  0  0  0  0  0  0  0  0  0  0  0
   10.6127    4.7980   18.0431 B   0  0  0  0  0  0  0  0  0  0  0  0
   10.8440    4.6748   17.9289 O   0  0  0  0  0  0  0  0  0  0  0  0
    9.8309    6.8382   20.5983 F   0  0  0  0  0  0  0  0  0  0  0  0
    9.2302    6.1737   16.3732 C   0  0  0  0  0  0  0  0  0  0  0  0
    7.9573    6.2919   14.7268 C   0  0  0  0  0  0  0  0  0  0  0  0
    8.4711    5.8623   15.6154 N   0  0  0  0  0  0  0  0  0  0  0  0
    6.2001    6.0599   19.5172 C   0  0  0  0  0  0  0  0  0  0  0  0
   11.7962    6.9826   21.2719 N   0  0  0  0  0  0  0  0  0  0  0  0
    6.5905    9.7681   21.1366 He  0  0  0  0  0  0  0  0  0  0  0  0
    2.4545    9.0463   21.2426 He  0  0  0  0  0  0  0  0  0  0  0  0
    6.5916    9.2661   19.1626 He  0  0  0  0  0  0  0  0  0  0  0  0
   11.4158    4.0901   20.3498 He  0  0  0  0  0  0  0  0  0  0  0  0
    9.4287    6.4920   21.2763 He  0  0  0  0  0  0  0  0  0  0  0  0
    7.3780    6.0599   16.1682 He  0  0  0  0  0  0  0  0  0  0  0  0
    9.9985    7.7165   20.6166 He  0  0  0  0  0  0  0  0  0  0  0  0
    8.2157    8.4555   20.7698 He  0  0  0  0  0  0  0  0  0  0  0  0
    3.0560    8.6666   19.5795 He  0  0  0  0  0  0  0  0  0  0  0  0
    6.3869    9.4908   20.1161 He  0  0  0  0  0  0  0  0  0  0  0  0
    9.0020    9.1595   23.2522 He  0  0  0  0  0  0  0  0  0  0  0  0
  1  2  2  0
  1  7  4  0
  1  9  1  0
  1 11  2  0
  1 13  1  0
  1 14  3  0
  1 16  3  0
  1 18  2  0
  2  3  1  0
  2  5  3  0
  2  9  1  0
  2 13  1  0
  2 14  2  0
  2 15  2  0
  3  5  1  0
  3  6  2  0
  3  7  1  0
  3  8  4  0
  3 11  1  0
  3 15  2  0
  3 16  4  0
  4  7  4  0
  4 10  1  0
  4 12  3  0
  4 14  4  0
  5  9  4  0
  5 13  1  0
  5 15  4  0
  6  9  2  0
  6 12  1  0
  6 13  1  0
  6 15  4  0
  6 16  1  0
  6 17  4  0
  7  8  4  0
  7  9  4  0
  7 15  4  0
  7 16  3  0
  7 19  3  0
  8  9  3  0
  8 10  2  0
  8 12  3  0
  8 15  2  0
  8 17  2  0
  9 10  3  0
  9 15  3  0
  9 18  2  0
 10 12  1  0
 10 13  4  0
 10 17  3  0
 10 18  1  0
 11 15  4  0
 11 16  3  0
 11 19  4  0
 12 17  2  0
 12 18  2  0
 13 15  2  0
 13 17  4  0
 13 18  2  0
 13 19  1  0
 14 15  1  0
 14 17  1  0
 15 16  4  0
 15 19  3  0
 17 18  3  0
 18 19  1  0
M  END
$$$$

 Created by Python create_sdf_string function

 30  4  0  0  0  0  0  0  0  0999 V2000
    1.8001    8.3692   21.1778 C   0  0  0  0  0  0  0  0  0  0  0  0
    6.5795    9.3250   20.9041 C   0  0  0  0  0  0  0  0  0  0  0  0
    7.5223    8.3027   18.2258 C   0  0  0  0  0  0  0  0  0  0  0  0
    8.1441    8.4243   17.8429 C   0  0  0  0  0  0  0  0  0  0  0  0
    2.6709    9.0033   20.9094 C   0  0  0  0  0  0  0  0  0  0  0  0
    3.9482    8.5751   20.0538 C   0  0  0  0  0  0  0  0  0  0  0  0
    6.4791    8.8069   19.3430 C   0  0  0  0  0  0  0  0  0  0  0  0
   10.4580    5.2728   16.4696 C   0  0  0  0  0  0  0  0  0  0  0  0
   11.2984    4.8927   19.7323 C   0  0  0  0  0  0  0  0  0  0  0  0
   10.5333    7.9872   22.0525 C   0  0  0  0  0  0  0  0  0  0  0  0
    4.0939    8.3568   20.0305 C   0  0  0  0  0  0  0  0  0  0  0  0
    9.7210    6.8211   20.7629 C   0  0  0  0  0  0  0  0  0  0  0  0
   10.8051    7.0296   21.4491 C   0  0  0  0  0  0  0  0  0  0  0  0
    8.8856    4.9340   15.4655 C   0  0  0  0  0  0  0  0  0  0  0  0
    8.2044    6.5373   16.5982 C   0  0  0  0  0  0  0  0  0  0  0  0
    2.4668    8.5779   20.4497 C   0  0  0  0  0  0  0  0  0  0  0  0
    7.8468    6.2967   16.5576 C   0  0  0  0  0  0  0  0  0  0  0  0
    9.7099    7.6331   20.7775 C   0  0  0  0  0  0  0  0  0  0  0  0
    8.0380    8.5507   20.5223 C   0  0  0  0  0  0  0  0  0  0  0  0
   10.5710    4.9567   18.0750 C   0  0  0  0  0  0  0  0  0  0  0  0
   10.8472    4.8690   18.0972 C   0  0  0  0  0  0  0  0  0  0  0  0
    9.8319    6.9223   20.4779 C   0  0  0  0  0  0  0  0  0  0  0  0
    9.3627    5.8763   16.6523 C   0  0  0  0  0  0  0  0  0  0  0  0
    3.1275    8.6437   19.7096 C   0  0  0  0  0  0  0  0  0  0  0  0
    8.2130    6.2938   14.9782 C   0  0  0  0  0  0  0  0  0  0  0  0
    8.5773    5.8507   15.6634 C   0  0  0  0  0  0  0  0  0  0  0  0
    6.3096    9.0848   20.1578 C   0  0  0  0  0  0  0  0  0  0  0  0
    9.3145    8.8104   22.3557 C   0  0  0  0  0  0  0  0  0  0  0  0
    5.9348    7.2539   19.0760 C   0  0  0  0  0  0  0  0  0  0  0  0
   11.2487    6.5247   21.0819 C   0  0  0  0  0  0  0  0  0  0  0  0
  3  4  1  0
  5 16  1  0
  6 11  4  0
 12 22  4  0
M  END
$$$$

 Created by Python create_sdf_string function

 30 39  0  0  0  0  0  0  0  0999 V2000
    5.7261    9.4541   20.4793 F   0  0  0  0  0  0  0  0  0  0  0  0
    8.0466    8.3655   18.0289 C   0  0  0  0  0  0  0  0  0  0  0  0
    2.5539    8.9188   21.6991 S   0  0  0  0  0  0  0  0  0  0  0  0
    1.6518    8.3034   20.6958 C   0  0  0  0  0  0  0  0  0  0  0  0
   10.6069    7.4159   20.6421 Se  0  0  0  0  0  0  0  0  0  0  0  0
   10.0767    7.4763   21.9278 N   0  0  0  0  0  0  0  0  0  0  0  0
    2.4657    7.5237   20.0281 C   0  0  0  0  0  0  0  0  0  0  0  0
    9.8579    4.8720   15.8135 C   0  0  0  0  0  0  0  0  0  0  0  0
    6.8481   10.3686   19.7977 C   0  0  0  0  0  0  0  0  0  0  0  0
   10.3493    5.3449   18.2078 P   0  0  0  0  0  0  0  0  0  0  0  0
   10.8027    3.4218   17.9480 N   0  0  0  0  0  0  0  0  0  0  0  0
   10.3302    3.8060   16.6432 F   0  0  0  0  0  0  0  0  0  0  0  0
    8.6700   10.4329   20.8596 S   0  0  0  0  0  0  0  0  0  0  0  0
    9.9639    6.2758   21.9200 C   0  0  0  0  0  0  0  0  0  0  0  0
    5.4044    8.1619   19.3376 C   0  0  0  0  0  0  0  0  0  0  0  0
    2.6323    8.9100   20.0150 He  0  0  0  0  0  0  0  0  0  0  0  0
    9.4414    5.7886   17.3959 He  0  0  0  0  0  0  0  0  0  0  0  0
    5.6810    9.0612   20.8549 He  0  0  0  0  0  0  0  0  0  0  0  0
    8.8573    6.8153   14.0639 He  0  0  0  0  0  0  0  0  0  0  0  0
   11.5527    6.4346   18.9445 He  0  0  0  0  0  0  0  0  0  0  0  0
    3.9932    9.0832   18.5115 He  0  0  0  0  0  0  0  0  0  0  0  0
   10.6142    5.2376   22.4442 He  0  0  0  0  0  0  0  0  0  0  0  0
    8.1267    4.9723   15.6870 He  0  0  0  0  0  0  0  0  0  0  0  0
    9.7479    6.4190   16.8353 He  0  0  0  0  0  0  0  0  0  0  0  0
    9.7803    8.2641   20.2087 He  0  0  0  0  0  0  0  0  0  0  0  0
   10.7347    4.8208   20.5948 He  0  0  0  0  0  0  0  0  0  0  0  0
    3.6682    9.8927   21.4146 He  0  0  0  0  0  0  0  0  0  0  0  0
    7.1176    4.8886   15.1764 He  0  0  0  0  0  0  0  0  0  0  0  0
    8.8742    6.8343   16.1566 He  0  0  0  0  0  0  0  0  0  0  0  0
   13.8855    5.8323   19.8399 He  0  0  0  0  0  0  0  0  0  0  0  0
  1  3  2  0
  1  7  1  0
  1 13  1  0
  1 14  1  0
  1 15  3  0
  2  8  3  0
  2 10  2  0
  2 11  4  0
  2 12  4  0
  3  5  3  0
  3  6  1  0
  3 11  2  0
  3 13  4  0
  3 15  1  0
  4 11  2  0
  5  6  2  0
  5  8  4  0
  5  9  1  0
  5 14  1  0
  5 15  3  0
  6  7  2  0
  6 12  2  0
  7  9  1  0
  7 11  2  0
  7 12  2  0
  7 13  1  0
  7 14  1  0
  8 11  4  0
  8 13  4  0
  8 14  1  0
  9 10  4  0
  9 11  1  0
  9 14  2  0
 10 11  4  0
 11 13  3  0
 11 14  1  0
 11 15  3  0
 12 15  4  0
 14 15  4  0
M  END
$$$$

 Created by Python create_sdf_string function

 30  4  0  0  0  0  0  0  0  0999 V2000
    2.8329    8.8627   20.1765 C   0  0  0  0  0  0  0  0  0  0  0  0
    6.0306    9.2885   20.2244 C   0  0  0  0  0  0  0  0  0  0  0  0
    9.6074    5.8779   17.3286 C   0  0  0  0  0  0  0  0  0  0  0  0
    7.8832    8.2729   18.7026 C   0  0  0  0  0  0  0  0  0  0  0  0
    2.6415    8.8551   21.2630 C   0  0  0  0  0  0  0  0  0  0  0  0
    2.0708    8.5104   20.6049 C   0  0  0  0  0  0  0  0  0  0  0  0
    5.8248    9.1240   20.2972 C   0  0  0  0  0  0  0  0  0  0  0  0
    8.2323    6.4443   14.6780 C   0  0  0  0  0  0  0  0  0  0  0  0
   11.2201    6.1370   19.3564 C   0  0  0  0  0  0  0  0  0  0  0  0
   10.3220    7.1928   20.6033 C   0  0  0  0  0  0  0  0  0  0  0  0
    4.3345    8.7478   19.5060 C   0  0  0  0  0  0  0  0  0  0  0  0
   10.8925    5.7586   21.8620 C   0  0  0  0  0  0  0  0  0  0  0  0
   10.0415    7.2352   21.4923 C   0  0  0  0  0  0  0  0  0  0  0  0
    8.4129    5.1959   15.5393 C   0  0  0  0  0  0  0  0  0  0  0  0
    9.4831    6.1925   17.1827 C   0  0  0  0  0  0  0  0  0  0  0  0
    2.8431    8.0512   19.9282 C   0  0  0  0  0  0  0  0  0  0  0  0
    9.6484    4.5489   16.0075 C   0  0  0  0  0  0  0  0  0  0  0  0
    9.1880    8.2297   20.1516 C   0  0  0  0  0  0  0  0  0  0  0  0
    7.0557    9.5314   19.8992 C   0  0  0  0  0  0  0  0  0  0  0  0
   10.5600    5.4936   18.3133 C   0  0  0  0  0  0  0  0  0  0  0  0
   10.8116    4.0114   17.5936 C   0  0  0  0  0  0  0  0  0  0  0  0
   11.0832    5.4360   20.6051 C   0  0  0  0  0  0  0  0  0  0  0  0
   10.4186    3.9514   16.7066 C   0  0  0  0  0  0  0  0  0  0  0  0
    3.8756    9.4161   20.9669 C   0  0  0  0  0  0  0  0  0  0  0  0
    8.0672    5.0485   15.2470 C   0  0  0  0  0  0  0  0  0  0  0  0
    8.3891    6.6110   16.1863 C   0  0  0  0  0  0  0  0  0  0  0  0
    8.3032    9.4966   20.5567 C   0  0  0  0  0  0  0  0  0  0  0  0
   10.1747    6.7543   21.4854 C   0  0  0  0  0  0  0  0  0  0  0  0
    5.5311    8.4358   19.4599 C   0  0  0  0  0  0  0  0  0  0  0  0
   12.5850    5.6536   19.8649 C   0  0  0  0  0  0  0  0  0  0  0  0
  3 15  4  0
 14 25  4  0
 17 23  4  0
 21 23  4  0
M  END
$$$$

 Created by Python create_sdf_string function

 30 20  0  0  0  0  0  0  0  0999 V2000
    8.4415    8.1707   18.1909 C   0  0  0  0  0  0  0  0  0  0  0  0
    2.4542    7.7018   19.6928 F   0  0  0  0  0  0  0  0  0  0  0  0
   11.3167    6.8826   21.7923 C   0  0  0  0  0  0  0  0  0  0  0  0
    4.4003    9.0152   18.3862 C   0  0  0  0  0  0  0  0  0  0  0  0
    9.9052    5.7357   21.2626 C   0  0  0  0  0  0  0  0  0  0  0  0
    8.7638    7.2439   21.0411 O   0  0  0  0  0  0  0  0  0  0  0  0
    4.5183    7.5720   20.3678 F   0  0  0  0  0  0  0  0  0  0  0  0
    8.1893    5.6121   17.1448 Cl  0  0  0  0  0  0  0  0  0  0  0  0
    4.9032    7.9308   20.5104 C   0  0  0  0  0  0  0  0  0  0  0  0
    7.6308    6.9139   17.0663 C   0  0  0  0  0  0  0  0  0  0  0  0
   11.7135    6.2869   20.6845 F   0  0  0  0  0  0  0  0  0  0  0  0
    1.7712    8.2380   21.4445 He  0  0  0  0  0  0  0  0  0  0  0  0
    5.9091    8.0620   19.5614 He  0  0  0  0  0  0  0  0  0  0  0  0
    7.9786    6.6471   18.5020 He  0  0  0  0  0  0  0  0  0  0  0  0
    3.7633    7.5304   22.6874 He  0  0  0  0  0  0  0  0  0  0  0  0
    5.2055    7.5511   20.6455 He  0  0  0  0  0  0  0  0  0  0  0  0
    6.5431    6.6626   17.2270 He  0  0  0  0  0  0  0  0  0  0  0  0
   11.7966    6.4419   18.2641 He  0  0  0  0  0  0  0  0  0  0  0  0
    9.6501    6.8202   15.2219 He  0  0  0  0  0  0  0  0  0  0  0  0
   10.5178    6.3578   16.2941 He  0  0  0  0  0  0  0  0  0  0  0  0
   11.0312    9.2133   19.8177 He  0  0  0  0  0  0  0  0  0  0  0  0
    5.7846    9.1529   20.0758 He  0  0  0  0  0  0  0  0  0  0  0  0
   10.3685    6.0429   18.1566 He  0  0  0  0  0  0  0  0  0  0  0  0
   10.2264    4.3278   16.6984 He  0  0  0  0  0  0  0  0  0  0  0  0
   12.4864    5.0295   19.7547 He  0  0  0  0  0  0  0  0  0  0  0  0
   11.0014    4.1786   16.5279 He  0  0  0  0  0  0  0  0  0  0  0  0
    6.4230    4.0614   15.7081 He  0  0  0  0  0  0  0  0  0  0  0  0
    7.3731   10.3872   20.0323 He  0  0  0  0  0  0  0  0  0  0  0  0
    6.1827    8.6237   19.9292 He  0  0  0  0  0  0  0  0  0  0  0  0
   11.8019    4.6790   21.0599 He  0  0  0  0  0  0  0  0  0  0  0  0
  1  3  4  0
  1  4  1  0
  1  8  2  0
  1 10  2  0
  1 11  1  0
  2  4  2  0
  2  5  3  0
  2  6  1  0
  2 10  3  0
  3  8  2  0
  4  5  4  0
  4  7  3  0
  4  9  4  0
  4 11  3  0
  5  6  1  0
  5  8  2  0
  5  9  4  0
  6  7  1  0
  6  8  2  0
  9 11  3  0
M  END
$$$$

 Created by Python create_sdf_string function

 30  4  0  0  0  0  0  0  0  0999 V2000
    2.1534    7.9682   21.0580 C   0  0  0  0  0  0  0  0  0  0  0  0
    6.2730    7.9690   19.3271 C   0  0  0  0  0  0  0  0  0  0  0  0
    7.9949    6.8563   18.3112 C   0  0  0  0  0  0  0  0  0  0  0  0
    8.2667    7.9619   18.5148 C   0  0  0  0  0  0  0  0  0  0  0  0
    3.6866    7.5308   22.1788 C   0  0  0  0  0  0  0  0  0  0  0  0
    2.6304    7.9168   20.1445 C   0  0  0  0  0  0  0  0  0  0  0  0
    4.8687    7.7406   20.6206 C   0  0  0  0  0  0  0  0  0  0  0  0
    6.9907    6.3334   17.6224 C   0  0  0  0  0  0  0  0  0  0  0  0
   11.5023    5.9903   18.5836 C   0  0  0  0  0  0  0  0  0  0  0  0
   11.2584    6.8377   21.4631 C   0  0  0  0  0  0  0  0  0  0  0  0
    4.5259    8.7194   19.4333 C   0  0  0  0  0  0  0  0  0  0  0  0
   10.1636    6.5177   20.7438 C   0  0  0  0  0  0  0  0  0  0  0  0
    8.9958    7.1685   20.8277 C   0  0  0  0  0  0  0  0  0  0  0  0
    9.3160    5.9973   15.7568 C   0  0  0  0  0  0  0  0  0  0  0  0
   10.0976    5.9360   16.5003 C   0  0  0  0  0  0  0  0  0  0  0  0
    3.9320    7.6340   20.3730 C   0  0  0  0  0  0  0  0  0  0  0  0
    8.4671    5.4799   16.8849 C   0  0  0  0  0  0  0  0  0  0  0  0
   10.6500    8.3553   19.9972 C   0  0  0  0  0  0  0  0  0  0  0  0
    5.7325    8.9381   19.8658 C   0  0  0  0  0  0  0  0  0  0  0  0
   10.4552    5.9270   18.3185 C   0  0  0  0  0  0  0  0  0  0  0  0
   10.2610    4.4836   16.6740 C   0  0  0  0  0  0  0  0  0  0  0  0
   12.1504    5.3983   19.5948 C   0  0  0  0  0  0  0  0  0  0  0  0
   10.6903    4.4326   16.6408 C   0  0  0  0  0  0  0  0  0  0  0  0
    4.5806    8.0798   20.4433 C   0  0  0  0  0  0  0  0  0  0  0  0
    7.5598    4.4337   16.2590 O   0  0  0  0  0  0  0  0  0  0  0  0
    7.8055    6.6836   17.4267 C   0  0  0  0  0  0  0  0  0  0  0  0
    7.3397    9.8427   19.7600 O   0  0  0  0  0  0  0  0  0  0  0  0
   11.5907    6.3427   20.4337 C   0  0  0  0  0  0  0  0  0  0  0  0
    6.6226    8.6327   19.7407 C   0  0  0  0  0  0  0  0  0  0  0  0
   11.6978    5.2333   20.8925 C   0  0  0  0  0  0  0  0  0  0  0  0
  1  6  1  0
  8 26  4  0
 12 13  1  0
 21 23  1  0
M  END
$$$$

 Created by Python create_sdf_string function

 30 38  0  0  0  0  0  0  0  0999 V2000
    3.1188    8.0916   20.3984 O   0  0  0  0  0  0  0  0  0  0  0  0
    7.2686    5.7817   18.6989 P   0  0  0  0  0  0  0  0  0  0  0  0
    7.6961    7.6402   17.6290 C   0  0  0  0  0  0  0  0  0  0  0  0
    3.3884    7.2917   21.4150 C   0  0  0  0  0  0  0  0  0  0  0  0
    3.2322    7.9758   20.1556 C   0  0  0  0  0  0  0  0  0  0  0  0
    5.3359    7.5157   17.7725 Se  0  0  0  0  0  0  0  0  0  0  0  0
   12.5282    6.8611   18.8099 Se  0  0  0  0  0  0  0  0  0  0  0  0
   11.2942    6.4089   23.1362 C   0  0  0  0  0  0  0  0  0  0  0  0
    8.3782    6.7214   16.5645 F   0  0  0  0  0  0  0  0  0  0  0  0
    7.9672    6.5071   17.6656 C   0  0  0  0  0  0  0  0  0  0  0  0
   10.4391    7.0584   19.2367 P   0  0  0  0  0  0  0  0  0  0  0  0
    8.1803    5.8843   17.9268 C   0  0  0  0  0  0  0  0  0  0  0  0
   10.9789    5.6852   16.0354 O   0  0  0  0  0  0  0  0  0  0  0  0
   11.9355    6.2426   18.9439 C   0  0  0  0  0  0  0  0  0  0  0  0
    5.0732    9.1609   18.3524 He  0  0  0  0  0  0  0  0  0  0  0  0
    4.5115    8.9674   20.4598 He  0  0  0  0  0  0  0  0  0  0  0  0
    6.2926    8.6713   19.5033 He  0  0  0  0  0  0  0  0  0  0  0  0
    8.8982    6.7934   19.3273 He  0  0  0  0  0  0  0  0  0  0  0  0
    9.3955    6.6380   21.5946 He  0  0  0  0  0  0  0  0  0  0  0  0
   11.3797    7.4892   17.5957 He  0  0  0  0  0  0  0  0  0  0  0  0
    3.5188    5.7338   19.2535 He  0  0  0  0  0  0  0  0  0  0  0  0
    6.0928   10.1433   21.9451 He  0  0  0  0  0  0  0  0  0  0  0  0
   10.8225    4.5292   16.2171 He  0  0  0  0  0  0  0  0  0  0  0  0
    4.2978    7.9049   20.1599 He  0  0  0  0  0  0  0  0  0  0  0  0
    8.2581    6.1190   16.0398 He  0  0  0  0  0  0  0  0  0  0  0  0
    7.0982    7.4832   16.3647 He  0  0  0  0  0  0  0  0  0  0  0  0
    7.3467    9.0823   20.4825 He  0  0  0  0  0  0  0  0  0  0  0  0
   11.7019    7.6508   20.9854 He  0  0  0  0  0  0  0  0  0  0  0  0
    5.4852    9.3406   19.7787 He  0  0  0  0  0  0  0  0  0  0  0  0
   12.4547    3.9545   20.7357 He  0  0  0  0  0  0  0  0  0  0  0  0
  1  3  2  0
  1  6  3  0
  1  7  3  0
  1  8  4  0
  1  9  4  0
  1 10  3  0
  1 11  4  0
  1 12  1  0
  2  3  2  0
  2  5  3  0
  2  7  4  0
  2  8  4  0
  2 12  1  0
  2 14  3  0
  3  8  4  0
  3 10  2  0
  3 12  1  0
  4  8  3  0
  4 14  1  0
  5  9  4  0
  5 10  1  0
  5 11  3  0
  6  7  4  0
  6  8  1  0
  6 10  2  0
  6 12  3  0
  6 14  1  0
  7  9  3  0
  7 12  3  0
  8  9  3  0
  8 13  1  0
  8 14  1  0
  9 10  3  0
  9 11  1  0
  9 12  2  0
 11 13  3  0
 11 14  4  0
 12 13  3  0
M  END
$$$$

 Created by Python create_sdf_string function

 30  2  0  0  0  0  0  0  0  0999 V2000
    2.8745    7.9930   20.4035 O   0  0  0  0  0  0  0  0  0  0  0  0
    5.3053    9.0020   19.1457 C   0  0  0  0  0  0  0  0  0  0  0  0
    7.0338    6.0487   18.4929 C   0  0  0  0  0  0  0  0  0  0  0  0
    7.6992    7.5320   18.1765 C   0  0  0  0  0  0  0  0  0  0  0  0
    3.2714    7.3869   20.8062 C   0  0  0  0  0  0  0  0  0  0  0  0
    3.2183    7.7571   20.0615 C   0  0  0  0  0  0  0  0  0  0  0  0
    4.4773    8.9638   20.4982 C   0  0  0  0  0  0  0  0  0  0  0  0
    5.6196    7.1912   18.8035 C   0  0  0  0  0  0  0  0  0  0  0  0
   12.2532    6.2648   18.6754 C   0  0  0  0  0  0  0  0  0  0  0  0
   11.2183    6.2845   21.9278 C   0  0  0  0  0  0  0  0  0  0  0  0
    6.4164    8.5180   19.5735 C   0  0  0  0  0  0  0  0  0  0  0  0
    8.9364    7.1270   19.3556 C   0  0  0  0  0  0  0  0  0  0  0  0
   10.1002    6.9508   21.2293 C   0  0  0  0  0  0  0  0  0  0  0  0
    8.7038    6.3846   16.2801 C   0  0  0  0  0  0  0  0  0  0  0  0
   11.3999    6.4957   17.4765 C   0  0  0  0  0  0  0  0  0  0  0  0
    3.6373    6.2873   19.3156 C   0  0  0  0  0  0  0  0  0  0  0  0
    8.1702    6.6008   17.5663 C   0  0  0  0  0  0  0  0  0  0  0  0
   10.7091    6.7106   19.3997 C   0  0  0  0  0  0  0  0  0  0  0  0
    6.0292    9.9643   21.3838 O   0  0  0  0  0  0  0  0  0  0  0  0
    8.1132    6.1296   17.8822 C   0  0  0  0  0  0  0  0  0  0  0  0
   11.0872    5.6920   16.4325 C   0  0  0  0  0  0  0  0  0  0  0  0
   11.6246    6.2471   19.0343 C   0  0  0  0  0  0  0  0  0  0  0  0
   10.7578    5.0299   16.3830 C   0  0  0  0  0  0  0  0  0  0  0  0
    4.1789    7.8440   19.9930 C   0  0  0  0  0  0  0  0  0  0  0  0
    8.6980    5.9152   15.9072 C   0  0  0  0  0  0  0  0  0  0  0  0
    7.9599    7.1938   16.5103 C   0  0  0  0  0  0  0  0  0  0  0  0
    7.2228    8.9950   20.3772 C   0  0  0  0  0  0  0  0  0  0  0  0
   11.3412    6.7857   20.9910 C   0  0  0  0  0  0  0  0  0  0  0  0
    5.5306    9.4536   19.9997 C   0  0  0  0  0  0  0  0  0  0  0  0
   12.0783    5.3348   20.5093 C   0  0  0  0  0  0  0  0  0  0  0  0
 18 22  4  0
 21 23  1  0
M  END
$$$$

 Created by Python create_sdf_string function

 30 57  0  0  0  0  0  0  0  0999 V2000
    4.1334    6.9997   21.4576 C   0  0  0  0  0  0  0  0  0  0  0  0
    6.1664    6.1616   19.9809 O   0  0  0  0  0  0  0  0  0  0  0  0
    8.5614    7.2748   18.2419 N   0  0  0  0  0  0  0  0  0  0  0  0
    3.8999    7.8286   21.5631 N   0  0  0  0  0  0  0  0  0  0  0  0
    2.6442    7.8023   19.9167 C   0  0  0  0  0  0  0  0  0  0  0  0
    4.8300    7.8992   22.0007 F   0  0  0  0  0  0  0  0  0  0  0  0
   11.9888    4.7069   19.7255 S   0  0  0  0  0  0  0  0  0  0  0  0
   10.8930    6.7783   23.5380 F   0  0  0  0  0  0  0  0  0  0  0  0
    6.7708    7.4782   20.1224 Br  0  0  0  0  0  0  0  0  0  0  0  0
   10.5788    5.7188   19.2691 C   0  0  0  0  0  0  0  0  0  0  0  0
    8.7658    6.6346   17.0194 O   0  0  0  0  0  0  0  0  0  0  0  0
    4.0403    5.0381   18.8785 S   0  0  0  0  0  0  0  0  0  0  0  0
    6.5325   10.8474   20.9649 O   0  0  0  0  0  0  0  0  0  0  0  0
    7.7893    7.4756   17.6110 O   0  0  0  0  0  0  0  0  0  0  0  0
   12.1991    6.6917   15.9057 F   0  0  0  0  0  0  0  0  0  0  0  0
   11.7731    5.6154   21.1510 C   0  0  0  0  0  0  0  0  0  0  0  0
   10.3622    4.4185   15.8160 C   0  0  0  0  0  0  0  0  0  0  0  0
   10.1659    8.8578   21.6046 S   0  0  0  0  0  0  0  0  0  0  0  0
   11.3812    4.3133   20.6403 C   0  0  0  0  0  0  0  0  0  0  0  0
    4.3751    8.7255   19.2183 He  0  0  0  0  0  0  0  0  0  0  0  0
    5.9441    6.8563   19.3285 He  0  0  0  0  0  0  0  0  0  0  0  0
   10.1421    6.1251   21.4624 He  0  0  0  0  0  0  0  0  0  0  0  0
   12.5461    7.0226   17.9143 He  0  0  0  0  0  0  0  0  0  0  0  0
    8.2746    7.2884   16.0904 He  0  0  0  0  0  0  0  0  0  0  0  0
   10.9354    6.9139   19.7857 He  0  0  0  0  0  0  0  0  0  0  0  0
    4.7937    9.0641   19.3336 He  0  0  0  0  0  0  0  0  0  0  0  0
    8.2214    5.8793   16.4134 He  0  0  0  0  0  0  0  0  0  0  0  0
    7.2310    6.9793   15.8910 He  0  0  0  0  0  0  0  0  0  0  0  0
    8.2177    8.1417   19.7000 He  0  0  0  0  0  0  0  0  0  0  0  0
    6.0649    9.1978   20.6667 He  0  0  0  0  0  0  0  0  0  0  0  0
  1  2  4  0
  1  7  1  0
  1  8  2  0
  1 17  4  0
  2  4  4  0
  2  9  1  0
  2 10  1  0
  2 12  3  0
  2 13  3  0
  2 15  1  0
  2 16  4  0
  2 18  2  0
  3  8  3  0
  3  9  3  0
  3 13  1  0
  3 15  1  0
  4  5  2  0
  4  6  4  0
  4 14  3  0
  4 15  1  0
  4 18  4  0
  5  6  2  0
  5  7  4  0
  5  8  3  0
  5 11  1  0
  5 12  4  0
  5 13  2  0
  5 14  4  0
  6  7  1  0
  6  9  3  0
  6 10  4  0
  6 12  3  0
  6 14  1  0
  6 15  2  0
  6 18  2  0
  7 11  4  0
  7 12  4  0
  8 15  4  0
  8 19  1  0
  9 11  1  0
  9 12  2  0
 10 11  4  0
 10 12  1  0
 10 15  3  0
 10 16  4  0
 10 18  1  0
 11 12  3  0
 11 13  1  0
 11 15  1  0
 11 16  1  0
 11 18  4  0
 14 16  3  0
 14 18  2  0
 15 16  2  0
 15 18  3  0
 15 19  1  0
 17 18  2  0
M  END
$$$$

 Created by Python create_sdf_string function

 30  6  0  0  0  0  0  0  0  0999 V2000
    4.2660    7.1165   21.0248 C   0  0  0  0  0  0  0  0  0  0  0  0
    4.5447    8.6477   19.7165 C   0  0  0  0  0  0  0  0  0  0  0  0
    5.9619    6.5282   19.8567 C   0  0  0  0  0  0  0  0  0  0  0  0
    8.5324    7.1894   18.1281 C   0  0  0  0  0  0  0  0  0  0  0  0
    3.8995    7.7953   21.2483 C   0  0  0  0  0  0  0  0  0  0  0  0
    3.0123    7.7081   19.7851 C   0  0  0  0  0  0  0  0  0  0  0  0
    4.8251    8.0989   21.4930 C   0  0  0  0  0  0  0  0  0  0  0  0
    5.8978    7.1477   19.2392 C   0  0  0  0  0  0  0  0  0  0  0  0
   11.7000    5.0325   19.6229 C   0  0  0  0  0  0  0  0  0  0  0  0
   10.8161    6.4133   22.8568 C   0  0  0  0  0  0  0  0  0  0  0  0
    6.8531    7.6012   19.7900 C   0  0  0  0  0  0  0  0  0  0  0  0
   10.9320    6.2196   19.2051 C   0  0  0  0  0  0  0  0  0  0  0  0
   10.3509    6.6895   21.4559 C   0  0  0  0  0  0  0  0  0  0  0  0
    9.3043    6.4783   16.9745 C   0  0  0  0  0  0  0  0  0  0  0  0
   11.8223    6.3347   17.7761 C   0  0  0  0  0  0  0  0  0  0  0  0
    4.1564    6.0409   19.1386 C   0  0  0  0  0  0  0  0  0  0  0  0
    8.4169    6.9985   16.2659 C   0  0  0  0  0  0  0  0  0  0  0  0
   10.7770    6.6419   19.8866 C   0  0  0  0  0  0  0  0  0  0  0  0
    6.4830   10.1174   20.8090 O   0  0  0  0  0  0  0  0  0  0  0  0
    7.8240    7.4301   17.5795 C   0  0  0  0  0  0  0  0  0  0  0  0
   11.5647    6.1708   16.6536 C   0  0  0  0  0  0  0  0  0  0  0  0
   11.2639    5.7909   21.0254 C   0  0  0  0  0  0  0  0  0  0  0  0
   10.2739    4.9573   16.0809 C   0  0  0  0  0  0  0  0  0  0  0  0
    4.7282    8.9713   19.7402 C   0  0  0  0  0  0  0  0  0  0  0  0
    8.8369    5.9131   16.3899 C   0  0  0  0  0  0  0  0  0  0  0  0
    8.0426    6.9596   16.1884 C   0  0  0  0  0  0  0  0  0  0  0  0
    8.2959    7.9115   19.8744 C   0  0  0  0  0  0  0  0  0  0  0  0
    9.7599    7.9018   21.3652 C   0  0  0  0  0  0  0  0  0  0  0  0
    6.1035    9.1444   20.4489 C   0  0  0  0  0  0  0  0  0  0  0  0
   11.6286    5.0707   20.6437 C   0  0  0  0  0  0  0  0  0  0  0  0
  9 30  4  0
 12 18  4  0
 13 28  4  0
 17 26  4  0
 19 29  1  0
 22 30  4  0
M  END
$$$$

 Created by Python create_sdf_string function

 30 58  0  0  0  0  0  0  0  0999 V2000
    5.1183    8.3226   20.3761 C   0  0  0  0  0  0  0  0  0  0  0  0
    5.6164    5.8453   19.4740 Cl  0  0  0  0  0  0  0  0  0  0  0  0
    9.5410    7.5977   18.3095 Cl  0  0  0  0  0  0  0  0  0  0  0  0
    4.4118    7.1770   20.4579 P   0  0  0  0  0  0  0  0  0  0  0  0
    4.9555    7.9032   20.5277 N   0  0  0  0  0  0  0  0  0  0  0  0
    6.4544    6.3626   19.5145 C   0  0  0  0  0  0  0  0  0  0  0  0
   11.9919    5.4880   18.5867 C   0  0  0  0  0  0  0  0  0  0  0  0
   11.7579    6.9722   23.6015 F   0  0  0  0  0  0  0  0  0  0  0  0
    7.1345    8.0467   19.5606 C   0  0  0  0  0  0  0  0  0  0  0  0
   10.9022    5.7858   19.9382 O   0  0  0  0  0  0  0  0  0  0  0  0
    9.9697    6.6291   20.6148 C   0  0  0  0  0  0  0  0  0  0  0  0
   10.2254    7.6530   17.1897 F   0  0  0  0  0  0  0  0  0  0  0  0
   12.4112    6.2376   16.2525 C   0  0  0  0  0  0  0  0  0  0  0  0
    8.1567    8.0373   16.9766 C   0  0  0  0  0  0  0  0  0  0  0  0
    7.4040   10.2668   20.4126 F   0  0  0  0  0  0  0  0  0  0  0  0
    6.7483    8.7527   17.8143 N   0  0  0  0  0  0  0  0  0  0  0  0
    9.9920    5.8489   17.2326 C   0  0  0  0  0  0  0  0  0  0  0  0
   11.2422    6.5973   21.2304 C   0  0  0  0  0  0  0  0  0  0  0  0
    5.2323    9.4953   21.0888 C   0  0  0  0  0  0  0  0  0  0  0  0
    8.8140    7.4229   15.4478 C   0  0  0  0  0  0  0  0  0  0  0  0
    3.9857    7.1904   20.7082 He  0  0  0  0  0  0  0  0  0  0  0  0
    3.1233    8.2177   21.4387 He  0  0  0  0  0  0  0  0  0  0  0  0
    4.2420    6.4745   18.7814 He  0  0  0  0  0  0  0  0  0  0  0  0
    9.3681    3.8176   19.2843 He  0  0  0  0  0  0  0  0  0  0  0  0
   10.5614    5.0488   16.2362 He  0  0  0  0  0  0  0  0  0  0  0  0
    8.7986    8.3600   17.1405 He  0  0  0  0  0  0  0  0  0  0  0  0
    8.5859    7.4734   20.1618 He  0  0  0  0  0  0  0  0  0  0  0  0
   10.9071    7.6187   21.6279 He  0  0  0  0  0  0  0  0  0  0  0  0
    6.9783   10.1674   20.8742 He  0  0  0  0  0  0  0  0  0  0  0  0
   10.2877    6.1134   21.4587 He  0  0  0  0  0  0  0  0  0  0  0  0
  1  2  3  0
  1  6  3  0
  1  7  2  0
  1  9  1  0
  1 16  1  0
  1 17  1  0
  1 18  1  0
  1 19  1  0
  2  4  1  0
  2  5  1  0
  2 11  4  0
  2 20  4  0
  3  5  3  0
  3  6  3  0
  3 12  1  0
  3 13  3  0
  3 14  4  0
  3 18  1  0
  4  6  2  0
  4  8  2  0
  4  9  4  0
  4 10  4  0
  4 11  4  0
  4 17  2  0
  4 20  1  0
  5 11  4  0
  6 14  1  0
  6 15  4  0
  6 19  4  0
  7 13  3  0
  7 14  1  0
  8 13  3  0
  8 14  3  0
  8 15  2  0
  8 16  4  0
  8 18  4  0
  9 10  4  0
  9 11  4  0
  9 14  3  0
  9 19  1  0
 10 12  4  0
 10 14  4  0
 10 18  3  0
 10 20  3  0
 11 18  2  0
 11 19  1  0
 11 20  2  0
 12 18  1  0
 12 20  3  0
 13 15  2  0
 13 16  3  0
 13 18  4  0
 14 16  2  0
 14 19  4  0
 15 17  4  0
 15 19  2  0
 17 18  1  0
 17 20  1  0
M  END
$$$$

 Created by Python create_sdf_string function

 30  3  0  0  0  0  0  0  0  0999 V2000
    3.8052    6.9730   20.4698 C   0  0  0  0  0  0  0  0  0  0  0  0
    5.4096    8.5053   20.2811 C   0  0  0  0  0  0  0  0  0  0  0  0
    5.3570    6.0931   19.2717 C   0  0  0  0  0  0  0  0  0  0  0  0
    9.4496    7.3603   18.0391 C   0  0  0  0  0  0  0  0  0  0  0  0
    4.2887    7.1199   20.1668 C   0  0  0  0  0  0  0  0  0  0  0  0
    3.4216    8.3048   21.2040 C   0  0  0  0  0  0  0  0  0  0  0  0
    4.9379    8.0363   20.4636 C   0  0  0  0  0  0  0  0  0  0  0  0
    6.2100    6.7638   19.1139 C   0  0  0  0  0  0  0  0  0  0  0  0
   11.6805    5.5790   17.9799 C   0  0  0  0  0  0  0  0  0  0  0  0
   11.5479    6.9499   22.9577 C   0  0  0  0  0  0  0  0  0  0  0  0
    6.9484    8.4593   19.6381 C   0  0  0  0  0  0  0  0  0  0  0  0
   10.7816    5.8028   19.8830 C   0  0  0  0  0  0  0  0  0  0  0  0
    9.9101    6.7200   20.3423 C   0  0  0  0  0  0  0  0  0  0  0  0
   10.0099    7.2251   17.1563 C   0  0  0  0  0  0  0  0  0  0  0  0
   12.0229    5.9937   16.5984 C   0  0  0  0  0  0  0  0  0  0  0  0
    4.2475    6.1164   19.2168 C   0  0  0  0  0  0  0  0  0  0  0  0
    8.2820    8.0199   17.4004 C   0  0  0  0  0  0  0  0  0  0  0  0
    9.8141    4.4796   19.2390 C   0  0  0  0  0  0  0  0  0  0  0  0
    7.2769   10.0224   20.3943 C   0  0  0  0  0  0  0  0  0  0  0  0
    7.3674    8.7506   17.9975 C   0  0  0  0  0  0  0  0  0  0  0  0
   10.1832    6.0644   17.0895 C   0  0  0  0  0  0  0  0  0  0  0  0
   11.0078    6.5264   21.4010 C   0  0  0  0  0  0  0  0  0  0  0  0
   10.8100    5.4214   16.5076 C   0  0  0  0  0  0  0  0  0  0  0  0
    5.3682    9.3452   20.8593 C   0  0  0  0  0  0  0  0  0  0  0  0
    8.8513    7.3286   15.7923 C   0  0  0  0  0  0  0  0  0  0  0  0
    8.5745    8.3254   17.2519 C   0  0  0  0  0  0  0  0  0  0  0  0
    9.1552    7.3465   20.4948 C   0  0  0  0  0  0  0  0  0  0  0  0
   10.6269    7.2609   21.7717 C   0  0  0  0  0  0  0  0  0  0  0  0
    6.9573    9.9984   20.6807 C   0  0  0  0  0  0  0  0  0  0  0  0
   10.2276    5.8935   21.3614 C   0  0  0  0  0  0  0  0  0  0  0  0
  2 24  1  0
 10 28  1  0
 19 29  1  0
M  END
$$$$

 Created by Python create_sdf_string function

 30 61  0  0  0  0  0  0  0  0999 V2000
    3.9578    5.3221   20.7074 I   0  0  0  0  0  0  0  0  0  0  0  0
    3.9686    8.3224   19.7432 B   0  0  0  0  0  0  0  0  0  0  0  0
    5.4531    5.8261   20.2382 N   0  0  0  0  0  0  0  0  0  0  0  0
    9.8914    8.4214   17.8169 C   0  0  0  0  0  0  0  0  0  0  0  0
    2.3345    7.8126   22.2459 C   0  0  0  0  0  0  0  0  0  0  0  0
   11.5856    7.3148   22.4017 O   0  0  0  0  0  0  0  0  0  0  0  0
    7.0779    7.6757   19.2183 C   0  0  0  0  0  0  0  0  0  0  0  0
   10.0588    4.8007   20.9642 C   0  0  0  0  0  0  0  0  0  0  0  0
   10.2020    7.5237   16.4272 N   0  0  0  0  0  0  0  0  0  0  0  0
   12.1661    5.1897   17.1894 C   0  0  0  0  0  0  0  0  0  0  0  0
    5.1668    5.6372   18.7101 C   0  0  0  0  0  0  0  0  0  0  0  0
    8.7140    9.0504   17.5218 O   0  0  0  0  0  0  0  0  0  0  0  0
    6.6959    8.4468   18.0971 C   0  0  0  0  0  0  0  0  0  0  0  0
   11.0451    7.0539   17.9624 F   0  0  0  0  0  0  0  0  0  0  0  0
   11.3481    6.4639   20.3217 C   0  0  0  0  0  0  0  0  0  0  0  0
    9.2536    5.4374   15.5831 P   0  0  0  0  0  0  0  0  0  0  0  0
    5.4160    8.5470   22.5957 C   0  0  0  0  0  0  0  0  0  0  0  0
    8.2449    6.0829   21.2805 F   0  0  0  0  0  0  0  0  0  0  0  0
    3.4000    7.5252   19.1689 He  0  0  0  0  0  0  0  0  0  0  0  0
    4.3707    9.1361   19.7240 He  0  0  0  0  0  0  0  0  0  0  0  0
    5.8013    6.0639   20.0709 He  0  0  0  0  0  0  0  0  0  0  0  0
   11.4455    5.3025   17.4472 He  0  0  0  0  0  0  0  0  0  0  0  0
   10.0838    5.5350   19.3239 He  0  0  0  0  0  0  0  0  0  0  0  0
    9.3435    5.3238   19.6997 He  0  0  0  0  0  0  0  0  0  0  0  0
    7.9946    9.7905   21.6952 He  0  0  0  0  0  0  0  0  0  0  0  0
    8.9577    7.4429   16.9240 He  0  0  0  0  0  0  0  0  0  0  0  0
    7.7995    7.6967   16.8402 He  0  0  0  0  0  0  0  0  0  0  0  0
   12.5474    6.6108   22.6510 He  0  0  0  0  0  0  0  0  0  0  0  0
    6.9736   10.7807   21.5037 He  0  0  0  0  0  0  0  0  0  0  0  0
   10.2146    5.8410   23.5404 He  0  0  0  0  0  0  0  0  0  0  0  0
  1  2  1  0
  1  3  4  0
  1  5  2  0
  1 10  1  0
  1 13  2  0
  1 18  3  0
  2  3  4  0
  2  4  3  0
  2  6  1  0
  2  7  2  0
  2 10  3  0
  2 12  4  0
  2 17  1  0
  2 18  1  0
  3  4  3  0
  3  7  1  0
  3  9  3  0
  3 11  4  0
  3 12  2  0
  3 13  2  0
  3 14  4  0
  3 15  4  0
  4  7  1  0
  4  8  3  0
  4 13  4  0
  4 14  1  0
  4 15  2  0
  5  6  2  0
  5  7  2  0
  5  9  1  0
  5 12  3  0
  5 14  3  0
  5 15  4  0
  6  8  4  0
  6 10  2  0
  6 18  4  0
  7  8  1  0
  7 10  3  0
  7 12  2  0
  7 14  3  0
  9 11  3  0
  9 13  3  0
  9 15  2  0
  9 18  1  0
 10 16  1  0
 10 18  2  0
 11 12  4  0
 11 13  4  0
 11 14  2  0
 11 15  3  0
 11 18  4  0
 12 14  3  0
 12 15  3  0
 12 16  2  0
 12 17  1  0
 13 14  2  0
 13 16  2  0
 13 18  2  0
 14 15  1  0
 14 16  1  0
 15 16  4  0
M  END
$$$$

 Created by Python create_sdf_string function

 30  8  0  0  0  0  0  0  0  0999 V2000
    3.9689    6.1382   20.5186 C   0  0  0  0  0  0  0  0  0  0  0  0
    4.3559    8.1824   20.0018 C   0  0  0  0  0  0  0  0  0  0  0  0
    5.3174    6.4422   19.9387 C   0  0  0  0  0  0  0  0  0  0  0  0
    9.4532    8.0684   17.9731 C   0  0  0  0  0  0  0  0  0  0  0  0
    3.6703    7.5269   19.6517 C   0  0  0  0  0  0  0  0  0  0  0  0
    3.0995    7.4973   21.4963 C   0  0  0  0  0  0  0  0  0  0  0  0
    4.5354    8.8345   19.7335 C   0  0  0  0  0  0  0  0  0  0  0  0
    5.6474    6.6305   19.9362 C   0  0  0  0  0  0  0  0  0  0  0  0
   11.1814    5.6179   17.4826 C   0  0  0  0  0  0  0  0  0  0  0  0
   11.2106    6.5863   22.1259 C   0  0  0  0  0  0  0  0  0  0  0  0
    7.1295    8.0589   19.3412 C   0  0  0  0  0  0  0  0  0  0  0  0
   10.5580    5.9412   19.2399 C   0  0  0  0  0  0  0  0  0  0  0  0
   10.1968    5.5278   21.1683 C   0  0  0  0  0  0  0  0  0  0  0  0
   10.0953    7.3637   16.5629 C   0  0  0  0  0  0  0  0  0  0  0  0
   11.5139    5.3651   17.1284 C   0  0  0  0  0  0  0  0  0  0  0  0
    5.2851    6.2326   19.0311 C   0  0  0  0  0  0  0  0  0  0  0  0
    8.4995    8.9813   17.6797 O   0  0  0  0  0  0  0  0  0  0  0  0
    9.3905    5.6012   20.3074 C   0  0  0  0  0  0  0  0  0  0  0  0
    7.2477    9.2594   21.1434 C   0  0  0  0  0  0  0  0  0  0  0  0
    7.0619    8.2869   18.6070 C   0  0  0  0  0  0  0  0  0  0  0  0
   10.8463    6.8317   17.8480 C   0  0  0  0  0  0  0  0  0  0  0  0
   11.2063    6.3544   20.2489 C   0  0  0  0  0  0  0  0  0  0  0  0
    9.7228    5.4604   16.0798 C   0  0  0  0  0  0  0  0  0  0  0  0
    5.7655    8.7837   21.7143 C   0  0  0  0  0  0  0  0  0  0  0  0
    9.0322    7.4066   17.0594 C   0  0  0  0  0  0  0  0  0  0  0  0
    8.1272    7.6161   17.0455 C   0  0  0  0  0  0  0  0  0  0  0  0
    8.6377    6.2006   20.9696 C   0  0  0  0  0  0  0  0  0  0  0  0
   11.7793    6.4298   22.3552 C   0  0  0  0  0  0  0  0  0  0  0  0
    7.0115    9.8310   21.1390 C   0  0  0  0  0  0  0  0  0  0  0  0
   10.4048    5.9374   22.7625 C   0  0  0  0  0  0  0  0  0  0  0  0
  9 15  1  0
 10 28  1  0
 11 20  4  0
 12 22  4  0
 13 18  4  0
 18 27  4  0
 19 24  1  0
 19 29  1  0
M  END
$$$$

 Created by Python create_sdf_string function

 30 67  0  0  0  0  0  0  0  0999 V2000
    4.4725    8.4244   19.4874 O   0  0  0  0  0  0  0  0  0  0  0  0
    6.1958    6.9234   19.3989 P   0  0  0  0  0  0  0  0  0  0  0  0
    3.7992    6.9219   19.9480 P   0  0  0  0  0  0  0  0  0  0  0  0
    2.6582    6.8337   21.7247 C   0  0  0  0  0  0  0  0  0  0  0  0
    3.9837    7.6434   19.6193 N   0  0  0  0  0  0  0  0  0  0  0  0
    6.9769    5.9394   20.5918 F   0  0  0  0  0  0  0  0  0  0  0  0
    9.9598    7.1050   17.4132 F   0  0  0  0  0  0  0  0  0  0  0  0
   10.3956    7.7308   23.0240 S   0  0  0  0  0  0  0  0  0  0  0  0
    9.8692    6.8959   18.9934 C   0  0  0  0  0  0  0  0  0  0  0  0
    9.6540    7.2362   18.4521 C   0  0  0  0  0  0  0  0  0  0  0  0
   12.5555    4.6318   16.6182 C   0  0  0  0  0  0  0  0  0  0  0  0
    6.1747    6.2565   17.8165 C   0  0  0  0  0  0  0  0  0  0  0  0
    8.0457    9.1304   15.8819 C   0  0  0  0  0  0  0  0  0  0  0  0
    5.8264   10.1584   21.5159 C   0  0  0  0  0  0  0  0  0  0  0  0
    5.9817    8.3943   18.0650 C   0  0  0  0  0  0  0  0  0  0  0  0
   11.8827    4.6088   21.2495 N   0  0  0  0  0  0  0  0  0  0  0  0
    9.8084    5.3371   16.9663 N   0  0  0  0  0  0  0  0  0  0  0  0
    9.0893    7.9567   17.2052 C   0  0  0  0  0  0  0  0  0  0  0  0
    7.6750    5.9027   19.8563 N   0  0  0  0  0  0  0  0  0  0  0  0
    6.6269    8.5043   22.2585 N   0  0  0  0  0  0  0  0  0  0  0  0
    5.2036    5.8587   20.2222 He  0  0  0  0  0  0  0  0  0  0  0  0
    8.8810    8.5261   16.7722 He  0  0  0  0  0  0  0  0  0  0  0  0
    6.8851    8.7811   18.8509 He  0  0  0  0  0  0  0  0  0  0  0  0
    9.7380    5.1711   20.9358 He  0  0  0  0  0  0  0  0  0  0  0  0
    9.8881    6.2836   20.6710 He  0  0  0  0  0  0  0  0  0  0  0  0
   11.8762    8.2623   16.9281 He  0  0  0  0  0  0  0  0  0  0  0  0
    5.5813    8.5828   21.3570 He  0  0  0  0  0  0  0  0  0  0  0  0
    8.3935    7.8881   17.7952 He  0  0  0  0  0  0  0  0  0  0  0  0
   10.8463    5.9633   22.3844 He  0  0  0  0  0  0  0  0  0  0  0  0
   12.2790    6.3145   22.4767 He  0  0  0  0  0  0  0  0  0  0  0  0
  1  5  2  0
  1 10  2  0
  1 11  2  0
  1 14  2  0
  2  5  1  0
  2  6  4  0
  2  9  3  0
  2 13  2  0
  2 16  3  0
  2 17  4  0
  3  8  4  0
  3 10  4  0
  3 11  4  0
  3 13  3  0
  3 18  2  0
  4  7  4  0
  4  9  1  0
  4 11  2  0
  4 14  1  0
  4 15  3  0
  4 18  1  0
  5  8  3  0
  5 10  1  0
  5 11  2  0
  5 14  2  0
  6  8  1  0
  6 14  1  0
  6 20  2  0
  7  8  4  0
  7  9  2  0
  7 11  4  0
  7 18  2  0
  8 12  2  0
  8 15  1  0
  8 17  4  0
  8 18  2  0
  9 10  3  0
  9 14  1  0
  9 16  1  0
  9 20  3  0
 10 12  4  0
 10 13  4  0
 10 14  1  0
 10 16  2  0
 10 18  2  0
 11 14  4  0
 11 16  3  0
 11 19  4  0
 12 15  2  0
 12 16  1  0
 12 18  4  0
 12 19  2  0
 13 14  4  0
 13 16  3  0
 13 18  4  0
 13 20  2  0
 14 15  3  0
 14 18  4  0
 14 19  3  0
 14 20  2  0
 15 16  1  0
 15 17  1  0
 15 19  2  0
 15 20  3  0
 16 18  3  0
 16 20  4  0
 17 20  2  0
M  END
$$$$

 Created by Python create_sdf_string function

 30  6  0  0  0  0  0  0  0  0999 V2000
    5.0551    6.3352   20.3317 C   0  0  0  0  0  0  0  0  0  0  0  0
    4.2653    8.7249   19.7169 O   0  0  0  0  0  0  0  0  0  0  0  0
    5.9197    7.0732   19.6361 C   0  0  0  0  0  0  0  0  0  0  0  0
    8.8196    8.6467   16.7197 C   0  0  0  0  0  0  0  0  0  0  0  0
    3.7077    6.9049   20.2002 C   0  0  0  0  0  0  0  0  0  0  0  0
    3.1674    7.0930   21.2004 C   0  0  0  0  0  0  0  0  0  0  0  0
    4.1408    7.6742   19.7463 C   0  0  0  0  0  0  0  0  0  0  0  0
    7.0826    6.2058   20.5345 C   0  0  0  0  0  0  0  0  0  0  0  0
   10.6495    7.1427   17.2368 C   0  0  0  0  0  0  0  0  0  0  0  0
   10.3596    6.9624   22.6548 C   0  0  0  0  0  0  0  0  0  0  0  0
    7.0053    8.6193   18.7255 C   0  0  0  0  0  0  0  0  0  0  0  0
   10.0826    6.2474   19.1147 C   0  0  0  0  0  0  0  0  0  0  0  0
    9.8265    5.6499   21.0102 C   0  0  0  0  0  0  0  0  0  0  0  0
    9.6504    6.9017   18.2340 C   0  0  0  0  0  0  0  0  0  0  0  0
   11.7711    5.5739   17.1113 C   0  0  0  0  0  0  0  0  0  0  0  0
    6.5515    6.6819   18.2809 C   0  0  0  0  0  0  0  0  0  0  0  0
    8.4426    9.0958   16.3861 C   0  0  0  0  0  0  0  0  0  0  0  0
    9.9455    6.1070   20.7091 C   0  0  0  0  0  0  0  0  0  0  0  0
    5.7556    9.4849   21.3185 C   0  0  0  0  0  0  0  0  0  0  0  0
    6.4227    8.2317   18.5913 C   0  0  0  0  0  0  0  0  0  0  0  0
   11.5837    7.7124   16.7061 C   0  0  0  0  0  0  0  0  0  0  0  0
   11.5549    5.1878   21.0017 C   0  0  0  0  0  0  0  0  0  0  0  0
   10.5453    5.6705   17.4613 C   0  0  0  0  0  0  0  0  0  0  0  0
    5.5842    8.6931   21.1367 C   0  0  0  0  0  0  0  0  0  0  0  0
    9.1281    8.2144   17.0149 C   0  0  0  0  0  0  0  0  0  0  0  0
    8.2854    7.7266   17.8078 C   0  0  0  0  0  0  0  0  0  0  0  0
    7.9532    6.2171   19.9525 C   0  0  0  0  0  0  0  0  0  0  0  0
   11.0793    5.9360   22.2594 C   0  0  0  0  0  0  0  0  0  0  0  0
    6.4543    8.5773   21.8918 C   0  0  0  0  0  0  0  0  0  0  0  0
   11.6059    6.1460   22.4648 C   0  0  0  0  0  0  0  0  0  0  0  0
  4 25  1  0
  8 27  4  0
 13 18  4  0
 19 24  1  0
 24 29  1  0
 28 30  4  0
M  END
$$$$

 Created by Python create_sdf_string function

 30 38  0  0  0  0  0  0  0  0999 V2000
    8.5355    7.5199   16.4839 F   0  0  0  0  0  0  0  0  0  0  0  0
   11.1188    7.9193   23.2471 C   0  0  0  0  0  0  0  0  0  0  0  0
    7.9862    9.3295   18.6257 N   0  0  0  0  0  0  0  0  0  0  0  0
   10.3257    6.6761   19.6884 C   0  0  0  0  0  0  0  0  0  0  0  0
   10.9064    4.6724   20.3278 S   0  0  0  0  0  0  0  0  0  0  0  0
    9.2414    7.2583   17.8433 Br  0  0  0  0  0  0  0  0  0  0  0  0
    5.9373    8.5170   16.8187 C   0  0  0  0  0  0  0  0  0  0  0  0
    6.5884   10.0307   21.4125 C   0  0  0  0  0  0  0  0  0  0  0  0
   10.5617    7.4982   15.8665 F   0  0  0  0  0  0  0  0  0  0  0  0
    5.9292    7.6535   21.3025 C   0  0  0  0  0  0  0  0  0  0  0  0
    8.4730    7.9343   18.2474 F   0  0  0  0  0  0  0  0  0  0  0  0
    8.0143    8.1815   16.2167 C   0  0  0  0  0  0  0  0  0  0  0  0
   11.6449    5.9625   23.1108 C   0  0  0  0  0  0  0  0  0  0  0  0
   11.9914    6.2794   21.6514 C   0  0  0  0  0  0  0  0  0  0  0  0
    3.1821    6.2337   19.3232 He  0  0  0  0  0  0  0  0  0  0  0  0
    5.1653    9.6671   21.0550 He  0  0  0  0  0  0  0  0  0  0  0  0
    5.0734    7.3329   20.5871 He  0  0  0  0  0  0  0  0  0  0  0  0
    3.8993    6.8648   21.0578 He  0  0  0  0  0  0  0  0  0  0  0  0
    3.4880    7.6888   21.6039 He  0  0  0  0  0  0  0  0  0  0  0  0
    4.0795    8.7326   21.1304 He  0  0  0  0  0  0  0  0  0  0  0  0
    8.7752    7.4468   20.2785 He  0  0  0  0  0  0  0  0  0  0  0  0
    9.4834    6.7892   17.6227 He  0  0  0  0  0  0  0  0  0  0  0  0
   13.3141    5.0921   17.2287 He  0  0  0  0  0  0  0  0  0  0  0  0
   10.6770    8.7889   16.0947 He  0  0  0  0  0  0  0  0  0  0  0  0
    9.8631    4.6287   20.6771 He  0  0  0  0  0  0  0  0  0  0  0  0
    6.9363    7.6508   19.1433 He  0  0  0  0  0  0  0  0  0  0  0  0
   12.3017    4.7622   21.2018 He  0  0  0  0  0  0  0  0  0  0  0  0
   10.4299    5.2204   17.2419 He  0  0  0  0  0  0  0  0  0  0  0  0
    7.7046    6.3889   20.0362 He  0  0  0  0  0  0  0  0  0  0  0  0
    6.1238    7.6113   21.4785 He  0  0  0  0  0  0  0  0  0  0  0  0
  1  3  3  0
  1  4  2  0
  1  6  1  0
  1 12  4  0
  1 14  2  0
  2  3  2  0
  2  4  4  0
  2  7  1  0
  2  8  1  0
  2  9  4  0
  2 10  2  0
  2 12  4  0
  2 13  4  0
  3  4  1  0
  3 10  4  0
  3 14  4  0
  4  9  3  0
  4 10  3  0
  4 11  4  0
  4 12  3  0
  4 13  4  0
  5  6  1  0
  5 11  4  0
  6 11  1  0
  6 13  2  0
  7  8  1  0
  7  9  2  0
  7 11  2  0
  7 12  1  0
  8  9  3  0
  8 10  4  0
  8 11  2  0
  9 11  2  0
  9 13  4  0
  9 14  1  0
 10 13  3  0
 12 13  3  0
 13 14  1  0
M  END
$$$$

 Created by Python create_sdf_string function

 30  8  0  0  0  0  0  0  0  0999 V2000
    3.4869    6.6347   19.7304 C   0  0  0  0  0  0  0  0  0  0  0  0
    5.3928    9.5627   21.1262 C   0  0  0  0  0  0  0  0  0  0  0  0
    4.5246    7.3241   20.5529 C   0  0  0  0  0  0  0  0  0  0  0  0
    8.9467    7.7721   16.3089 C   0  0  0  0  0  0  0  0  0  0  0  0
    3.7984    6.9541   20.9413 C   0  0  0  0  0  0  0  0  0  0  0  0
    3.3052    7.6649   21.4883 C   0  0  0  0  0  0  0  0  0  0  0  0
    4.4780    8.6260   21.0536 C   0  0  0  0  0  0  0  0  0  0  0  0
    8.7747    7.2485   20.5063 C   0  0  0  0  0  0  0  0  0  0  0  0
    9.9741    6.8314   17.5366 C   0  0  0  0  0  0  0  0  0  0  0  0
   10.8172    7.0447   22.3748 C   0  0  0  0  0  0  0  0  0  0  0  0
    7.6153    9.0257   19.0480 C   0  0  0  0  0  0  0  0  0  0  0  0
   10.2808    6.2899   19.7712 C   0  0  0  0  0  0  0  0  0  0  0  0
   11.2010    4.9628   20.0916 C   0  0  0  0  0  0  0  0  0  0  0  0
    9.4416    7.1582   17.8801 C   0  0  0  0  0  0  0  0  0  0  0  0
   12.1174    5.2793   17.3976 O   0  0  0  0  0  0  0  0  0  0  0  0
    7.1424    8.3187   17.5218 O   0  0  0  0  0  0  0  0  0  0  0  0
   10.2875    8.5094   15.9788 C   0  0  0  0  0  0  0  0  0  0  0  0
   10.4654    5.2736   20.4177 C   0  0  0  0  0  0  0  0  0  0  0  0
    6.3607    9.7267   21.1350 C   0  0  0  0  0  0  0  0  0  0  0  0
    7.0244    7.8253   19.5835 C   0  0  0  0  0  0  0  0  0  0  0  0
   10.6923    7.0574   16.0532 C   0  0  0  0  0  0  0  0  0  0  0  0
   11.9732    5.1493   21.0142 C   0  0  0  0  0  0  0  0  0  0  0  0
   11.0150    5.6536   17.4852 C   0  0  0  0  0  0  0  0  0  0  0  0
    5.7768    7.8390   21.0482 C   0  0  0  0  0  0  0  0  0  0  0  0
    8.4361    7.9539   18.0416 C   0  0  0  0  0  0  0  0  0  0  0  0
    8.5817    8.3037   16.2345 C   0  0  0  0  0  0  0  0  0  0  0  0
    7.9864    6.8298   20.0727 C   0  0  0  0  0  0  0  0  0  0  0  0
   11.5537    6.1320   22.6582 C   0  0  0  0  0  0  0  0  0  0  0  0
    6.0610    7.7727   21.1197 C   0  0  0  0  0  0  0  0  0  0  0  0
   11.8879    6.1006   21.9475 C   0  0  0  0  0  0  0  0  0  0  0  0
  4 26  1  0
 10 28  4  0
 13 18  4  0
 14 25  1  0
 15 23  1  0
 22 30  4  0
 24 29  4  0
 28 30  1  0
M  END
$$$$

 Created by Python create_sdf_string function

 30 50  0  0  0  0  0  0  0  0999 V2000
    4.6037    5.9109   19.7825 C   0  0  0  0  0  0  0  0  0  0  0  0
    3.2894    6.7556   21.3901 P   0  0  0  0  0  0  0  0  0  0  0  0
    3.2280    7.5720   20.6399 S   0  0  0  0  0  0  0  0  0  0  0  0
    7.9119    7.2923   19.6351 C   0  0  0  0  0  0  0  0  0  0  0  0
   10.8696    7.0608   21.3141 C   0  0  0  0  0  0  0  0  0  0  0  0
    7.1201    8.7793   18.2965 O   0  0  0  0  0  0  0  0  0  0  0  0
    9.3930    5.6689   19.5048 I   0  0  0  0  0  0  0  0  0  0  0  0
   11.4429    5.1734   20.6304 P   0  0  0  0  0  0  0  0  0  0  0  0
   11.3079    6.4245   18.5236 C   0  0  0  0  0  0  0  0  0  0  0  0
   10.5416    8.1260   16.7125 C   0  0  0  0  0  0  0  0  0  0  0  0
    6.1083    8.7358   19.1253 C   0  0  0  0  0  0  0  0  0  0  0  0
    5.8488    8.9406   20.1992 C   0  0  0  0  0  0  0  0  0  0  0  0
   10.9427    6.5918   17.0081 C   0  0  0  0  0  0  0  0  0  0  0  0
   11.9771    4.5122   21.2827 N   0  0  0  0  0  0  0  0  0  0  0  0
    7.0235    7.0430   20.2990 C   0  0  0  0  0  0  0  0  0  0  0  0
    9.0959    7.6626   17.1521 O   0  0  0  0  0  0  0  0  0  0  0  0
   10.1989    7.6027   23.2372 C   0  0  0  0  0  0  0  0  0  0  0  0
    7.2395    8.0739   23.0341 O   0  0  0  0  0  0  0  0  0  0  0  0
    6.2052    9.2871   21.9945 He  0  0  0  0  0  0  0  0  0  0  0  0
    5.3892    7.6253   18.5965 He  0  0  0  0  0  0  0  0  0  0  0  0
   10.6402    7.9937   17.4123 He  0  0  0  0  0  0  0  0  0  0  0  0
    4.3329    7.9442   21.4681 He  0  0  0  0  0  0  0  0  0  0  0  0
   10.3111    6.8309   15.6482 He  0  0  0  0  0  0  0  0  0  0  0  0
   14.1340    4.5574   18.4994 He  0  0  0  0  0  0  0  0  0  0  0  0
    7.1781    8.5400   18.7857 He  0  0  0  0  0  0  0  0  0  0  0  0
   11.4504    4.5835   22.1690 He  0  0  0  0  0  0  0  0  0  0  0  0
   10.5040    3.9466   18.0725 He  0  0  0  0  0  0  0  0  0  0  0  0
    8.6228    8.6226   17.7472 He  0  0  0  0  0  0  0  0  0  0  0  0
    8.5196    6.4376   19.1312 He  0  0  0  0  0  0  0  0  0  0  0  0
   11.7012    6.7382   21.8440 He  0  0  0  0  0  0  0  0  0  0  0  0
  1  8  4  0
  1 10  2  0
  1 13  3  0
  1 14  2  0
  2 13  3  0
  2 14  4  0
  3  5  2  0
  3  7  2  0
  3 10  4  0
  3 11  4  0
  4  5  3  0
  4  6  4  0
  4  7  2  0
  4 11  3  0
  4 13  4  0
  4 14  1  0
  4 15  3  0
  4 17  1  0
  5  8  4  0
  5  9  3  0
  5 11  3  0
  5 17  3  0
  6  7  3  0
  6  9  1  0
  6 10  4  0
  6 11  3  0
  6 14  2  0
  6 18  4  0
  7  9  4  0
  7 11  2  0
  7 15  1  0
  7 18  1  0
  8 15  3  0
  9 10  1  0
  9 11  1  0
 10 13  3  0
 10 14  4  0
 10 15  4  0
 10 17  2  0
 11 12  4  0
 11 16  3  0
 11 17  4  0
 11 18  1  0
 12 14  4  0
 12 16  1  0
 13 15  4  0
 13 17  3  0
 15 17  2  0
 16 18  1  0
 17 18  1  0
M  END
$$$$

 Created by Python create_sdf_string function

 30 11  0  0  0  0  0  0  0  0999 V2000
    4.2401    6.4856   20.1118 C   0  0  0  0  0  0  0  0  0  0  0  0
    6.1464    8.4991   21.8046 C   0  0  0  0  0  0  0  0  0  0  0  0
    5.5044    7.8274   18.9430 C   0  0  0  0  0  0  0  0  0  0  0  0
   10.8387    8.2316   17.3383 C   0  0  0  0  0  0  0  0  0  0  0  0
    3.5713    7.1661   20.9728 C   0  0  0  0  0  0  0  0  0  0  0  0
    3.0735    7.5643   20.5457 O   0  0  0  0  0  0  0  0  0  0  0  0
    4.3045    7.6743   21.5609 C   0  0  0  0  0  0  0  0  0  0  0  0
    7.9974    7.3789   19.6037 C   0  0  0  0  0  0  0  0  0  0  0  0
   10.5481    6.9755   16.1647 C   0  0  0  0  0  0  0  0  0  0  0  0
   10.6206    6.5973   21.3366 C   0  0  0  0  0  0  0  0  0  0  0  0
    7.2088    8.9300   18.2230 O   0  0  0  0  0  0  0  0  0  0  0  0
    9.6606    6.0568   19.3923 C   0  0  0  0  0  0  0  0  0  0  0  0
   11.4039    5.4639   20.3972 C   0  0  0  0  0  0  0  0  0  0  0  0
   10.8437    6.2628   18.5001 C   0  0  0  0  0  0  0  0  0  0  0  0
   12.8264    4.9964   19.3663 O   0  0  0  0  0  0  0  0  0  0  0  0
    7.1626    8.4185   18.5548 C   0  0  0  0  0  0  0  0  0  0  0  0
   10.6338    8.2057   16.8098 C   0  0  0  0  0  0  0  0  0  0  0  0
   11.7053    5.1188   21.8484 C   0  0  0  0  0  0  0  0  0  0  0  0
    5.9279    8.4757   19.5120 C   0  0  0  0  0  0  0  0  0  0  0  0
    5.7730    8.5919   20.4343 C   0  0  0  0  0  0  0  0  0  0  0  0
   10.9897    6.5117   17.1464 C   0  0  0  0  0  0  0  0  0  0  0  0
   12.0470    4.9037   20.7809 C   0  0  0  0  0  0  0  0  0  0  0  0
   11.0860    4.3288   18.3681 O   0  0  0  0  0  0  0  0  0  0  0  0
    6.9231    7.3035   20.5153 C   0  0  0  0  0  0  0  0  0  0  0  0
    8.7493    7.7800   17.1171 C   0  0  0  0  0  0  0  0  0  0  0  0
    9.1722    8.4452   17.3629 C   0  0  0  0  0  0  0  0  0  0  0  0
    8.9763    6.7530   19.5908 C   0  0  0  0  0  0  0  0  0  0  0  0
   10.0946    7.1432   22.6923 C   0  0  0  0  0  0  0  0  0  0  0  0
    7.1974    8.1771   22.6314 O   0  0  0  0  0  0  0  0  0  0  0  0
   11.3834    6.3936   21.9852 C   0  0  0  0  0  0  0  0  0  0  0  0
  1  5  1  0
  4 17  1  0
  5  6  1  0
  5  7  1  0
  8 27  4  0
  9 21  1  0
 11 16  4  0
 12 27  4  0
 13 22  1  0
 17 26  1  0
 19 20  4  0
M  END
$$$$

 Created by Python create_sdf_string function

 30 39  0  0  0  0  0  0  0  0999 V2000
    5.7457    9.1054   21.1124 Cl  0  0  0  0  0  0  0  0  0  0  0  0
    9.9092    7.4650   18.6323 C   0  0  0  0  0  0  0  0  0  0  0  0
    7.0990    8.8002   19.4390 N   0  0  0  0  0  0  0  0  0  0  0  0
   10.0608    6.2194   14.9249 O   0  0  0  0  0  0  0  0  0  0  0  0
    9.3250    6.6189   18.6444 I   0  0  0  0  0  0  0  0  0  0  0  0
   11.2539    7.0391   17.1579 F   0  0  0  0  0  0  0  0  0  0  0  0
    6.4654   10.6029   18.8679 N   0  0  0  0  0  0  0  0  0  0  0  0
   10.9257    9.5731   17.7422 C   0  0  0  0  0  0  0  0  0  0  0  0
   12.6218    4.1466   21.5697 N   0  0  0  0  0  0  0  0  0  0  0  0
   11.2249    2.9926   22.0532 F   0  0  0  0  0  0  0  0  0  0  0  0
   11.4690    4.1700   18.4751 O   0  0  0  0  0  0  0  0  0  0  0  0
    9.7313    8.1270   16.7709 C   0  0  0  0  0  0  0  0  0  0  0  0
   10.0258    8.5995   15.4300 S   0  0  0  0  0  0  0  0  0  0  0  0
    9.9901    5.8435   20.6091 C   0  0  0  0  0  0  0  0  0  0  0  0
    8.0057    8.2429   21.6978 C   0  0  0  0  0  0  0  0  0  0  0  0
    6.6696    7.4406   22.9484 P   0  0  0  0  0  0  0  0  0  0  0  0
    4.8443    4.8754   19.0357 He  0  0  0  0  0  0  0  0  0  0  0  0
    4.7470    7.7364   18.0628 He  0  0  0  0  0  0  0  0  0  0  0  0
    4.8915    6.6521   21.2372 He  0  0  0  0  0  0  0  0  0  0  0  0
    4.5799    7.3563   22.5200 He  0  0  0  0  0  0  0  0  0  0  0  0
    4.2622    7.3119   21.5600 He  0  0  0  0  0  0  0  0  0  0  0  0
   11.0924    7.3465   22.5672 He  0  0  0  0  0  0  0  0  0  0  0  0
    5.2196    7.5057   18.0280 He  0  0  0  0  0  0  0  0  0  0  0  0
   10.1923    4.3568   21.2229 He  0  0  0  0  0  0  0  0  0  0  0  0
   13.2621    5.2585   20.8825 He  0  0  0  0  0  0  0  0  0  0  0  0
    6.7344    9.4530   18.1792 He  0  0  0  0  0  0  0  0  0  0  0  0
    5.8615    7.9096   19.8978 He  0  0  0  0  0  0  0  0  0  0  0  0
   10.8828    6.9680   17.9148 He  0  0  0  0  0  0  0  0  0  0  0  0
    6.4879    7.0817   20.8104 He  0  0  0  0  0  0  0  0  0  0  0  0
   11.9829    7.0816   22.5007 He  0  0  0  0  0  0  0  0  0  0  0  0
  1  4  2  0
  1  5  4  0
  1 10  3  0
  1 11  1  0
  1 12  3  0
  1 13  1  0
  2 12  3  0
  2 15  2  0
  3  9  2  0
  3 14  4  0
  3 15  4  0
  3 16  3  0
  4  5  3  0
  4  9  1  0
  4 12  2  0
  4 13  4  0
  4 14  4  0
  5  9  3  0
  5 12  3  0
  6  7  2  0
  6  9  3  0
  6 10  3  0
  6 12  2  0
  7  9  2  0
  7 12  4  0
  7 16  2  0
  8  9  3  0
  8 11  3  0
  8 12  1  0
  8 16  2  0
  9 10  3  0
  9 14  1  0
 10 13  2  0
 10 16  1  0
 11 14  3  0
 11 16  4  0
 12 13  3  0
 12 14  2  0
 13 15  1  0
M  END
$$$$

 Created by Python create_sdf_string function

 30  6  0  0  0  0  0  0  0  0999 V2000
    4.6925    5.7593   19.2124 C   0  0  0  0  0  0  0  0  0  0  0  0
    6.0143    8.7854   20.7752 C   0  0  0  0  0  0  0  0  0  0  0  0
    5.1491    7.5591   18.8113 C   0  0  0  0  0  0  0  0  0  0  0  0
    9.8043    7.3198   19.0311 C   0  0  0  0  0  0  0  0  0  0  0  0
    4.8815    6.6448   20.9703 C   0  0  0  0  0  0  0  0  0  0  0  0
    4.7864    7.1589   22.5021 C   0  0  0  0  0  0  0  0  0  0  0  0
    4.4717    6.9781   21.6205 C   0  0  0  0  0  0  0  0  0  0  0  0
    7.2922    8.5747   19.4704 C   0  0  0  0  0  0  0  0  0  0  0  0
   10.3090    6.7961   15.6978 O   0  0  0  0  0  0  0  0  0  0  0  0
   10.9117    6.8518   22.1582 C   0  0  0  0  0  0  0  0  0  0  0  0
    5.6237    7.3300   18.7922 C   0  0  0  0  0  0  0  0  0  0  0  0
    9.4547    7.1027   19.0657 C   0  0  0  0  0  0  0  0  0  0  0  0
   10.8544    4.5513   20.9178 C   0  0  0  0  0  0  0  0  0  0  0  0
   10.9427    6.9954   17.0451 C   0  0  0  0  0  0  0  0  0  0  0  0
   12.3814    5.3196   21.2498 C   0  0  0  0  0  0  0  0  0  0  0  0
    6.5853   10.0862   18.6184 O   0  0  0  0  0  0  0  0  0  0  0  0
   10.1918    8.9266   17.5346 C   0  0  0  0  0  0  0  0  0  0  0  0
   12.1568    4.4856   21.4752 C   0  0  0  0  0  0  0  0  0  0  0  0
    7.0866    9.3277   18.6902 C   0  0  0  0  0  0  0  0  0  0  0  0
    5.9269    7.9123   19.8782 C   0  0  0  0  0  0  0  0  0  0  0  0
   10.7458    6.7400   18.0323 C   0  0  0  0  0  0  0  0  0  0  0  0
   11.3990    3.7697   21.6355 C   0  0  0  0  0  0  0  0  0  0  0  0
   11.4439    4.6986   18.9523 O   0  0  0  0  0  0  0  0  0  0  0  0
    6.4768    7.4479   21.1156 C   0  0  0  0  0  0  0  0  0  0  0  0
    9.9127    8.2025   16.8350 C   0  0  0  0  0  0  0  0  0  0  0  0
   10.1099    8.2710   15.8572 C   0  0  0  0  0  0  0  0  0  0  0  0
   10.4245    6.0634   20.3399 C   0  0  0  0  0  0  0  0  0  0  0  0
    8.2012    7.7253   21.4144 C   0  0  0  0  0  0  0  0  0  0  0  0
    6.2998    7.3810   22.8562 C   0  0  0  0  0  0  0  0  0  0  0  0
   11.3855    6.4697   22.0108 C   0  0  0  0  0  0  0  0  0  0  0  0
  4 12  4  0
 10 30  4  0
 14 21  4  0
 15 18  4  0
 16 19  1  0
 17 25  1  0
M  END
$$$$

 Created by Python create_sdf_string function

 30 72  0  0  0  0  0  0  0  0999 V2000
    4.4982    6.5978   18.4093 I   0  0  0  0  0  0  0  0  0  0  0  0
    6.6931    9.8775   20.3973 C   0  0  0  0  0  0  0  0  0  0  0  0
    5.2415    7.6214   21.4062 N   0  0  0  0  0  0  0  0  0  0  0  0
    4.6092    6.7321   21.4126 C   0  0  0  0  0  0  0  0  0  0  0  0
    6.6570    7.6295   18.3188 N   0  0  0  0  0  0  0  0  0  0  0  0
   11.9146    6.2244   22.2134 C   0  0  0  0  0  0  0  0  0  0  0  0
    5.5086    6.5885   18.3064 Cl  0  0  0  0  0  0  0  0  0  0  0  0
    9.4797    7.0010   18.7760 P   0  0  0  0  0  0  0  0  0  0  0  0
   10.7008    7.0930   16.3697 F   0  0  0  0  0  0  0  0  0  0  0  0
   13.1207    5.0008   18.5620 N   0  0  0  0  0  0  0  0  0  0  0  0
    5.4104   10.1791   18.4484 O   0  0  0  0  0  0  0  0  0  0  0  0
   10.5041    8.4203   19.0356 C   0  0  0  0  0  0  0  0  0  0  0  0
   11.6328    3.9420   21.0204 S   0  0  0  0  0  0  0  0  0  0  0  0
    7.6197    9.6973   17.7681 C   0  0  0  0  0  0  0  0  0  0  0  0
    5.3131    9.2212   20.3824 S   0  0  0  0  0  0  0  0  0  0  0  0
   10.7410    6.8118   18.6410 C   0  0  0  0  0  0  0  0  0  0  0  0
   13.2102    4.4940   22.3290 P   0  0  0  0  0  0  0  0  0  0  0  0
   12.1391    4.7382   17.7342 Se  0  0  0  0  0  0  0  0  0  0  0  0
    7.0170    6.0875   20.8869 S   0  0  0  0  0  0  0  0  0  0  0  0
    9.1391    9.0996   15.5967 I   0  0  0  0  0  0  0  0  0  0  0  0
   12.1542    6.4861   19.4096 P   0  0  0  0  0  0  0  0  0  0  0  0
    7.3089    7.3054   21.5414 N   0  0  0  0  0  0  0  0  0  0  0  0
    6.9730    8.1554   23.4218 F   0  0  0  0  0  0  0  0  0  0  0  0
    4.1670    6.8754   17.7401 He  0  0  0  0  0  0  0  0  0  0  0  0
    9.3222    7.3575   19.6563 He  0  0  0  0  0  0  0  0  0  0  0  0
    4.8615    7.8099   23.4789 He  0  0  0  0  0  0  0  0  0  0  0  0
    8.6459    7.2186   16.3417 He  0  0  0  0  0  0  0  0  0  0  0  0
    8.9840    4.5032   21.6326 He  0  0  0  0  0  0  0  0  0  0  0  0
    9.5854    8.3243   16.6022 He  0  0  0  0  0  0  0  0  0  0  0  0
   11.2165    6.7066   23.3626 He  0  0  0  0  0  0  0  0  0  0  0  0
  1 11  3  0
  1 13  4  0
  1 20  2  0
  1 21  3  0
  1 22  4  0
  2  5  2  0
  2 18  3  0
  2 22  3  0
  3  8  2  0
  3 11  2  0
  3 15  3  0
  3 22  1  0
  3 23  4  0
  4  8  2  0
  4 13  3  0
  4 15  2  0
  4 17  3  0
  4 20  1  0
  5 11  2  0
  5 12  3  0
  5 14  3  0
  5 18  4  0
  5 19  4  0
  5 20  1  0
  5 23  2  0
  6  7  2  0
  6 10  1  0
  6 12  1  0
  6 16  3  0
  6 17  3  0
  6 18  3  0
  6 19  1  0
  6 23  4  0
  7 10  3  0
  7 13  4  0
  7 17  2  0
  8 10  4  0
  8 13  4  0
  8 14  2  0
  8 19  1  0
  8 22  2  0
  8 23  3  0
  9 15  1  0
  9 16  4  0
  9 19  2  0
  9 20  2  0
  9 22  1  0
 10 12  1  0
 10 13  4  0
 10 14  4  0
 10 18  1  0
 10 20  2  0
 10 21  4  0
 10 23  1  0
 11 14  1  0
 11 23  1  0
 12 15  1  0
 12 21  3  0
 14 18  2  0
 14 21  4  0
 14 23  4  0
 15 16  3  0
 15 18  1  0
 15 19  1  0
 15 21  2  0
 16 18  3  0
 17 20  2  0
 17 21  2  0
 18 19  2  0
 18 23  3  0
 19 23  3  0
 20 23  3  0
M  END
$$$$

 Created by Python create_sdf_string function

 30  7  0  0  0  0  0  0  0  0999 V2000
    4.6432    6.6439   19.0405 C   0  0  0  0  0  0  0  0  0  0  0  0
    6.5417    9.1793   20.3103 C   0  0  0  0  0  0  0  0  0  0  0  0
    4.5820    6.9319   18.9609 C   0  0  0  0  0  0  0  0  0  0  0  0
    8.9461    7.6817   19.3958 C   0  0  0  0  0  0  0  0  0  0  0  0
    5.6718    7.6662   21.5284 C   0  0  0  0  0  0  0  0  0  0  0  0
    5.3446    7.8002   23.0635 C   0  0  0  0  0  0  0  0  0  0  0  0
    4.9396    7.0276   21.1880 C   0  0  0  0  0  0  0  0  0  0  0  0
    6.8398    7.8028   18.6345 C   0  0  0  0  0  0  0  0  0  0  0  0
    8.5969    7.5090   16.6604 C   0  0  0  0  0  0  0  0  0  0  0  0
   11.6043    5.7873   21.7809 C   0  0  0  0  0  0  0  0  0  0  0  0
    5.8227    6.7477   18.8166 C   0  0  0  0  0  0  0  0  0  0  0  0
    9.2744    7.3969   18.7010 C   0  0  0  0  0  0  0  0  0  0  0  0
    9.6649    5.3739   21.6362 C   0  0  0  0  0  0  0  0  0  0  0  0
   10.5646    7.2288   16.8732 C   0  0  0  0  0  0  0  0  0  0  0  0
   12.2054    5.4037   19.1043 C   0  0  0  0  0  0  0  0  0  0  0  0
    5.7840    9.6816   18.8046 O   0  0  0  0  0  0  0  0  0  0  0  0
   10.1716    7.7918   18.8096 C   0  0  0  0  0  0  0  0  0  0  0  0
   11.7457    4.8448   20.5961 C   0  0  0  0  0  0  0  0  0  0  0  0
    7.4543    9.0403   18.2032 C   0  0  0  0  0  0  0  0  0  0  0  0
    5.5434    8.7543   20.2103 C   0  0  0  0  0  0  0  0  0  0  0  0
   11.0092    6.7399   18.4069 C   0  0  0  0  0  0  0  0  0  0  0  0
   12.6930    4.9913   22.0249 C   0  0  0  0  0  0  0  0  0  0  0  0
   12.0065    5.3950   18.0853 C   0  0  0  0  0  0  0  0  0  0  0  0
    6.8418    6.4887   20.7854 C   0  0  0  0  0  0  0  0  0  0  0  0
    9.2301    8.2642   16.6322 C   0  0  0  0  0  0  0  0  0  0  0  0
    9.0482    8.9277   15.8937 O   0  0  0  0  0  0  0  0  0  0  0  0
   11.7734    5.9993   19.6934 C   0  0  0  0  0  0  0  0  0  0  0  0
    6.9294    7.4272   21.6066 C   0  0  0  0  0  0  0  0  0  0  0  0
    6.6045    8.0167   23.1421 C   0  0  0  0  0  0  0  0  0  0  0  0
   11.2041    6.0250   22.4819 C   0  0  0  0  0  0  0  0  0  0  0  0
  1  3  4  0
  6 29  1  0
  9 25  1  0
 10 30  4  0
 15 23  4  0
 15 27  4  0
 25 26  1  0
M  END
$$$$

 Created by Python create_sdf_string function

 30 40  0  0  0  0  0  0  0  0999 V2000
    3.8928    7.7484   17.4172 O   0  0  0  0  0  0  0  0  0  0  0  0
    5.5206    8.6141   21.2509 C   0  0  0  0  0  0  0  0  0  0  0  0
    4.7989    6.9239   21.0054 I   0  0  0  0  0  0  0  0  0  0  0  0
   11.3229    5.1637   22.1618 C   0  0  0  0  0  0  0  0  0  0  0  0
    6.0993    6.7446   20.4610 C   0  0  0  0  0  0  0  0  0  0  0  0
    9.4811    5.2747   22.7866 C   0  0  0  0  0  0  0  0  0  0  0  0
    8.5307    8.2696   19.7543 Se  0  0  0  0  0  0  0  0  0  0  0  0
   11.7467    5.0166   20.3580 C   0  0  0  0  0  0  0  0  0  0  0  0
    7.3968    8.4989   17.9116 C   0  0  0  0  0  0  0  0  0  0  0  0
    6.0505    9.6933   19.6622 F   0  0  0  0  0  0  0  0  0  0  0  0
   11.9046    5.5204   18.5452 C   0  0  0  0  0  0  0  0  0  0  0  0
   13.4312    5.2635   22.2520 N   0  0  0  0  0  0  0  0  0  0  0  0
    6.6058    7.7655   19.9742 N   0  0  0  0  0  0  0  0  0  0  0  0
   10.0621    8.0218   16.6112 C   0  0  0  0  0  0  0  0  0  0  0  0
    8.4360    7.9902   17.9896 C   0  0  0  0  0  0  0  0  0  0  0  0
    5.1969    6.0745   17.9240 He  0  0  0  0  0  0  0  0  0  0  0  0
    6.2317    7.4736   22.5383 He  0  0  0  0  0  0  0  0  0  0  0  0
    7.4841    6.2917   20.0641 He  0  0  0  0  0  0  0  0  0  0  0  0
    5.8566    6.8196   23.8539 He  0  0  0  0  0  0  0  0  0  0  0  0
    6.9160    7.7968   17.7719 He  0  0  0  0  0  0  0  0  0  0  0  0
    9.3827    5.6311   17.1522 He  0  0  0  0  0  0  0  0  0  0  0  0
    9.1986    7.3320   19.2041 He  0  0  0  0  0  0  0  0  0  0  0  0
   10.2214    6.6680   17.8592 He  0  0  0  0  0  0  0  0  0  0  0  0
   12.3959    5.3026   17.9973 He  0  0  0  0  0  0  0  0  0  0  0  0
    6.5643    8.4104   18.0614 He  0  0  0  0  0  0  0  0  0  0  0  0
   10.7446    5.7566   18.2015 He  0  0  0  0  0  0  0  0  0  0  0  0
   12.7983    5.8099   18.8908 He  0  0  0  0  0  0  0  0  0  0  0  0
    6.8169    9.4641   21.7751 He  0  0  0  0  0  0  0  0  0  0  0  0
    7.2165    8.4424   24.9771 He  0  0  0  0  0  0  0  0  0  0  0  0
   11.1285    6.9404   22.6884 He  0  0  0  0  0  0  0  0  0  0  0  0
  1  3  2  0
  1  4  2  0
  1  5  3  0
  1  7  2  0
  1 14  4  0
  2  8  1  0
  2  9  4  0
  2 13  1  0
  3  7  2  0
  3  9  3  0
  3 10  2  0
  3 13  4  0
  3 14  4  0
  4  6  4  0
  4  9  3  0
  4 11  1  0
  4 13  2  0
  4 14  1  0
  4 15  2  0
  5  6  4  0
  5  8  2  0
  5 10  2  0
  5 11  4  0
  5 14  1  0
  5 15  3  0
  6  7  3  0
  7  9  2  0
  7 10  3  0
  7 12  3  0
  7 15  4  0
  8 11  2  0
  8 12  4  0
  9 10  2  0
  9 12  3  0
 10 13  4  0
 11 12  3  0
 11 13  4  0
 11 14  3  0
 11 15  4  0
 12 14  2  0
M  END
$$$$

 Created by Python create_sdf_string function

 30 11  0  0  0  0  0  0  0  0999 V2000
    5.4485    6.1715   18.6161 C   0  0  0  0  0  0  0  0  0  0  0  0
    6.2028    7.6775   22.8428 C   0  0  0  0  0  0  0  0  0  0  0  0
    4.2238    7.5618   18.7221 O   0  0  0  0  0  0  0  0  0  0  0  0
    7.9650    6.5560   20.6670 C   0  0  0  0  0  0  0  0  0  0  0  0
    5.7807    8.2334   21.6906 C   0  0  0  0  0  0  0  0  0  0  0  0
    6.1341    7.3057   23.6247 C   0  0  0  0  0  0  0  0  0  0  0  0
    5.0917    7.0571   20.9417 C   0  0  0  0  0  0  0  0  0  0  0  0
    7.1664    7.4211   18.2239 C   0  0  0  0  0  0  0  0  0  0  0  0
    9.6557    5.9752   17.1111 C   0  0  0  0  0  0  0  0  0  0  0  0
   10.8759    5.7071   22.0393 C   0  0  0  0  0  0  0  0  0  0  0  0
    5.6112    6.9415   20.2347 C   0  0  0  0  0  0  0  0  0  0  0  0
    9.2156    6.9274   19.2005 C   0  0  0  0  0  0  0  0  0  0  0  0
    9.7776    5.7997   22.1586 C   0  0  0  0  0  0  0  0  0  0  0  0
   10.2476    6.4839   17.9193 C   0  0  0  0  0  0  0  0  0  0  0  0
   12.1506    5.5145   18.2237 C   0  0  0  0  0  0  0  0  0  0  0  0
    6.8187    8.3867   18.5294 C   0  0  0  0  0  0  0  0  0  0  0  0
    8.4959    8.1607   19.4692 C   0  0  0  0  0  0  0  0  0  0  0  0
   11.9885    5.5478   20.5770 C   0  0  0  0  0  0  0  0  0  0  0  0
    7.4476    8.7052   18.2515 C   0  0  0  0  0  0  0  0  0  0  0  0
    6.1300    9.5306   19.5137 C   0  0  0  0  0  0  0  0  0  0  0  0
   12.0396    5.6374   19.0038 C   0  0  0  0  0  0  0  0  0  0  0  0
   12.7484    5.5045   21.6119 C   0  0  0  0  0  0  0  0  0  0  0  0
   10.9340    5.9802   18.2866 C   0  0  0  0  0  0  0  0  0  0  0  0
    6.2450    7.9448   20.2881 C   0  0  0  0  0  0  0  0  0  0  0  0
    9.7160    7.8693   16.7185 C   0  0  0  0  0  0  0  0  0  0  0  0
    8.5810    8.0246   17.9228 C   0  0  0  0  0  0  0  0  0  0  0  0
   12.6870    5.5759   19.5766 C   0  0  0  0  0  0  0  0  0  0  0  0
    6.8036    9.0519   22.3129 C   0  0  0  0  0  0  0  0  0  0  0  0
    6.9448    8.1199   24.1811 C   0  0  0  0  0  0  0  0  0  0  0  0
   11.5139    6.0053   22.3052 C   0  0  0  0  0  0  0  0  0  0  0  0
  2  6  1  0
  6 29  1  0
 10 13  4  0
 10 30  4  0
 14 23  4  0
 15 21  4  0
 15 23  4  0
 16 19  4  0
 18 22  4  0
 21 27  4  0
 22 30  4  0
M  END
$$$$

 Created by Python create_sdf_string function

 30 59  0  0  0  0  0  0  0  0999 V2000
    5.6978    6.8718   22.4334 Cl  0  0  0  0  0  0  0  0  0  0  0  0
    4.1324    7.9717   18.7315 O   0  0  0  0  0  0  0  0  0  0  0  0
    5.8082    8.3638   22.0373 C   0  0  0  0  0  0  0  0  0  0  0  0
    6.0041    7.0048   23.5276 C   0  0  0  0  0  0  0  0  0  0  0  0
    5.1195    7.1877   21.0695 C   0  0  0  0  0  0  0  0  0  0  0  0
    6.7640    6.2421   17.9892 I   0  0  0  0  0  0  0  0  0  0  0  0
   10.0599    6.9277   18.4600 C   0  0  0  0  0  0  0  0  0  0  0  0
    9.8768    5.1893   21.3238 C   0  0  0  0  0  0  0  0  0  0  0  0
    9.1714    6.5275   20.8004 C   0  0  0  0  0  0  0  0  0  0  0  0
   13.1852    6.5502   16.9561 F   0  0  0  0  0  0  0  0  0  0  0  0
    7.1453    8.5917   18.2113 C   0  0  0  0  0  0  0  0  0  0  0  0
    8.6971    8.9686   20.4784 N   0  0  0  0  0  0  0  0  0  0  0  0
   11.7912    4.8610   19.8410 Se  0  0  0  0  0  0  0  0  0  0  0  0
   12.0398    6.1861   21.9993 P   0  0  0  0  0  0  0  0  0  0  0  0
   11.4542    6.0326   17.9641 F   0  0  0  0  0  0  0  0  0  0  0  0
    4.9779    7.2524   21.2826 C   0  0  0  0  0  0  0  0  0  0  0  0
    7.9575    8.1086   17.6303 I   0  0  0  0  0  0  0  0  0  0  0  0
   12.0512    4.8237   19.7824 N   0  0  0  0  0  0  0  0  0  0  0  0
    6.7787    9.2249   25.8367 C   0  0  0  0  0  0  0  0  0  0  0  0
   11.6705    4.0096   21.7065 Cl  0  0  0  0  0  0  0  0  0  0  0  0
    5.3125    5.5253   18.2341 He  0  0  0  0  0  0  0  0  0  0  0  0
    9.5629    6.9876   21.1347 He  0  0  0  0  0  0  0  0  0  0  0  0
    5.1081    6.1472   21.1192 He  0  0  0  0  0  0  0  0  0  0  0  0
    8.9693    5.8203   21.7699 He  0  0  0  0  0  0  0  0  0  0  0  0
   10.6764    5.7308   17.2822 He  0  0  0  0  0  0  0  0  0  0  0  0
   13.5328    5.2169   20.6335 He  0  0  0  0  0  0  0  0  0  0  0  0
    7.3475    9.3725   18.2629 He  0  0  0  0  0  0  0  0  0  0  0  0
    7.0536    9.5200   19.7370 He  0  0  0  0  0  0  0  0  0  0  0  0
    9.9336    8.2722   17.4737 He  0  0  0  0  0  0  0  0  0  0  0  0
    6.2024   10.1729   21.9222 He  0  0  0  0  0  0  0  0  0  0  0  0
  1  2  3  0
  1  4  3  0
  1  6  4  0
  1  8  1  0
  1 11  4  0
  1 13  3  0
  1 19  3  0
  2  6  2  0
  2  7  1  0
  2  9  1  0
  2 15  3  0
  3  4  3  0
  3  7  1  0
  3  8  4  0
  3  9  3  0
  3 11  1  0
  3 19  3  0
  3 20  3  0
  4  5  2  0
  4  7  2  0
  4  8  4  0
  4 15  1  0
  4 17  1  0
  5  6  1  0
  5  8  1  0
  5  9  2  0
  5 10  3  0
  5 11  1  0
  5 14  1  0
  5 16  1  0
  5 17  3  0
  5 20  1  0
  6 11  3  0
  6 13  1  0
  7 11  2  0
  7 18  4  0
  8  9  1  0
  8 14  3  0
  8 17  4  0
  8 19  2  0
  9 16  1  0
  9 19  2  0
 10 11  1  0
 10 12  2  0
 10 14  4  0
 11 12  2  0
 11 15  1  0
 11 20  4  0
 12 13  4  0
 12 15  1  0
 12 20  2  0
 13 14  3  0
 13 15  1  0
 13 18  4  0
 14 15  1  0
 14 17  4  0
 14 19  3  0
 15 16  1  0
 18 20  1  0
M  END
$$$$

 Created by Python create_sdf_string function

 30 10  0  0  0  0  0  0  0  0999 V2000
    5.5968    6.1711   18.7811 C   0  0  0  0  0  0  0  0  0  0  0  0
    5.7536    7.1663   22.6403 C   0  0  0  0  0  0  0  0  0  0  0  0
    4.4047    7.9480   19.2193 O   0  0  0  0  0  0  0  0  0  0  0  0
    9.4236    7.0122   21.0685 C   0  0  0  0  0  0  0  0  0  0  0  0
    5.9959    8.3791   22.5162 C   0  0  0  0  0  0  0  0  0  0  0  0
    5.9370    7.2635   23.3660 C   0  0  0  0  0  0  0  0  0  0  0  0
    5.4264    7.5137   20.7474 C   0  0  0  0  0  0  0  0  0  0  0  0
    6.4874    6.8270   18.4620 C   0  0  0  0  0  0  0  0  0  0  0  0
   10.1584    6.8125   18.4905 C   0  0  0  0  0  0  0  0  0  0  0  0
   10.1723    5.5527   21.2367 C   0  0  0  0  0  0  0  0  0  0  0  0
    5.1923    6.5019   21.1251 C   0  0  0  0  0  0  0  0  0  0  0  0
    9.3983    6.6508   20.7985 C   0  0  0  0  0  0  0  0  0  0  0  0
    9.0346    6.0023   21.6969 C   0  0  0  0  0  0  0  0  0  0  0  0
   10.7936    6.2829   17.6073 C   0  0  0  0  0  0  0  0  0  0  0  0
   12.7278    6.0759   17.4020 C   0  0  0  0  0  0  0  0  0  0  0  0
    7.2179    8.3453   18.6605 C   0  0  0  0  0  0  0  0  0  0  0  0
    8.3630    8.9377   20.1737 C   0  0  0  0  0  0  0  0  0  0  0  0
   13.0374    5.1491   20.3167 C   0  0  0  0  0  0  0  0  0  0  0  0
    7.4563    9.1081   18.5489 C   0  0  0  0  0  0  0  0  0  0  0  0
    6.9548    9.0468   19.7937 C   0  0  0  0  0  0  0  0  0  0  0  0
   11.6342    5.5546   19.4700 C   0  0  0  0  0  0  0  0  0  0  0  0
   11.6393    5.7769   21.9225 C   0  0  0  0  0  0  0  0  0  0  0  0
   11.7306    6.0701   17.8596 C   0  0  0  0  0  0  0  0  0  0  0  0
    5.3051    7.5070   21.1586 C   0  0  0  0  0  0  0  0  0  0  0  0
    9.6514    7.8210   17.7711 C   0  0  0  0  0  0  0  0  0  0  0  0
    8.0091    8.0383   17.8331 C   0  0  0  0  0  0  0  0  0  0  0  0
   11.8089    5.2415   19.8217 C   0  0  0  0  0  0  0  0  0  0  0  0
    6.3557    9.4614   22.1846 C   0  0  0  0  0  0  0  0  0  0  0  0
    6.3928    8.8121   24.4558 C   0  0  0  0  0  0  0  0  0  0  0  0
   11.6970    4.5506   21.5965 C   0  0  0  0  0  0  0  0  0  0  0  0
  1  8  1  0
  2  6  1  0
  4 12  1  0
  7 24  1  0
  9 14  4  0
  9 25  1  0
 14 23  4  0
 15 23  4  0
 18 27  1  0
 21 27  4  0
M  END
$$$$

 Created by Python create_sdf_string function

 30 69  0  0  0  0  0  0  0  0999 V2000
    7.0560    8.3873   22.9638 N   0  0  0  0  0  0  0  0  0  0  0  0
    4.8111    8.2798   19.0285 O   0  0  0  0  0  0  0  0  0  0  0  0
   10.3001    6.8904   21.5590 F   0  0  0  0  0  0  0  0  0  0  0  0
    6.5200    7.7685   21.7282 Cl  0  0  0  0  0  0  0  0  0  0  0  0
    5.5513    8.0645   22.7514 C   0  0  0  0  0  0  0  0  0  0  0  0
    6.6400    8.0467   20.0478 F   0  0  0  0  0  0  0  0  0  0  0  0
    6.2009    6.4507   17.7372 S   0  0  0  0  0  0  0  0  0  0  0  0
   10.2787    5.1825   21.1541 F   0  0  0  0  0  0  0  0  0  0  0  0
    4.6457    5.8935   19.6862 S   0  0  0  0  0  0  0  0  0  0  0  0
   10.3014    5.7770   21.2118 C   0  0  0  0  0  0  0  0  0  0  0  0
    7.2771    4.4536   22.9392 S   0  0  0  0  0  0  0  0  0  0  0  0
    9.9034    6.4968   17.3231 C   0  0  0  0  0  0  0  0  0  0  0  0
    7.8051    8.2073   20.0908 Cl  0  0  0  0  0  0  0  0  0  0  0  0
    7.1022    9.3761   20.4538 P   0  0  0  0  0  0  0  0  0  0  0  0
   12.1968    4.3660   21.3447 C   0  0  0  0  0  0  0  0  0  0  0  0
    7.1816    9.6108   18.3127 F   0  0  0  0  0  0  0  0  0  0  0  0
    8.9839    8.9247   19.1280 C   0  0  0  0  0  0  0  0  0  0  0  0
   12.3299    6.2122   17.5838 N   0  0  0  0  0  0  0  0  0  0  0  0
   10.7961    4.8274   18.5659 F   0  0  0  0  0  0  0  0  0  0  0  0
    6.8757   10.5600   22.8322 C   0  0  0  0  0  0  0  0  0  0  0  0
   10.7905    3.7188   22.1593 C   0  0  0  0  0  0  0  0  0  0  0  0
    5.5280    6.7825   18.8656 He  0  0  0  0  0  0  0  0  0  0  0  0
    9.5836    6.6909   18.2088 He  0  0  0  0  0  0  0  0  0  0  0  0
   11.5984    5.7864   17.9240 He  0  0  0  0  0  0  0  0  0  0  0  0
   11.1137    7.0087   20.2597 He  0  0  0  0  0  0  0  0  0  0  0  0
   12.6071    5.8115   23.3838 He  0  0  0  0  0  0  0  0  0  0  0  0
    5.1280    6.7566   19.8477 He  0  0  0  0  0  0  0  0  0  0  0  0
   10.2671    8.0488   18.3051 He  0  0  0  0  0  0  0  0  0  0  0  0
    8.4833    7.4598   17.2816 He  0  0  0  0  0  0  0  0  0  0  0  0
    7.1526    7.7544   25.3302 He  0  0  0  0  0  0  0  0  0  0  0  0
  1  2  3  0
  1  5  1  0
  1 10  2  0
  1 12  1  0
  1 15  2  0
  1 19  1  0
  2  3  3  0
  2  4  2  0
  2  6  4  0
  2 10  2  0
  2 11  4  0
  2 12  4  0
  2 13  3  0
  2 17  3  0
  2 18  4  0
  2 19  2  0
  3  4  2  0
  3  6  4  0
  3  8  1  0
  3 10  2  0
  3 14  1  0
  3 15  2  0
  3 18  4  0
  3 20  1  0
  4 12  4  0
  4 13  1  0
  4 14  4  0
  4 18  1  0
  5 14  4  0
  5 15  1  0
  5 20  3  0
  6 13  2  0
  6 16  3  0
  6 20  4  0
  7  9  4  0
  7 11  2  0
  7 12  3  0
  7 14  1  0
  7 16  1  0
  7 18  4  0
  8 13  2  0
  8 17  3  0
  8 20  3  0
  9 21  4  0
 10 12  4  0
 10 13  1  0
 10 21  3  0
 11 12  4  0
 11 17  2  0
 11 20  2  0
 12 16  1  0
 12 18  2  0
 12 21  1  0
 13 16  1  0
 14 16  2  0
 14 17  1  0
 14 20  2  0
 14 21  4  0
 15 17  1  0
 15 18  1  0
 15 19  1  0
 15 21  1  0
 16 18  2  0
 16 19  4  0
 17 20  3  0
 17 21  1  0
 18 20  2  0
 18 21  2  0
 19 20  3  0
M  END
$$$$

 Created by Python create_sdf_string function

 30 13  0  0  0  0  0  0  0  0999 V2000
    5.7070    7.1111   18.8200 C   0  0  0  0  0  0  0  0  0  0  0  0
    6.7921    7.9668   23.1136 C   0  0  0  0  0  0  0  0  0  0  0  0
    4.6710    8.2762   19.0524 O   0  0  0  0  0  0  0  0  0  0  0  0
   10.3056    6.5690   21.4367 C   0  0  0  0  0  0  0  0  0  0  0  0
    6.7228    7.8335   21.7618 C   0  0  0  0  0  0  0  0  0  0  0  0
    6.0804    8.0823   22.8400 C   0  0  0  0  0  0  0  0  0  0  0  0
    6.3776    8.1583   20.1517 C   0  0  0  0  0  0  0  0  0  0  0  0
    6.5248    6.6719   18.0191 C   0  0  0  0  0  0  0  0  0  0  0  0
    9.4258    7.0277   18.1133 C   0  0  0  0  0  0  0  0  0  0  0  0
   10.1059    5.6204   21.4944 C   0  0  0  0  0  0  0  0  0  0  0  0
    4.6461    6.0687   19.4548 C   0  0  0  0  0  0  0  0  0  0  0  0
   10.4523    5.8875   21.4251 C   0  0  0  0  0  0  0  0  0  0  0  0
    7.6345    5.6209   22.8224 C   0  0  0  0  0  0  0  0  0  0  0  0
   10.4507    6.6770   17.7107 C   0  0  0  0  0  0  0  0  0  0  0  0
   11.6350    6.0055   17.6759 C   0  0  0  0  0  0  0  0  0  0  0  0
    7.8044    8.4740   19.9429 C   0  0  0  0  0  0  0  0  0  0  0  0
    7.1893    9.3648   20.7093 C   0  0  0  0  0  0  0  0  0  0  0  0
   11.6748    4.4582   21.3974 C   0  0  0  0  0  0  0  0  0  0  0  0
    7.4208    9.3736   18.6176 C   0  0  0  0  0  0  0  0  0  0  0  0
    8.9597    9.0103   19.0378 C   0  0  0  0  0  0  0  0  0  0  0  0
   10.7533    6.4308   19.6060 C   0  0  0  0  0  0  0  0  0  0  0  0
   11.9300    5.6046   22.8066 C   0  0  0  0  0  0  0  0  0  0  0  0
   11.9904    5.7458   17.7847 C   0  0  0  0  0  0  0  0  0  0  0  0
    5.0849    6.8537   19.7459 C   0  0  0  0  0  0  0  0  0  0  0  0
    9.6602    7.9708   18.3070 C   0  0  0  0  0  0  0  0  0  0  0  0
    8.1775    7.3853   17.3240 C   0  0  0  0  0  0  0  0  0  0  0  0
   11.4358    5.2142   19.2047 C   0  0  0  0  0  0  0  0  0  0  0  0
    6.8429    9.8351   22.6190 C   0  0  0  0  0  0  0  0  0  0  0  0
    7.0463    7.6928   24.4666 O   0  0  0  0  0  0  0  0  0  0  0  0
   10.9837    4.1296   21.8808 C   0  0  0  0  0  0  0  0  0  0  0  0
  1  8  1  0
  1 24  1  0
  2  6  1  0
  2 29  1  0
  4 10  1  0
  8 26  4  0
 10 12  1  0
 11 24  1  0
 14 15  4  0
 15 23  4  0
 18 30  1  0
 20 25  1  0
 21 27  4  0
M  END
$$$$

 Created by Python create_sdf_string function

 30 87  0  0  0  0  0  0  0  0999 V2000
    6.2922    6.9567   17.9872 N   0  0  0  0  0  0  0  0  0  0  0  0
    4.9520    7.9882   23.1609 B   0  0  0  0  0  0  0  0  0  0  0  0
    3.9477    7.4054   18.6679 O   0  0  0  0  0  0  0  0  0  0  0  0
   10.8687    6.6879   21.2153 N   0  0  0  0  0  0  0  0  0  0  0  0
    5.3527    7.8923   20.6544 F   0  0  0  0  0  0  0  0  0  0  0  0
    6.9019    5.5351   17.5457 F   0  0  0  0  0  0  0  0  0  0  0  0
    9.9514    7.4670   18.3167 B   0  0  0  0  0  0  0  0  0  0  0  0
   10.3267    5.8007   22.5838 O   0  0  0  0  0  0  0  0  0  0  0  0
   10.4890    4.8444   21.4265 S   0  0  0  0  0  0  0  0  0  0  0  0
    7.7746    5.9531   23.1616 S   0  0  0  0  0  0  0  0  0  0  0  0
    8.1460    7.8418   20.0303 C   0  0  0  0  0  0  0  0  0  0  0  0
    7.5769    9.1751   22.2513 O   0  0  0  0  0  0  0  0  0  0  0  0
   10.9783    3.4390   20.5737 N   0  0  0  0  0  0  0  0  0  0  0  0
    8.2614    8.9746   16.9927 F   0  0  0  0  0  0  0  0  0  0  0  0
    7.2035    8.4195   18.3983 C   0  0  0  0  0  0  0  0  0  0  0  0
   11.0079    6.4436   18.1640 F   0  0  0  0  0  0  0  0  0  0  0  0
   11.7051    5.2701   19.1312 C   0  0  0  0  0  0  0  0  0  0  0  0
    5.4442    6.6609   20.9205 C   0  0  0  0  0  0  0  0  0  0  0  0
   10.3579    8.1354   17.6373 C   0  0  0  0  0  0  0  0  0  0  0  0
   12.0123    3.7796   19.2692 C   0  0  0  0  0  0  0  0  0  0  0  0
    7.0203   10.3065   21.3854 C   0  0  0  0  0  0  0  0  0  0  0  0
    7.5180    9.0209   25.3926 O   0  0  0  0  0  0  0  0  0  0  0  0
   11.8753    5.7897   21.6049 C   0  0  0  0  0  0  0  0  0  0  0  0
    7.5023    7.4391   21.9146 He  0  0  0  0  0  0  0  0  0  0  0  0
    6.0095    7.7276   23.1751 He  0  0  0  0  0  0  0  0  0  0  0  0
    4.3847    5.8641   18.5849 He  0  0  0  0  0  0  0  0  0  0  0  0
   12.1434    7.5028   17.4812 He  0  0  0  0  0  0  0  0  0  0  0  0
   11.3791    7.0059   17.4874 He  0  0  0  0  0  0  0  0  0  0  0  0
   12.4015    5.4305   23.4164 He  0  0  0  0  0  0  0  0  0  0  0  0
    8.6138    9.0115   17.5754 He  0  0  0  0  0  0  0  0  0  0  0  0
  1  4  1  0
  1  5  1  0
  1  6  1  0
  1  7  2  0
  1 10  4  0
  1 16  4  0
  1 18  4  0
  1 22  3  0
  1 23  4  0
  2  3  1  0
  2  4  1  0
  2  5  3  0
  2  9  3  0
  2 10  2  0
  2 12  4  0
  2 15  2  0
  2 16  4  0
  2 19  2  0
  2 22  1  0
  3  6  4  0
  3  8  3  0
  3  9  4  0
  3 17  4  0
  3 19  3  0
  3 23  3  0
  4  6  3  0
  4  8  1  0
  4  9  4  0
  4 14  4  0
  4 18  2  0
  5  7  4  0
  5  8  3  0
  5 10  1  0
  5 17  3  0
  5 21  4  0
  5 22  3  0
  5 23  2  0
  6 10  4  0
  6 13  3  0
  6 19  4  0
  6 21  2  0
  6 23  4  0
  7  9  4  0
  7 12  4  0
  7 13  1  0
  7 20  2  0
  7 21  2  0
  7 22  3  0
  7 23  1  0
  8  9  1  0
  8 14  4  0
  8 15  3  0
  8 17  1  0
  8 19  3  0
  8 20  2  0
  9 10  1  0
  9 13  3  0
  9 15  4  0
  9 18  1  0
 10 11  4  0
 10 17  2  0
 10 21  3  0
 10 22  2  0
 11 18  2  0
 12 14  1  0
 12 15  3  0
 12 16  3  0
 12 17  4  0
 12 18  2  0
 12 21  3  0
 12 23  3  0
 13 14  1  0
 13 15  4  0
 13 18  3  0
 13 21  4  0
 13 23  3  0
 14 15  1  0
 14 19  3  0
 14 21  3  0
 15 17  2  0
 15 23  4  0
 17 21  1  0
 17 23  4  0
 19 22  2  0
 19 23  3  0
 20 23  1  0
 21 23  4  0
M  END
$$$$

 Created by Python create_sdf_string function

 30 13  0  0  0  0  0  0  0  0999 V2000
    6.3053    6.9008   18.4742 C   0  0  0  0  0  0  0  0  0  0  0  0
    5.8564    8.0067   23.1605 O   0  0  0  0  0  0  0  0  0  0  0  0
    4.4101    7.5902   18.9370 O   0  0  0  0  0  0  0  0  0  0  0  0
   10.7468    6.1993   21.7982 C   0  0  0  0  0  0  0  0  0  0  0  0
    7.0739    7.2552   22.0515 C   0  0  0  0  0  0  0  0  0  0  0  0
    6.3471    7.8034   23.1356 C   0  0  0  0  0  0  0  0  0  0  0  0
    5.7926    7.8081   20.3664 C   0  0  0  0  0  0  0  0  0  0  0  0
    6.8340    6.4975   17.9517 C   0  0  0  0  0  0  0  0  0  0  0  0
    9.8129    7.4900   18.3440 C   0  0  0  0  0  0  0  0  0  0  0  0
    9.9989    5.9245   22.7065 C   0  0  0  0  0  0  0  0  0  0  0  0
    4.7505    6.0187   18.7984 O   0  0  0  0  0  0  0  0  0  0  0  0
   10.5405    5.1284   21.4726 C   0  0  0  0  0  0  0  0  0  0  0  0
    8.1855    6.4130   23.0309 C   0  0  0  0  0  0  0  0  0  0  0  0
   11.8654    6.9845   17.5512 C   0  0  0  0  0  0  0  0  0  0  0  0
   11.6442    7.1889   17.5570 C   0  0  0  0  0  0  0  0  0  0  0  0
    7.9660    7.8648   19.5079 C   0  0  0  0  0  0  0  0  0  0  0  0
    7.2093    8.8915   22.2935 O   0  0  0  0  0  0  0  0  0  0  0  0
   11.1786    4.0013   20.6235 N   0  0  0  0  0  0  0  0  0  0  0  0
    8.2318    8.8068   17.3804 C   0  0  0  0  0  0  0  0  0  0  0  0
    7.6518    8.2757   18.4903 C   0  0  0  0  0  0  0  0  0  0  0  0
   11.2790    6.3850   18.5016 C   0  0  0  0  0  0  0  0  0  0  0  0
   11.9264    5.4295   22.9595 C   0  0  0  0  0  0  0  0  0  0  0  0
   11.5911    5.4310   19.2786 C   0  0  0  0  0  0  0  0  0  0  0  0
    5.8300    7.0948   20.5020 C   0  0  0  0  0  0  0  0  0  0  0  0
   10.3458    7.8944   17.6620 C   0  0  0  0  0  0  0  0  0  0  0  0
    8.6271    8.7677   17.5609 C   0  0  0  0  0  0  0  0  0  0  0  0
   11.6390    4.4884   19.1542 C   0  0  0  0  0  0  0  0  0  0  0  0
    6.8256    9.4298   21.3902 C   0  0  0  0  0  0  0  0  0  0  0  0
    7.1902    8.4730   24.6299 O   0  0  0  0  0  0  0  0  0  0  0  0
   11.6244    5.3587   21.1557 C   0  0  0  0  0  0  0  0  0  0  0  0
  1  8  1  0
  2  6  1  0
  4 12  4  0
  7 24  4  0
  9 25  4  0
 14 15  4  0
 14 21  4  0
 15 25  4  0
 16 20  4  0
 17 28  1  0
 19 20  1  0
 21 23  4  0
 23 27  4  0
M  END
$$$$

 Created by Python create_sdf_string function

 30 52  0  0  0  0  0  0  0  0999 V2000
    6.5460    7.5871   23.1039 C   0  0  0  0  0  0  0  0  0  0  0  0
    5.2429    5.2182   18.8945 C   0  0  0  0  0  0  0  0  0  0  0  0
    8.9684    7.4793   17.9833 Cl  0  0  0  0  0  0  0  0  0  0  0  0
   11.4471    5.6774   22.7669 N   0  0  0  0  0  0  0  0  0  0  0  0
   10.1744    4.7266   20.4903 N   0  0  0  0  0  0  0  0  0  0  0  0
    9.4543    6.4748   21.8745 C   0  0  0  0  0  0  0  0  0  0  0  0
    8.6572    7.2822   20.6993 C   0  0  0  0  0  0  0  0  0  0  0  0
    6.3303    8.7741   22.6380 C   0  0  0  0  0  0  0  0  0  0  0  0
    7.5081    7.5854   17.7618 C   0  0  0  0  0  0  0  0  0  0  0  0
   12.7221    7.0625   17.5589 C   0  0  0  0  0  0  0  0  0  0  0  0
   12.5775    6.5578   22.1265 C   0  0  0  0  0  0  0  0  0  0  0  0
   11.4504    6.1516   19.6484 C   0  0  0  0  0  0  0  0  0  0  0  0
   10.2366    7.9704   17.9893 S   0  0  0  0  0  0  0  0  0  0  0  0
    9.1746    9.4577   18.1437 C   0  0  0  0  0  0  0  0  0  0  0  0
   10.6539    4.6985   18.6581 C   0  0  0  0  0  0  0  0  0  0  0  0
    8.2890    8.0222   22.8998 C   0  0  0  0  0  0  0  0  0  0  0  0
   12.3962    4.7474   21.1939 C   0  0  0  0  0  0  0  0  0  0  0  0
    6.2716    6.7699   17.1804 He  0  0  0  0  0  0  0  0  0  0  0  0
    6.9013    7.6525   23.0211 He  0  0  0  0  0  0  0  0  0  0  0  0
    3.5579    7.9521   19.5345 He  0  0  0  0  0  0  0  0  0  0  0  0
    9.5738    6.8147   22.3513 He  0  0  0  0  0  0  0  0  0  0  0  0
    6.5665    6.4106   21.3765 He  0  0  0  0  0  0  0  0  0  0  0  0
    6.3544    7.3526   20.1335 He  0  0  0  0  0  0  0  0  0  0  0  0
    4.7472    6.4408   19.0909 He  0  0  0  0  0  0  0  0  0  0  0  0
   11.3295    7.2623   17.5183 He  0  0  0  0  0  0  0  0  0  0  0  0
   10.7141    6.9054   17.8174 He  0  0  0  0  0  0  0  0  0  0  0  0
   10.9697    2.4775   21.5586 He  0  0  0  0  0  0  0  0  0  0  0  0
    8.4199    9.1179   16.1774 He  0  0  0  0  0  0  0  0  0  0  0  0
    6.3467    7.2548   21.6835 He  0  0  0  0  0  0  0  0  0  0  0  0
    7.5053    9.7227   22.3680 He  0  0  0  0  0  0  0  0  0  0  0  0
  1  2  2  0
  1  4  3  0
  1  8  4  0
  1 11  3  0
  1 12  2  0
  1 15  4  0
  2  3  3  0
  2  5  4  0
  2  8  4  0
  2 11  1  0
  2 14  2  0
  2 16  3  0
  2 17  3  0
  3  6  2  0
  3  7  1  0
  3  8  1  0
  3 13  1  0
  3 14  4  0
  3 15  4  0
  3 17  3  0
  4  5  2  0
  4  7  3  0
  4  8  4  0
  4 10  4  0
  4 14  1  0
  5 17  3  0
  6  8  3  0
  6 11  2  0
  6 12  3  0
  6 15  3  0
  7 10  1  0
  7 16  1  0
  8 10  4  0
  8 12  2  0
  8 13  3  0
  8 14  3  0
  9 14  2  0
  9 15  3  0
  9 17  4  0
 10 12  4  0
 10 13  4  0
 10 17  4  0
 11 13  4  0
 11 14  4  0
 11 15  4  0
 11 16  4  0
 12 13  3  0
 12 16  3  0
 12 17  1  0
 13 14  2  0
 14 16  1  0
 15 16  4  0
M  END
$$$$

 Created by Python create_sdf_string function

 30 14  0  0  0  0  0  0  0  0999 V2000
    6.5117    6.8851   18.0848 C   0  0  0  0  0  0  0  0  0  0  0  0
    7.1423    7.7836   23.1076 C   0  0  0  0  0  0  0  0  0  0  0  0
    4.2768    7.5969   19.4012 C   0  0  0  0  0  0  0  0  0  0  0  0
   10.0877    6.6635   22.3127 C   0  0  0  0  0  0  0  0  0  0  0  0
    6.4320    6.7012   20.8429 C   0  0  0  0  0  0  0  0  0  0  0  0
    6.2795    7.7453   23.3788 C   0  0  0  0  0  0  0  0  0  0  0  0
    6.2727    7.2381   20.0604 C   0  0  0  0  0  0  0  0  0  0  0  0
    5.4018    5.8361   18.6687 C   0  0  0  0  0  0  0  0  0  0  0  0
    9.0930    7.7686   18.0436 C   0  0  0  0  0  0  0  0  0  0  0  0
   11.3702    5.5719   22.6998 C   0  0  0  0  0  0  0  0  0  0  0  0
    4.7898    6.8357   19.0907 C   0  0  0  0  0  0  0  0  0  0  0  0
   10.6362    4.9432   20.7629 C   0  0  0  0  0  0  0  0  0  0  0  0
    9.6100    6.5116   22.0094 C   0  0  0  0  0  0  0  0  0  0  0  0
   11.5137    7.2872   17.5682 C   0  0  0  0  0  0  0  0  0  0  0  0
   10.7890    6.6895   18.0941 C   0  0  0  0  0  0  0  0  0  0  0  0
    8.7551    7.2114   21.1901 C   0  0  0  0  0  0  0  0  0  0  0  0
    6.4144    8.7319   22.4985 C   0  0  0  0  0  0  0  0  0  0  0  0
   11.0722    3.3406   21.1517 C   0  0  0  0  0  0  0  0  0  0  0  0
    8.3555    8.6739   16.6408 C   0  0  0  0  0  0  0  0  0  0  0  0
    7.3931    7.5198   17.9912 C   0  0  0  0  0  0  0  0  0  0  0  0
   12.4559    6.8095   17.9089 C   0  0  0  0  0  0  0  0  0  0  0  0
   11.8441    6.2873   21.9478 C   0  0  0  0  0  0  0  0  0  0  0  0
   11.5170    5.6759   19.5224 C   0  0  0  0  0  0  0  0  0  0  0  0
    6.2280    7.5921   21.7852 C   0  0  0  0  0  0  0  0  0  0  0  0
   10.1205    7.6720   17.8268 C   0  0  0  0  0  0  0  0  0  0  0  0
    8.8414    8.8157   17.6754 C   0  0  0  0  0  0  0  0  0  0  0  0
   10.9437    5.1665   18.5891 C   0  0  0  0  0  0  0  0  0  0  0  0
    7.2160    9.6092   22.3808 O   0  0  0  0  0  0  0  0  0  0  0  0
    8.2702    7.6835   22.5577 C   0  0  0  0  0  0  0  0  0  0  0  0
   11.8472    4.8917   20.9162 C   0  0  0  0  0  0  0  0  0  0  0  0
  1 20  4  0
  2  6  1  0
  3 11  4  0
  4 13  4  0
  5  7  4  0
  9 25  1  0
  9 26  4  0
 14 21  1  0
 15 25  1  0
 17 24  1  0
 17 28  1  0
 19 26  1  0
 23 27  4  0
 23 30  1  0
M  END
$$$$

 Created by Python create_sdf_string function

 30 57  0  0  0  0  0  0  0  0999 V2000
    5.8614    7.9017   24.0311 O   0  0  0  0  0  0  0  0  0  0  0  0
    4.2718    7.9465   19.3474 S   0  0  0  0  0  0  0  0  0  0  0  0
   10.0894    7.2002   22.3013 C   0  0  0  0  0  0  0  0  0  0  0  0
    5.3799    4.9849   20.0424 Se  0  0  0  0  0  0  0  0  0  0  0  0
    7.0776    6.3245   19.0507 C   0  0  0  0  0  0  0  0  0  0  0  0
   10.0719    6.9823   18.2074 O   0  0  0  0  0  0  0  0  0  0  0  0
   10.4527    4.5727   21.6940 C   0  0  0  0  0  0  0  0  0  0  0  0
    4.1852    6.4095   19.4104 F   0  0  0  0  0  0  0  0  0  0  0  0
   10.8686    5.3809   20.2889 Br  0  0  0  0  0  0  0  0  0  0  0  0
    9.9358    5.8105   18.6068 Br  0  0  0  0  0  0  0  0  0  0  0  0
    8.4448    7.6740   21.4596 F   0  0  0  0  0  0  0  0  0  0  0  0
    8.1675    8.1982   16.6360 N   0  0  0  0  0  0  0  0  0  0  0  0
   12.4265    7.5110   18.8142 C   0  0  0  0  0  0  0  0  0  0  0  0
   12.4614    4.9514   21.1818 O   0  0  0  0  0  0  0  0  0  0  0  0
   11.9303    6.1191   18.7315 C   0  0  0  0  0  0  0  0  0  0  0  0
    6.4152    7.7171   20.0436 C   0  0  0  0  0  0  0  0  0  0  0  0
    9.7805    8.5625   17.3621 C   0  0  0  0  0  0  0  0  0  0  0  0
   11.7927    4.3111   18.7083 C   0  0  0  0  0  0  0  0  0  0  0  0
    6.6957   10.3793   22.5157 F   0  0  0  0  0  0  0  0  0  0  0  0
    6.6985    6.5483   19.3073 He  0  0  0  0  0  0  0  0  0  0  0  0
    5.8690    8.7946   23.2782 He  0  0  0  0  0  0  0  0  0  0  0  0
    6.0930    5.7584   18.9263 He  0  0  0  0  0  0  0  0  0  0  0  0
    8.9473    6.8318   21.8706 He  0  0  0  0  0  0  0  0  0  0  0  0
   10.7861    8.3729   17.1202 He  0  0  0  0  0  0  0  0  0  0  0  0
    8.0156    8.0250   22.2641 He  0  0  0  0  0  0  0  0  0  0  0  0
   11.8441    3.5405   20.5626 He  0  0  0  0  0  0  0  0  0  0  0  0
    7.8003    6.6682   18.6447 He  0  0  0  0  0  0  0  0  0  0  0  0
    8.2814    7.8006   18.0246 He  0  0  0  0  0  0  0  0  0  0  0  0
    8.0444    8.4294   23.3901 He  0  0  0  0  0  0  0  0  0  0  0  0
   11.3895    3.4647   20.5782 He  0  0  0  0  0  0  0  0  0  0  0  0
  1  2  4  0
  1  3  1  0
  1  8  1  0
  1 11  1  0
  1 18  3  0
  2  5  3  0
  2  6  2  0
  2  8  1  0
  2  9  4  0
  2 12  3  0
  2 15  4  0
  2 16  3  0
  2 19  2  0
  3  7  1  0
  3 14  2  0
  4  6  2  0
  4 10  2  0
  4 14  3  0
  4 16  4  0
  4 18  1  0
  5  6  1  0
  5  7  4  0
  5  9  1  0
  5 17  2  0
  5 18  4  0
  6 12  4  0
  6 13  1  0
  6 18  2  0
  6 19  1  0
  7  8  4  0
  7 10  3  0
  7 14  3  0
  7 15  2  0
  8 11  1  0
  8 13  3  0
  8 16  3  0
  8 17  4  0
  8 18  3  0
  9 10  2  0
  9 11  1  0
  9 18  3  0
  9 19  2  0
 10 13  4  0
 10 16  3  0
 10 17  2  0
 10 18  2  0
 11 13  2  0
 11 14  2  0
 11 16  3  0
 12 16  4  0
 12 18  2  0
 14 17  1  0
 15 16  1  0
 15 17  1  0
 15 18  4  0
 16 17  3  0
 18 19  1  0
M  END
$$$$

 Created by Python create_sdf_string function

 30 17  0  0  0  0  0  0  0  0999 V2000
    6.8325    6.8423   19.0978 C   0  0  0  0  0  0  0  0  0  0  0  0
    5.9633    8.0816   23.6991 O   0  0  0  0  0  0  0  0  0  0  0  0
    4.6606    7.5754   19.3272 C   0  0  0  0  0  0  0  0  0  0  0  0
    9.7610    6.6455   22.1597 C   0  0  0  0  0  0  0  0  0  0  0  0
    5.3699    5.2627   19.7049 C   0  0  0  0  0  0  0  0  0  0  0  0
    6.6497    8.6140   23.1694 P   0  0  0  0  0  0  0  0  0  0  0  0
    6.8943    6.3070   18.8913 C   0  0  0  0  0  0  0  0  0  0  0  0
    5.6072    5.8487   18.9868 C   0  0  0  0  0  0  0  0  0  0  0  0
   10.3758    7.1284   18.1403 C   0  0  0  0  0  0  0  0  0  0  0  0
   10.8891    4.9141   21.7559 C   0  0  0  0  0  0  0  0  0  0  0  0
    4.1403    6.6701   19.2654 O   0  0  0  0  0  0  0  0  0  0  0  0
   11.3216    5.5329   20.3209 C   0  0  0  0  0  0  0  0  0  0  0  0
    8.8858    7.0883   22.1255 C   0  0  0  0  0  0  0  0  0  0  0  0
   10.6552    8.7506   16.9365 C   0  0  0  0  0  0  0  0  0  0  0  0
   10.3889    6.2676   18.6930 C   0  0  0  0  0  0  0  0  0  0  0  0
    8.2007    7.7474   21.0816 C   0  0  0  0  0  0  0  0  0  0  0  0
    7.7336    7.9819   22.1252 C   0  0  0  0  0  0  0  0  0  0  0  0
   11.4769    3.8994   20.4439 C   0  0  0  0  0  0  0  0  0  0  0  0
    8.4433    8.2789   16.7632 O   0  0  0  0  0  0  0  0  0  0  0  0
    7.8562    7.0021   18.5275 C   0  0  0  0  0  0  0  0  0  0  0  0
   11.8991    7.1144   18.4527 C   0  0  0  0  0  0  0  0  0  0  0  0
   11.9992    5.1951   21.6361 O   0  0  0  0  0  0  0  0  0  0  0  0
   11.6237    5.6956   18.7117 C   0  0  0  0  0  0  0  0  0  0  0  0
    6.1278    7.5762   20.0875 C   0  0  0  0  0  0  0  0  0  0  0  0
    9.9579    8.3814   17.2291 C   0  0  0  0  0  0  0  0  0  0  0  0
    8.2868    7.7845   17.6856 C   0  0  0  0  0  0  0  0  0  0  0  0
   11.5000    4.5698   19.0433 C   0  0  0  0  0  0  0  0  0  0  0  0
    6.7002    9.8652   22.5918 O   0  0  0  0  0  0  0  0  0  0  0  0
    7.8817    8.4580   23.6792 O   0  0  0  0  0  0  0  0  0  0  0  0
   11.3547    3.3759   20.6203 C   0  0  0  0  0  0  0  0  0  0  0  0
  1 20  4  0
  2  6  1  0
  3 11  1  0
  4 13  4  0
  5  8  4  0
  6 17  1  0
  6 28  1  0
  6 29  1  0
  9 15  4  0
 10 22  4  0
 13 17  1  0
 14 25  1  0
 18 27  4  0
 18 30  4  0
 19 26  1  0
 20 26  1  0
 23 27  4  0
M  END
$$$$

 Created by Python create_sdf_string function

 30 39  0  0  0  0  0  0  0  0999 V2000
    6.0363    6.3573   17.9589 O   0  0  0  0  0  0  0  0  0  0  0  0
    8.4466    5.6072   23.6156 C   0  0  0  0  0  0  0  0  0  0  0  0
    5.3050    8.5080   22.8471 F   0  0  0  0  0  0  0  0  0  0  0  0
    5.3442    6.2706   20.5553 C   0  0  0  0  0  0  0  0  0  0  0  0
   10.4244    6.7659   17.8078 C   0  0  0  0  0  0  0  0  0  0  0  0
   11.5384    5.1881   21.7555 C   0  0  0  0  0  0  0  0  0  0  0  0
    9.7048    7.0434   21.7888 F   0  0  0  0  0  0  0  0  0  0  0  0
   10.8526    9.4343   16.9038 C   0  0  0  0  0  0  0  0  0  0  0  0
    9.1416    7.2498   18.8278 N   0  0  0  0  0  0  0  0  0  0  0  0
    8.3573    8.9841   22.0652 C   0  0  0  0  0  0  0  0  0  0  0  0
    7.9782    8.6650   16.8868 O   0  0  0  0  0  0  0  0  0  0  0  0
   11.2216    5.5323   22.3038 S   0  0  0  0  0  0  0  0  0  0  0  0
    5.8509    7.5086   18.8226 S   0  0  0  0  0  0  0  0  0  0  0  0
    9.1965    8.2944   17.4763 P   0  0  0  0  0  0  0  0  0  0  0  0
    6.5624    8.9625   22.3111 C   0  0  0  0  0  0  0  0  0  0  0  0
    8.3189   10.5276   23.5009 F   0  0  0  0  0  0  0  0  0  0  0  0
    5.7927    7.4490   23.5683 He  0  0  0  0  0  0  0  0  0  0  0  0
    3.9269    8.2120   19.6913 He  0  0  0  0  0  0  0  0  0  0  0  0
    5.0159    4.2711   20.2606 He  0  0  0  0  0  0  0  0  0  0  0  0
    7.2767    5.7836   17.6717 He  0  0  0  0  0  0  0  0  0  0  0  0
    3.6269    7.8897   19.2623 He  0  0  0  0  0  0  0  0  0  0  0  0
   12.0382    7.3084   19.7849 He  0  0  0  0  0  0  0  0  0  0  0  0
    7.6261    8.7088   21.1165 He  0  0  0  0  0  0  0  0  0  0  0  0
   12.8736    4.7917   21.1864 He  0  0  0  0  0  0  0  0  0  0  0  0
    8.2724    6.9151   16.3180 He  0  0  0  0  0  0  0  0  0  0  0  0
   11.3238    6.7986   19.4662 He  0  0  0  0  0  0  0  0  0  0  0  0
   11.8925    5.2530   17.7846 He  0  0  0  0  0  0  0  0  0  0  0  0
    9.6474    9.3934   17.5144 He  0  0  0  0  0  0  0  0  0  0  0  0
   12.1211    6.3521   19.3773 He  0  0  0  0  0  0  0  0  0  0  0  0
   12.1035    4.0842   21.6073 He  0  0  0  0  0  0  0  0  0  0  0  0
  1  3  4  0
  1  7  1  0
  1  9  4  0
  1 13  4  0
  1 16  3  0
  2  3  4  0
  2  4  1  0
  2  5  4  0
  2 12  4  0
  2 15  4  0
  3  6  4  0
  3  8  4  0
  3 10  1  0
  3 13  4  0
  3 16  2  0
  4  7  3  0
  4  9  1  0
  4 11  1  0
  4 12  4  0
  4 13  3  0
  4 15  1  0
  5  7  4  0
  5  9  4  0
  5 12  2  0
  5 13  4  0
  6  7  2  0
  6 15  1  0
  7 11  3  0
  7 16  2  0
  8 10  3  0
  8 15  4  0
  8 16  3  0
  9 12  4  0
  9 16  3  0
 10 11  2  0
 11 14  1  0
 12 13  4  0
 12 14  3  0
 13 16  4  0
M  END
$$$$

 Created by Python create_sdf_string function

 30 13  0  0  0  0  0  0  0  0999 V2000
    6.2365    6.4483   18.3573 C   0  0  0  0  0  0  0  0  0  0  0  0
    6.0987    7.7216   23.2254 C   0  0  0  0  0  0  0  0  0  0  0  0
    4.5049    7.7231   19.8245 O   0  0  0  0  0  0  0  0  0  0  0  0
    8.6834    6.7333   22.8724 C   0  0  0  0  0  0  0  0  0  0  0  0
    4.9913    5.5947   19.7712 C   0  0  0  0  0  0  0  0  0  0  0  0
    5.9836    8.2965   22.6612 C   0  0  0  0  0  0  0  0  0  0  0  0
    7.1254    6.2185   17.8151 C   0  0  0  0  0  0  0  0  0  0  0  0
    5.4485    6.7341   20.4420 C   0  0  0  0  0  0  0  0  0  0  0  0
   10.2128    7.0700   17.9913 C   0  0  0  0  0  0  0  0  0  0  0  0
   11.0568    5.8760   21.6614 C   0  0  0  0  0  0  0  0  0  0  0  0
    4.1835    7.3077   19.4012 C   0  0  0  0  0  0  0  0  0  0  0  0
   11.5276    6.5693   19.9172 C   0  0  0  0  0  0  0  0  0  0  0  0
    9.5373    7.0362   21.9422 C   0  0  0  0  0  0  0  0  0  0  0  0
   10.5128    8.8947   17.3234 C   0  0  0  0  0  0  0  0  0  0  0  0
    9.3440    6.9805   18.3787 C   0  0  0  0  0  0  0  0  0  0  0  0
    7.5097    8.4669   21.5644 C   0  0  0  0  0  0  0  0  0  0  0  0
    7.9657    8.7251   22.4068 C   0  0  0  0  0  0  0  0  0  0  0  0
   12.5177    4.9501   20.7532 C   0  0  0  0  0  0  0  0  0  0  0  0
    8.1289    8.7676   16.9483 O   0  0  0  0  0  0  0  0  0  0  0  0
    8.1061    6.9985   17.0195 C   0  0  0  0  0  0  0  0  0  0  0  0
   11.1489    6.7589   19.3791 C   0  0  0  0  0  0  0  0  0  0  0  0
   10.9081    5.6514   22.1571 C   0  0  0  0  0  0  0  0  0  0  0  0
   11.9592    5.6736   18.2855 O   0  0  0  0  0  0  0  0  0  0  0  0
    5.7876    7.1467   18.9046 C   0  0  0  0  0  0  0  0  0  0  0  0
    9.8675    9.0121   17.4336 C   0  0  0  0  0  0  0  0  0  0  0  0
    8.6684    8.1909   17.1908 C   0  0  0  0  0  0  0  0  0  0  0  0
   12.0756    5.8263   19.6005 C   0  0  0  0  0  0  0  0  0  0  0  0
    6.7996    8.3545   22.3594 C   0  0  0  0  0  0  0  0  0  0  0  0
    8.0636    9.7565   23.0396 C   0  0  0  0  0  0  0  0  0  0  0  0
   12.4479    4.6161   21.3814 C   0  0  0  0  0  0  0  0  0  0  0  0
  1 24  4  0
  2  6  1  0
  3 11  4  0
  4 13  4  0
  5  8  4  0
  9 15  4  0
 10 22  4  0
 14 25  4  0
 17 29  1  0
 18 27  4  0
 18 30  4  0
 19 26  1  0
 20 26  4  0
M  END
$$$$

 Created by Python create_sdf_string function

 30 48  0  0  0  0  0  0  0  0999 V2000
    6.7187    5.4525   18.8631 O   0  0  0  0  0  0  0  0  0  0  0  0
    5.6809    7.0754   21.5345 F   0  0  0  0  0  0  0  0  0  0  0  0
    4.5452    8.2972   18.5180 O   0  0  0  0  0  0  0  0  0  0  0  0
    8.8179    7.6898   22.9608 C   0  0  0  0  0  0  0  0  0  0  0  0
    5.1867    5.5072   20.4980 C   0  0  0  0  0  0  0  0  0  0  0  0
    7.2855    6.6734   17.0550 C   0  0  0  0  0  0  0  0  0  0  0  0
    4.8200    7.1517   20.8602 C   0  0  0  0  0  0  0  0  0  0  0  0
   11.0501    7.1064   17.9468 C   0  0  0  0  0  0  0  0  0  0  0  0
   10.9054    5.7235   22.1151 B   0  0  0  0  0  0  0  0  0  0  0  0
   11.0873    7.8358   19.8405 C   0  0  0  0  0  0  0  0  0  0  0  0
    6.5061    8.5098   21.1424 I   0  0  0  0  0  0  0  0  0  0  0  0
   13.0510    4.7698   19.8217 F   0  0  0  0  0  0  0  0  0  0  0  0
   10.6775    7.9699   19.7008 C   0  0  0  0  0  0  0  0  0  0  0  0
   10.0224    6.7841   22.6607 S   0  0  0  0  0  0  0  0  0  0  0  0
    5.2815    7.1759   20.2474 C   0  0  0  0  0  0  0  0  0  0  0  0
    9.8726    9.8736   17.6304 C   0  0  0  0  0  0  0  0  0  0  0  0
   13.3716    5.2276   19.9247 Cl  0  0  0  0  0  0  0  0  0  0  0  0
    8.1091    9.9600   23.6424 S   0  0  0  0  0  0  0  0  0  0  0  0
   12.0943    4.6791   21.0697 O   0  0  0  0  0  0  0  0  0  0  0  0
    5.3154    9.1943   22.6872 He  0  0  0  0  0  0  0  0  0  0  0  0
    4.4591    6.0341   20.1878 He  0  0  0  0  0  0  0  0  0  0  0  0
    8.9056    7.2894   21.4821 He  0  0  0  0  0  0  0  0  0  0  0  0
   10.9843    9.4135   15.4344 He  0  0  0  0  0  0  0  0  0  0  0  0
   10.3050    5.9629   17.7804 He  0  0  0  0  0  0  0  0  0  0  0  0
    8.1963    8.2980   22.2551 He  0  0  0  0  0  0  0  0  0  0  0  0
    8.2001    8.2960   17.0494 He  0  0  0  0  0  0  0  0  0  0  0  0
    7.6831    6.0477   17.5821 He  0  0  0  0  0  0  0  0  0  0  0  0
   12.3008    5.1409   18.3954 He  0  0  0  0  0  0  0  0  0  0  0  0
    7.3855    7.9810   16.4318 He  0  0  0  0  0  0  0  0  0  0  0  0
    5.6902    8.7397   22.2437 He  0  0  0  0  0  0  0  0  0  0  0  0
  1  2  3  0
  1 15  4  0
  1 17  1  0
  1 19  4  0
  2  3  3  0
  2 14  1  0
  2 18  4  0
  3  4  2  0
  3  7  4  0
  3 13  1  0
  3 14  3  0
  4  8  2  0
  4 10  2  0
  4 12  2  0
  4 14  3  0
  4 18  3  0
  4 19  1  0
  5  7  4  0
  5 11  4  0
  5 14  4  0
  5 17  2  0
  6  7  3  0
  6 10  4  0
  6 19  3  0
  7  8  2  0
  7  9  4  0
  7 11  3  0
  7 16  2  0
  7 19  4  0
  8  9  2  0
  8 17  3  0
  9 11  4  0
  9 14  4  0
  9 19  4  0
 10 12  1  0
 10 19  2  0
 11 12  1  0
 11 14  4  0
 12 13  2  0
 12 14  4  0
 12 19  4  0
 13 14  2  0
 14 15  2  0
 14 17  2  0
 14 19  1  0
 15 18  3  0
 16 18  1  0
 16 19  2  0
M  END
$$$$

 Created by Python create_sdf_string function

 30 19  0  0  0  0  0  0  0  0999 V2000
    6.5855    6.1169   18.6453 C   0  0  0  0  0  0  0  0  0  0  0  0
    5.6333    7.0607   21.5618 C   0  0  0  0  0  0  0  0  0  0  0  0
    5.0191    8.0416   19.0405 C   0  0  0  0  0  0  0  0  0  0  0  0
    8.9167    7.7543   22.7299 C   0  0  0  0  0  0  0  0  0  0  0  0
    5.3744    6.0461   20.5319 C   0  0  0  0  0  0  0  0  0  0  0  0
    5.9412    8.8912   22.7078 C   0  0  0  0  0  0  0  0  0  0  0  0
    7.5869    7.1081   17.6182 C   0  0  0  0  0  0  0  0  0  0  0  0
    4.9946    7.2072   20.3822 C   0  0  0  0  0  0  0  0  0  0  0  0
   10.6777    7.3688   17.6120 C   0  0  0  0  0  0  0  0  0  0  0  0
   11.0033    5.8261   21.9050 C   0  0  0  0  0  0  0  0  0  0  0  0
    4.5261    6.3027   19.7296 C   0  0  0  0  0  0  0  0  0  0  0  0
   10.8264    7.0011   20.1999 C   0  0  0  0  0  0  0  0  0  0  0  0
    9.2435    7.8456   21.4531 C   0  0  0  0  0  0  0  0  0  0  0  0
   10.3593    8.9347   16.5486 C   0  0  0  0  0  0  0  0  0  0  0  0
   10.2042    6.7231   17.5650 C   0  0  0  0  0  0  0  0  0  0  0  0
    6.3015    8.3911   21.2482 C   0  0  0  0  0  0  0  0  0  0  0  0
    8.2730    8.3391   22.5705 C   0  0  0  0  0  0  0  0  0  0  0  0
   12.4362    5.3675   19.8138 C   0  0  0  0  0  0  0  0  0  0  0  0
    8.3972    7.8220   17.2159 C   0  0  0  0  0  0  0  0  0  0  0  0
    7.4116    6.0951   17.8064 C   0  0  0  0  0  0  0  0  0  0  0  0
   10.4118    7.4757   20.5401 C   0  0  0  0  0  0  0  0  0  0  0  0
   10.2180    6.4957   22.4695 C   0  0  0  0  0  0  0  0  0  0  0  0
   12.2949    5.3412   18.6355 O   0  0  0  0  0  0  0  0  0  0  0  0
    5.7038    6.8702   19.2177 C   0  0  0  0  0  0  0  0  0  0  0  0
    9.8026    9.1887   17.1207 C   0  0  0  0  0  0  0  0  0  0  0  0
    8.3788    7.9096   16.9074 C   0  0  0  0  0  0  0  0  0  0  0  0
   13.0959    5.2649   20.0010 O   0  0  0  0  0  0  0  0  0  0  0  0
    5.7910    8.8616   22.3899 C   0  0  0  0  0  0  0  0  0  0  0  0
    7.9605    9.3848   23.3142 C   0  0  0  0  0  0  0  0  0  0  0  0
   11.9026    5.2926   21.0727 C   0  0  0  0  0  0  0  0  0  0  0  0
  1 20  4  0
  1 24  4  0
  4 13  4  0
  4 17  1  0
  4 22  4  0
  5  8  4  0
  6 28  1  0
  7 19  4  0
  9 15  4  0
 10 22  4  0
 10 30  4  0
 12 21  4  0
 13 17  1  0
 13 21  4  0
 14 25  4  0
 17 29  1  0
 18 23  2  0
 18 27  1  0
 18 30  1  0
M  END
$$$$

 Created by Python create_sdf_string function

 30 67  0  0  0  0  0  0  0  0999 V2000
    5.3338    6.2596   19.5242 C   0  0  0  0  0  0  0  0  0  0  0  0
    4.6369    7.7329   19.4356 C   0  0  0  0  0  0  0  0  0  0  0  0
    9.7913    6.5442   22.5759 F   0  0  0  0  0  0  0  0  0  0  0  0
    4.9230    5.1439   19.9731 C   0  0  0  0  0  0  0  0  0  0  0  0
    5.0207    8.5895   22.9571 C   0  0  0  0  0  0  0  0  0  0  0  0
    7.9744    7.7215   17.3335 O   0  0  0  0  0  0  0  0  0  0  0  0
   10.2922    8.3014   16.6439 C   0  0  0  0  0  0  0  0  0  0  0  0
   11.9671    7.2421   20.1835 F   0  0  0  0  0  0  0  0  0  0  0  0
    9.9887    8.0335   20.8393 Cl  0  0  0  0  0  0  0  0  0  0  0  0
   10.1107    6.4658   16.6554 C   0  0  0  0  0  0  0  0  0  0  0  0
    5.3732    8.8163   20.9044 C   0  0  0  0  0  0  0  0  0  0  0  0
    8.3913    8.5268   23.3337 Cl  0  0  0  0  0  0  0  0  0  0  0  0
   12.5071    5.5462   20.1656 C   0  0  0  0  0  0  0  0  0  0  0  0
    6.9118    6.1250   17.7797 C   0  0  0  0  0  0  0  0  0  0  0  0
   11.3950    7.7931   19.2662 Cl  0  0  0  0  0  0  0  0  0  0  0  0
   12.5264    5.6090   18.8209 C   0  0  0  0  0  0  0  0  0  0  0  0
    5.0346    7.4701   19.2165 B   0  0  0  0  0  0  0  0  0  0  0  0
    9.4137    8.3537   16.6330 P   0  0  0  0  0  0  0  0  0  0  0  0
   13.1192    5.2960   21.2504 N   0  0  0  0  0  0  0  0  0  0  0  0
    6.7453    8.8613   23.3015 O   0  0  0  0  0  0  0  0  0  0  0  0
    8.8611   10.1170   24.3466 N   0  0  0  0  0  0  0  0  0  0  0  0
   12.8845    5.1950   22.2635 C   0  0  0  0  0  0  0  0  0  0  0  0
    6.3016    6.0767   21.0441 He  0  0  0  0  0  0  0  0  0  0  0  0
    4.4646    7.2977   21.2285 He  0  0  0  0  0  0  0  0  0  0  0  0
   10.1074    5.9925   22.4599 He  0  0  0  0  0  0  0  0  0  0  0  0
    3.5022    5.4596   19.7109 He  0  0  0  0  0  0  0  0  0  0  0  0
    9.8767   10.2382   16.8125 He  0  0  0  0  0  0  0  0  0  0  0  0
    7.3511    7.9459   18.8287 He  0  0  0  0  0  0  0  0  0  0  0  0
    9.8356    6.1491   22.4740 He  0  0  0  0  0  0  0  0  0  0  0  0
    8.4383    7.8530   16.8624 He  0  0  0  0  0  0  0  0  0  0  0  0
  1  3  4  0
  1  6  4  0
  1  7  4  0
  1  9  1  0
  1 15  3  0
  1 20  4  0
  2  3  3  0
  2  8  4  0
  2  9  1  0
  2 11  1  0
  2 15  4  0
  2 16  4  0
  2 18  2  0
  3  6  1  0
  3  7  1  0
  3  9  3  0
  3 15  2  0
  3 21  4  0
  3 22  4  0
  4  7  2  0
  4  8  2  0
  4  9  4  0
  4 11  4  0
  4 12  3  0
  4 14  4  0
  5  9  2  0
  5 15  2  0
  5 21  1  0
  6  7  2  0
  6 10  3  0
  6 13  3  0
  6 18  1  0
  6 19  4  0
  6 20  4  0
  7  9  4  0
  7 14  1  0
  7 19  2  0
  7 20  2  0
  7 21  2  0
  8  9  3  0
  8 10  2  0
  8 15  4  0
  8 18  3  0
  9 10  2  0
  9 12  1  0
  9 15  4  0
  9 17  3  0
  9 20  3  0
 10 14  3  0
 10 15  3  0
 11 13  2  0
 11 18  1  0
 11 19  1  0
 11 22  2  0
 12 14  2  0
 12 15  1  0
 12 19  2  0
 12 21  1  0
 13 14  2  0
 14 19  1  0
 14 22  4  0
 15 19  4  0
 15 21  3  0
 15 22  2  0
 17 18  2  0
 19 20  2  0
 21 22  3  0
M  END
$$$$

 Created by Python create_sdf_string function

 30 16  0  0  0  0  0  0  0  0999 V2000
    5.6561    6.3374   19.2509 C   0  0  0  0  0  0  0  0  0  0  0  0
    6.1803    6.4692   21.0823 C   0  0  0  0  0  0  0  0  0  0  0  0
    5.1488    7.9872   19.5402 C   0  0  0  0  0  0  0  0  0  0  0  0
   10.2802    6.4772   22.5918 C   0  0  0  0  0  0  0  0  0  0  0  0
    4.8065    5.7459   19.7211 C   0  0  0  0  0  0  0  0  0  0  0  0
    5.8101    8.3100   22.6755 C   0  0  0  0  0  0  0  0  0  0  0  0
    8.2520    7.8798   17.4541 O   0  0  0  0  0  0  0  0  0  0  0  0
    4.9124    7.4669   21.5657 C   0  0  0  0  0  0  0  0  0  0  0  0
   10.6068    7.8730   17.2695 C   0  0  0  0  0  0  0  0  0  0  0  0
   10.1717    6.5813   22.4479 C   0  0  0  0  0  0  0  0  0  0  0  0
    3.7407    5.5322   19.6243 O   0  0  0  0  0  0  0  0  0  0  0  0
   11.2501    6.9548   20.2677 C   0  0  0  0  0  0  0  0  0  0  0  0
    9.8715    7.9105   21.2390 C   0  0  0  0  0  0  0  0  0  0  0  0
    9.6269    9.6612   16.8384 O   0  0  0  0  0  0  0  0  0  0  0  0
   10.4797    6.8270   17.6453 C   0  0  0  0  0  0  0  0  0  0  0  0
    5.5857    8.2927   20.9974 C   0  0  0  0  0  0  0  0  0  0  0  0
    8.3612    8.2596   23.1048 C   0  0  0  0  0  0  0  0  0  0  0  0
   12.3161    5.8834   20.5303 C   0  0  0  0  0  0  0  0  0  0  0  0
    7.2017    7.7983   18.5592 C   0  0  0  0  0  0  0  0  0  0  0  0
    6.6515    6.3285   18.1388 C   0  0  0  0  0  0  0  0  0  0  0  0
   11.1250    7.2742   19.5582 C   0  0  0  0  0  0  0  0  0  0  0  0
    9.9981    6.6541   22.4794 C   0  0  0  0  0  0  0  0  0  0  0  0
   12.0381    6.2497   18.6467 C   0  0  0  0  0  0  0  0  0  0  0  0
    5.3175    7.5869   19.1650 C   0  0  0  0  0  0  0  0  0  0  0  0
    9.3394    8.5266   17.0007 P   0  0  0  0  0  0  0  0  0  0  0  0
    8.7171    7.8187   16.6264 O   0  0  0  0  0  0  0  0  0  0  0  0
   13.0756    5.3105   20.7842 N   0  0  0  0  0  0  0  0  0  0  0  0
    6.5934    8.7131   23.0676 O   0  0  0  0  0  0  0  0  0  0  0  0
    8.4031    9.0502   23.6209 C   0  0  0  0  0  0  0  0  0  0  0  0
   12.1650    5.4367   22.1199 C   0  0  0  0  0  0  0  0  0  0  0  0
  1  5  1  0
  3 16  1  0
  3 24  1  0
  4 10  4  0
  4 22  4  0
  4 30  4  0
  5 11  1  0
  6  8  1  0
  6 28  1  0
  7 25  1  0
 10 22  4  0
 12 18  4  0
 12 21  4  0
 14 25  1  0
 17 29  1  0
 18 27  4  0
M  END
$$$$

 Created by Python create_sdf_string function

 30 70  0  0  0  0  0  0  0  0999 V2000
    4.9552    5.6747   17.8424 P   0  0  0  0  0  0  0  0  0  0  0  0
    6.4862    6.8437   21.0190 S   0  0  0  0  0  0  0  0  0  0  0  0
    4.5969    7.1879   19.9190 C   0  0  0  0  0  0  0  0  0  0  0  0
    3.9239    5.7897   20.1885 C   0  0  0  0  0  0  0  0  0  0  0  0
    7.9442    7.7676   16.6737 C   0  0  0  0  0  0  0  0  0  0  0  0
   10.7879    7.3097   18.0265 C   0  0  0  0  0  0  0  0  0  0  0  0
    3.0007    6.6164   20.5533 Cl  0  0  0  0  0  0  0  0  0  0  0  0
   12.3212    6.5298   20.5687 C   0  0  0  0  0  0  0  0  0  0  0  0
    9.4133    8.7021   20.5917 Se  0  0  0  0  0  0  0  0  0  0  0  0
    9.5406    8.7070   16.2133 O   0  0  0  0  0  0  0  0  0  0  0  0
    9.9163    7.9303   17.6123 C   0  0  0  0  0  0  0  0  0  0  0  0
    5.5697    9.4771   21.5933 C   0  0  0  0  0  0  0  0  0  0  0  0
    8.5265    7.7206   21.2681 C   0  0  0  0  0  0  0  0  0  0  0  0
   11.6277    7.5568   18.6653 O   0  0  0  0  0  0  0  0  0  0  0  0
   10.3157    6.2923   22.6087 C   0  0  0  0  0  0  0  0  0  0  0  0
   13.2435    6.8688   19.6330 O   0  0  0  0  0  0  0  0  0  0  0  0
    5.2276    8.1093   18.5496 O   0  0  0  0  0  0  0  0  0  0  0  0
    9.2333   10.0778   16.6459 P   0  0  0  0  0  0  0  0  0  0  0  0
    8.5025    7.1879   14.9614 O   0  0  0  0  0  0  0  0  0  0  0  0
    6.8318    8.0430   23.2219 S   0  0  0  0  0  0  0  0  0  0  0  0
    9.9258   10.1220   23.5154 Cl  0  0  0  0  0  0  0  0  0  0  0  0
   12.0589    5.3944   23.0177 C   0  0  0  0  0  0  0  0  0  0  0  0
   11.8749    7.4551   22.4330 He  0  0  0  0  0  0  0  0  0  0  0  0
    5.2186    9.3216   21.6141 He  0  0  0  0  0  0  0  0  0  0  0  0
    5.2293    7.4525   21.2224 He  0  0  0  0  0  0  0  0  0  0  0  0
   10.8320    6.3016   22.6698 He  0  0  0  0  0  0  0  0  0  0  0  0
   11.2251    6.4504   19.4101 He  0  0  0  0  0  0  0  0  0  0  0  0
    7.5539    8.6144   19.4747 He  0  0  0  0  0  0  0  0  0  0  0  0
    6.2696    6.1722   18.1115 He  0  0  0  0  0  0  0  0  0  0  0  0
   13.0745    7.2908   22.9355 He  0  0  0  0  0  0  0  0  0  0  0  0
  1  4  1  0
  1  7  1  0
  1  8  4  0
  1  9  2  0
  1 11  3  0
  1 14  4  0
  1 19  4  0
  1 20  4  0
  1 22  3  0
  2  4  2  0
  2  5  2  0
  2  7  1  0
  2  8  1  0
  2 10  3  0
  2 11  4  0
  2 13  1  0
  2 22  3  0
  3  5  3  0
  3  6  4  0
  3 17  4  0
  4  7  1  0
  4 11  1  0
  4 12  3  0
  4 14  1  0
  4 15  1  0
  4 19  1  0
  5 10  4  0
  5 15  4  0
  5 16  3  0
  5 21  4  0
  6  7  2  0
  6 16  2  0
  6 19  3  0
  7 11  3  0
  7 16  3  0
  7 18  4  0
  7 19  2  0
  7 22  3  0
  8 12  2  0
  8 15  3  0
  8 17  4  0
  8 19  1  0
  8 21  2  0
  9 12  1  0
  9 15  1  0
  9 18  3  0
 10 14  4  0
 10 18  1  0
 10 21  4  0
 11 13  2  0
 11 17  1  0
 11 21  1  0
 11 22  1  0
 12 14  4  0
 12 22  2  0
 13 16  3  0
 13 22  1  0
 14 19  1  0
 14 22  4  0
 15 16  4  0
 15 17  4  0
 15 18  2  0
 16 22  1  0
 17 21  2  0
 17 22  1  0
 18 20  4  0
 18 22  4  0
 19 20  4  0
 19 21  4  0
 21 22  2  0
M  END
$$$$

 Created by Python create_sdf_string function

 30 16  0  0  0  0  0  0  0  0999 V2000
    4.7875    6.0448   18.8801 C   0  0  0  0  0  0  0  0  0  0  0  0
    6.9470    7.4192   20.7370 C   0  0  0  0  0  0  0  0  0  0  0  0
    5.0720    7.5148   19.8664 C   0  0  0  0  0  0  0  0  0  0  0  0
   11.6647    7.1630   22.6377 P   0  0  0  0  0  0  0  0  0  0  0  0
    3.9899    5.9464   19.5644 C   0  0  0  0  0  0  0  0  0  0  0  0
    5.2554    8.8170   21.7878 O   0  0  0  0  0  0  0  0  0  0  0  0
    8.4193    7.8738   16.8841 C   0  0  0  0  0  0  0  0  0  0  0  0
    5.4778    7.8200   21.0453 C   0  0  0  0  0  0  0  0  0  0  0  0
   10.5706    7.3472   18.4733 C   0  0  0  0  0  0  0  0  0  0  0  0
   10.6678    6.7487   22.2215 C   0  0  0  0  0  0  0  0  0  0  0  0
    3.2432    6.4664   20.3357 O   0  0  0  0  0  0  0  0  0  0  0  0
   11.7559    6.7392   20.6892 C   0  0  0  0  0  0  0  0  0  0  0  0
    9.3303    8.0616   20.6206 C   0  0  0  0  0  0  0  0  0  0  0  0
    9.3344    8.4872   16.3272 C   0  0  0  0  0  0  0  0  0  0  0  0
    9.9338    7.7778   17.6567 C   0  0  0  0  0  0  0  0  0  0  0  0
    6.0451    8.9237   21.7282 C   0  0  0  0  0  0  0  0  0  0  0  0
    8.4384    7.6320   21.3467 C   0  0  0  0  0  0  0  0  0  0  0  0
   11.5014    6.9700   19.3592 C   0  0  0  0  0  0  0  0  0  0  0  0
    7.4628    8.0231   19.5203 C   0  0  0  0  0  0  0  0  0  0  0  0
    6.0353    6.2322   18.3788 O   0  0  0  0  0  0  0  0  0  0  0  0
   11.5121    7.5588   18.5746 O   0  0  0  0  0  0  0  0  0  0  0  0
   10.3550    6.8419   21.9686 C   0  0  0  0  0  0  0  0  0  0  0  0
   12.9351    6.5420   19.6371 O   0  0  0  0  0  0  0  0  0  0  0  0
    5.2791    8.1615   18.8477 O   0  0  0  0  0  0  0  0  0  0  0  0
    9.1488    9.3937   16.4358 O   0  0  0  0  0  0  0  0  0  0  0  0
    8.2841    7.3518   15.5551 O   0  0  0  0  0  0  0  0  0  0  0  0
   12.6671    7.4117   22.8689 O   0  0  0  0  0  0  0  0  0  0  0  0
    6.7088    8.3748   22.9399 O   0  0  0  0  0  0  0  0  0  0  0  0
   10.1912    8.8569   23.1984 O   0  0  0  0  0  0  0  0  0  0  0  0
   12.0540    5.6700   22.9383 O   0  0  0  0  0  0  0  0  0  0  0  0
  1  5  1  0
  2 17  1  0
  3  8  1  0
  3 24  4  0
  4 10  1  0
  4 27  1  0
  4 30  1  0
  5 11  1  0
  6  8  1  0
  7 14  1  0
  9 15  1  0
  9 18  1  0
 10 22  1  0
 12 18  1  0
 13 22  1  0
 14 25  1  0
M  END
$$$$

 Created by Python create_sdf_string function

 30 72  0  0  0  0  0  0  0  0999 V2000
    7.6972    7.1155   21.8002 C   0  0  0  0  0  0  0  0  0  0  0  0
    4.4261    6.7035   20.3257 C   0  0  0  0  0  0  0  0  0  0  0  0
   11.0755    7.6763   22.5036 N   0  0  0  0  0  0  0  0  0  0  0  0
    3.0141    6.0123   19.7500 C   0  0  0  0  0  0  0  0  0  0  0  0
    5.5883    9.1436   21.9246 C   0  0  0  0  0  0  0  0  0  0  0  0
    8.0942    8.3591   16.7678 C   0  0  0  0  0  0  0  0  0  0  0  0
    6.2402    7.6905   21.9664 O   0  0  0  0  0  0  0  0  0  0  0  0
   11.0203    7.3804   17.7916 C   0  0  0  0  0  0  0  0  0  0  0  0
   11.3849    6.3453   22.6000 C   0  0  0  0  0  0  0  0  0  0  0  0
    4.0204    6.1866   19.3059 O   0  0  0  0  0  0  0  0  0  0  0  0
   11.0468    8.2336   20.4860 O   0  0  0  0  0  0  0  0  0  0  0  0
    8.5036    8.0888   16.1384 C   0  0  0  0  0  0  0  0  0  0  0  0
    6.9889    8.6580   20.8689 C   0  0  0  0  0  0  0  0  0  0  0  0
    6.9153    7.0254   20.9095 F   0  0  0  0  0  0  0  0  0  0  0  0
   11.2324    8.1709   19.6456 O   0  0  0  0  0  0  0  0  0  0  0  0
    8.3179    8.0586   18.6967 C   0  0  0  0  0  0  0  0  0  0  0  0
    6.7178    7.4032   20.0946 O   0  0  0  0  0  0  0  0  0  0  0  0
   11.1163    8.5933   18.7233 F   0  0  0  0  0  0  0  0  0  0  0  0
    9.6611    6.7369   21.9097 Cl  0  0  0  0  0  0  0  0  0  0  0  0
   11.8830    6.4854   19.7486 O   0  0  0  0  0  0  0  0  0  0  0  0
    5.3179    8.6630   19.3046 O   0  0  0  0  0  0  0  0  0  0  0  0
    9.2995   10.1748   17.7849 F   0  0  0  0  0  0  0  0  0  0  0  0
    8.2191    7.8361   15.7344 B   0  0  0  0  0  0  0  0  0  0  0  0
   12.3389    6.9630   23.0652 O   0  0  0  0  0  0  0  0  0  0  0  0
   12.0347    5.3835   24.4492 O   0  0  0  0  0  0  0  0  0  0  0  0
    5.3208    6.8861   19.2175 He  0  0  0  0  0  0  0  0  0  0  0  0
    9.6280    7.5668   20.0793 He  0  0  0  0  0  0  0  0  0  0  0  0
   10.7911    8.3740   17.9649 He  0  0  0  0  0  0  0  0  0  0  0  0
    5.9342    8.7284   23.1472 He  0  0  0  0  0  0  0  0  0  0  0  0
    9.2292    8.5467   22.6510 He  0  0  0  0  0  0  0  0  0  0  0  0
  1  4  4  0
  1 17  3  0
  2  4  1  0
  2  8  2  0
  2 14  1  0
  2 16  4  0
  2 22  3  0
  2 23  1  0
  3  5  4  0
  3 10  1  0
  3 23  3  0
  4  7  3  0
  4  8  4  0
  4 10  3  0
  4 13  3  0
  4 15  3  0
  4 18  3  0
  5 10  2  0
  5 12  4  0
  5 13  4  0
  5 16  1  0
  5 18  1  0
  5 19  2  0
  5 22  2  0
  6 15  4  0
  6 16  4  0
  6 18  2  0
  7  9  3  0
  7 11  1  0
  7 12  3  0
  7 14  2  0
  7 16  1  0
  7 22  2  0
  8  9  3  0
  8 10  3  0
  8 11  3  0
  8 13  3  0
  8 15  1  0
  8 17  4  0
  8 23  3  0
  9 10  3  0
  9 14  3  0
  9 19  1  0
  9 25  3  0
 10 12  1  0
 10 23  3  0
 11 13  4  0
 11 15  1  0
 11 20  1  0
 12 19  4  0
 12 23  4  0
 13 20  4  0
 13 22  1  0
 14 17  1  0
 14 19  1  0
 14 22  4  0
 15 16  1  0
 15 18  1  0
 15 21  4  0
 15 25  2  0
 16 19  3  0
 16 22  3  0
 17 18  3  0
 18 20  2  0
 18 22  3  0
 18 24  4  0
 18 25  4  0
 19 20  1  0
 19 25  3  0
 20 23  4  0
 21 24  2  0
 23 25  2  0
M  END
$$$$

 Created by Python create_sdf_string function

 30 25  0  0  0  0  0  0  0  0999 V2000
    5.3775    6.5666   19.2186 C   0  0  0  0  0  0  0  0  0  0  0  0
    7.7408    7.3328   21.8592 C   0  0  0  0  0  0  0  0  0  0  0  0
    4.7221    6.9936   20.1472 C   0  0  0  0  0  0  0  0  0  0  0  0
   11.2528    6.9497   22.6425 C   0  0  0  0  0  0  0  0  0  0  0  0
    3.7609    6.5434   19.4956 C   0  0  0  0  0  0  0  0  0  0  0  0
    5.6539    9.0742   21.9014 C   0  0  0  0  0  0  0  0  0  0  0  0
    8.2454    8.6859   17.3924 C   0  0  0  0  0  0  0  0  0  0  0  0
    6.1169    7.4650   22.0560 O   0  0  0  0  0  0  0  0  0  0  0  0
   10.7857    7.7885   17.5586 C   0  0  0  0  0  0  0  0  0  0  0  0
   11.2155    6.5917   22.7749 C   0  0  0  0  0  0  0  0  0  0  0  0
    3.6056    5.9596   19.0020 O   0  0  0  0  0  0  0  0  0  0  0  0
   10.9204    7.8467   20.3335 O   0  0  0  0  0  0  0  0  0  0  0  0
    9.5671    7.4153   20.4507 C   0  0  0  0  0  0  0  0  0  0  0  0
    8.9559    7.9288   16.2781 C   0  0  0  0  0  0  0  0  0  0  0  0
   10.4587    8.3607   17.4058 C   0  0  0  0  0  0  0  0  0  0  0  0
    6.8298    8.8736   21.5358 C   0  0  0  0  0  0  0  0  0  0  0  0
    6.4982    7.0828   20.5739 C   0  0  0  0  0  0  0  0  0  0  0  0
   11.3676    7.9705   19.4418 C   0  0  0  0  0  0  0  0  0  0  0  0
    8.3771    8.2097   18.1726 C   0  0  0  0  0  0  0  0  0  0  0  0
    7.4094    7.3219   20.3127 C   0  0  0  0  0  0  0  0  0  0  0  0
   11.3849    8.7761   18.7058 C   0  0  0  0  0  0  0  0  0  0  0  0
    9.9087    6.8721   22.0655 C   0  0  0  0  0  0  0  0  0  0  0  0
   12.0285    6.5732   19.7436 O   0  0  0  0  0  0  0  0  0  0  0  0
    4.8288    8.4967   19.1860 O   0  0  0  0  0  0  0  0  0  0  0  0
    9.1865    9.7369   17.7399 C   0  0  0  0  0  0  0  0  0  0  0  0
    8.4619    7.7675   15.9150 C   0  0  0  0  0  0  0  0  0  0  0  0
   12.5103    7.2585   22.9071 O   0  0  0  0  0  0  0  0  0  0  0  0
    6.0491    9.0968   22.8523 O   0  0  0  0  0  0  0  0  0  0  0  0
    8.7893    8.0480   22.5595 C   0  0  0  0  0  0  0  0  0  0  0  0
   11.5907    5.5498   23.8596 O   0  0  0  0  0  0  0  0  0  0  0  0
  1  3  1  0
  2  8  1  0
  2 20  1  0
  2 29  1  0
  3  5  1  0
  3 17  1  0
  4 10  1  0
  4 22  1  0
  4 27  1  0
  5 11  1  0
  6 16  1  0
  6 28  2  0
  7 19  4  0
  7 25  4  0
  9 15  4  0
 10 22  1  0
 10 30  1  0
 12 13  1  0
 12 18  1  0
 13 22  1  0
 14 26  4  0
 16 28  1  0
 17 20  1  0
 18 21  1  0
 22 29  1  0
M  END
$$$$

 Created by Python create_sdf_string function

 30 37  0  0  0  0  0  0  0  0999 V2000
    6.0902    6.1026   19.1325 N   0  0  0  0  0  0  0  0  0  0  0  0
    9.9681    5.8353   22.7407 F   0  0  0  0  0  0  0  0  0  0  0  0
    3.9201    6.3636   20.1109 C   0  0  0  0  0  0  0  0  0  0  0  0
    6.2186    9.2680   21.6592 C   0  0  0  0  0  0  0  0  0  0  0  0
   11.8713    6.4517   21.5296 N   0  0  0  0  0  0  0  0  0  0  0  0
   10.4918    6.8684   20.5739 P   0  0  0  0  0  0  0  0  0  0  0  0
   10.9934    8.3103   19.8720 C   0  0  0  0  0  0  0  0  0  0  0  0
    8.6215    7.4265   16.1749 C   0  0  0  0  0  0  0  0  0  0  0  0
    9.9650    8.4835   17.6189 C   0  0  0  0  0  0  0  0  0  0  0  0
    5.8326    8.0580   22.4013 N   0  0  0  0  0  0  0  0  0  0  0  0
    8.4074    8.1556   18.3468 C   0  0  0  0  0  0  0  0  0  0  0  0
    7.3980    7.0078   20.4965 C   0  0  0  0  0  0  0  0  0  0  0  0
   10.2413    5.3189   23.0493 S   0  0  0  0  0  0  0  0  0  0  0  0
   11.6961    7.5282   20.2718 O   0  0  0  0  0  0  0  0  0  0  0  0
   10.5925    8.5757   17.2642 C   0  0  0  0  0  0  0  0  0  0  0  0
   12.7428    7.1969   23.0541 O   0  0  0  0  0  0  0  0  0  0  0  0
   12.6911    4.2730   23.3223 C   0  0  0  0  0  0  0  0  0  0  0  0
    7.9868    8.6125   21.9943 He  0  0  0  0  0  0  0  0  0  0  0  0
    5.7837    6.9030   20.5238 He  0  0  0  0  0  0  0  0  0  0  0  0
    7.9281    8.0058   17.0909 He  0  0  0  0  0  0  0  0  0  0  0  0
    6.1496    6.9534   23.4085 He  0  0  0  0  0  0  0  0  0  0  0  0
   10.7807    6.8539   17.1185 He  0  0  0  0  0  0  0  0  0  0  0  0
    4.1110    5.1809   18.3876 He  0  0  0  0  0  0  0  0  0  0  0  0
    6.2579    6.0193   20.5924 He  0  0  0  0  0  0  0  0  0  0  0  0
   11.1341    7.6833   18.3067 He  0  0  0  0  0  0  0  0  0  0  0  0
   11.6397    9.1030   20.4762 He  0  0  0  0  0  0  0  0  0  0  0  0
    5.9447    7.6367   18.6638 He  0  0  0  0  0  0  0  0  0  0  0  0
    7.5396    7.9909   15.0628 He  0  0  0  0  0  0  0  0  0  0  0  0
    5.8737    8.9729   23.4920 He  0  0  0  0  0  0  0  0  0  0  0  0
    9.2883    7.2508   21.4985 He  0  0  0  0  0  0  0  0  0  0  0  0
  1  8  1  0
  1 11  1  0
  1 15  1  0
  2  5  4  0
  2  8  2  0
  2 12  1  0
  2 13  1  0
  2 15  3  0
  2 16  1  0
  3  4  3  0
  3  5  3  0
  3  7  1  0
  3 12  3  0
  3 14  2  0
  3 17  1  0
  4 10  1  0
  4 11  2  0
  4 12  1  0
  4 16  1  0
  5  7  3  0
  5 15  3  0
  5 16  2  0
  5 17  1  0
  6  7  1  0
  6  9  3  0
  6 10  2  0
  6 11  2  0
  6 12  2  0
  6 14  2  0
  7 10  2  0
  7 13  2  0
  7 15  1  0
  7 16  2  0
  8 10  3  0
  8 13  3  0
 10 13  4  0
 11 17  2  0
M  END
$$$$

 Created by Python create_sdf_string function

 30 21  0  0  0  0  0  0  0  0999 V2000
    6.2557    6.8921   18.7974 N   0  0  0  0  0  0  0  0  0  0  0  0
    8.0215    8.1014   21.7226 C   0  0  0  0  0  0  0  0  0  0  0  0
    5.4966    7.0067   20.4016 C   0  0  0  0  0  0  0  0  0  0  0  0
   10.2821    6.0301   22.6893 C   0  0  0  0  0  0  0  0  0  0  0  0
    4.3310    6.4311   19.6463 C   0  0  0  0  0  0  0  0  0  0  0  0
    6.4797    8.5087   21.8117 C   0  0  0  0  0  0  0  0  0  0  0  0
    8.0246    7.8559   17.4019 C   0  0  0  0  0  0  0  0  0  0  0  0
    6.1232    7.1728   23.4171 O   0  0  0  0  0  0  0  0  0  0  0  0
   10.3737    7.4281   16.5728 C   0  0  0  0  0  0  0  0  0  0  0  0
   11.7273    6.1320   22.2738 C   0  0  0  0  0  0  0  0  0  0  0  0
    4.2703    5.6534   18.8005 O   0  0  0  0  0  0  0  0  0  0  0  0
   10.6847    7.3154   20.6562 C   0  0  0  0  0  0  0  0  0  0  0  0
   10.3316    7.9645   20.0086 C   0  0  0  0  0  0  0  0  0  0  0  0
    8.7266    7.6767   16.1901 C   0  0  0  0  0  0  0  0  0  0  0  0
   10.0587    8.3285   17.8300 C   0  0  0  0  0  0  0  0  0  0  0  0
    5.8648    8.3192   22.4663 N   0  0  0  0  0  0  0  0  0  0  0  0
    6.2309    6.1681   20.3409 C   0  0  0  0  0  0  0  0  0  0  0  0
   11.2328    8.1392   18.7202 C   0  0  0  0  0  0  0  0  0  0  0  0
    8.0180    7.7312   18.2425 C   0  0  0  0  0  0  0  0  0  0  0  0
    7.2691    7.3465   20.7866 C   0  0  0  0  0  0  0  0  0  0  0  0
   11.7625    9.0169   20.0382 C   0  0  0  0  0  0  0  0  0  0  0  0
   10.1913    5.5750   22.9746 O   0  0  0  0  0  0  0  0  0  0  0  0
   11.6513    7.4581   20.2420 O   0  0  0  0  0  0  0  0  0  0  0  0
    6.1627    7.0897   18.6221 C   0  0  0  0  0  0  0  0  0  0  0  0
   10.2817    8.3162   17.3782 C   0  0  0  0  0  0  0  0  0  0  0  0
    8.0909    7.6497   15.2238 O   0  0  0  0  0  0  0  0  0  0  0  0
   12.5764    6.9197   22.7341 O   0  0  0  0  0  0  0  0  0  0  0  0
    5.8708    8.8870   23.2423 C   0  0  0  0  0  0  0  0  0  0  0  0
    9.3984    7.1989   21.5225 C   0  0  0  0  0  0  0  0  0  0  0  0
   12.3887    4.8930   23.0672 C   0  0  0  0  0  0  0  0  0  0  0  0
  1 24  1  0
  2  6  1  0
  2 20  1  0
  2 29  1  0
  3  5  1  0
  4 22  1  0
  5 11  1  0
  6 16  1  0
  6 20  1  0
  7 14  1  0
  7 19  4  0
  9 14  1  0
  9 25  1  0
 10 27  2  0
 10 30  1  0
 12 13  1  0
 12 23  1  0
 14 26  1  0
 15 25  1  0
 16 28  1  0
 18 21  1  0
M  END
$$$$

 Created by Python create_sdf_string function

 30 67  0  0  0  0  0  0  0  0999 V2000
    5.5599    7.5092   19.1111 N   0  0  0  0  0  0  0  0  0  0  0  0
    6.4922    6.3448   19.4541 C   0  0  0  0  0  0  0  0  0  0  0  0
   10.4116    5.3113   22.0933 C   0  0  0  0  0  0  0  0  0  0  0  0
    7.1912    8.3233   22.5291 C   0  0  0  0  0  0  0  0  0  0  0  0
    8.7520    8.0027   16.9996 C   0  0  0  0  0  0  0  0  0  0  0  0
    6.6843    6.8662   23.0950 O   0  0  0  0  0  0  0  0  0  0  0  0
   11.5160    5.9035   21.7508 C   0  0  0  0  0  0  0  0  0  0  0  0
    3.7499    5.2655   18.3236 O   0  0  0  0  0  0  0  0  0  0  0  0
   10.4908    6.4983   20.9671 Cl  0  0  0  0  0  0  0  0  0  0  0  0
    9.6796    8.5189   18.9783 C   0  0  0  0  0  0  0  0  0  0  0  0
    8.9778    7.6283   17.5786 C   0  0  0  0  0  0  0  0  0  0  0  0
   10.0840    8.9310   17.5456 Cl  0  0  0  0  0  0  0  0  0  0  0  0
    5.2383    8.5234   22.7973 S   0  0  0  0  0  0  0  0  0  0  0  0
    6.2088    7.8098   19.8245 C   0  0  0  0  0  0  0  0  0  0  0  0
   11.8007    8.3512   18.5005 C   0  0  0  0  0  0  0  0  0  0  0  0
    8.2447    8.1617   18.4359 C   0  0  0  0  0  0  0  0  0  0  0  0
    8.0261    7.1047   20.4863 C   0  0  0  0  0  0  0  0  0  0  0  0
   10.9303    7.7983   19.6894 C   0  0  0  0  0  0  0  0  0  0  0  0
   10.2592    4.4654   22.6197 S   0  0  0  0  0  0  0  0  0  0  0  0
   11.4184    6.9434   21.5213 O   0  0  0  0  0  0  0  0  0  0  0  0
   10.4956    8.1833   18.6330 C   0  0  0  0  0  0  0  0  0  0  0  0
   12.9779    6.2393   23.5244 O   0  0  0  0  0  0  0  0  0  0  0  0
    7.9814    7.3395   21.5679 He  0  0  0  0  0  0  0  0  0  0  0  0
    4.7185    6.1102   18.0704 He  0  0  0  0  0  0  0  0  0  0  0  0
   10.5440    6.8259   16.6729 He  0  0  0  0  0  0  0  0  0  0  0  0
    5.8506    8.5911   19.5675 He  0  0  0  0  0  0  0  0  0  0  0  0
    8.2349    6.6543   14.1665 He  0  0  0  0  0  0  0  0  0  0  0  0
    6.4003    9.0888   22.8628 He  0  0  0  0  0  0  0  0  0  0  0  0
    9.2785    6.9109   22.1963 He  0  0  0  0  0  0  0  0  0  0  0  0
   12.9313    4.7534   24.4838 He  0  0  0  0  0  0  0  0  0  0  0  0
  1 15  3  0
  1 20  3  0
  2  3  4  0
  2  5  1  0
  2  6  4  0
  2 11  2  0
  2 15  1  0
  2 20  2  0
  3  5  1  0
  3  7  1  0
  3  9  2  0
  3 17  3  0
  3 19  1  0
  4  5  4  0
  4  6  3  0
  4  7  2  0
  4 10  3  0
  4 13  1  0
  4 17  1  0
  4 19  3  0
  4 20  3  0
  5  9  3  0
  5 11  2  0
  5 14  1  0
  5 16  4  0
  5 18  4  0
  5 20  4  0
  5 21  2  0
  5 22  1  0
  6 13  4  0
  6 14  4  0
  6 15  3  0
  6 18  2  0
  6 19  1  0
  6 20  4  0
  6 21  4  0
  7 11  1  0
  7 21  1  0
  7 22  4  0
  8 12  3  0
  8 18  3  0
  9 10  1  0
  9 16  2  0
  9 20  1  0
 10 11  2  0
 10 13  2  0
 10 14  1  0
 10 17  4  0
 10 21  4  0
 11 12  3  0
 11 13  1  0
 11 22  2  0
 12 15  4  0
 12 19  3  0
 12 20  1  0
 13 17  2  0
 14 16  3  0
 15 16  1  0
 15 19  1  0
 16 18  3  0
 17 18  2  0
 17 19  1  0
 17 21  4  0
 17 22  1  0
 19 21  3  0
 20 22  4  0
 21 22  4  0
M  END
$$$$

 Created by Python create_sdf_string function

 30 24  0  0  0  0  0  0  0  0999 V2000
    5.2873    7.6229   19.2012 C   0  0  0  0  0  0  0  0  0  0  0  0
    7.9963    7.5622   21.2469 C   0  0  0  0  0  0  0  0  0  0  0  0
    5.7571    6.6410   18.9169 C   0  0  0  0  0  0  0  0  0  0  0  0
   10.5999    5.3888   22.5229 C   0  0  0  0  0  0  0  0  0  0  0  0
    4.8740    5.8529   18.6695 C   0  0  0  0  0  0  0  0  0  0  0  0
    6.9575    7.9639   22.1955 C   0  0  0  0  0  0  0  0  0  0  0  0
    8.4447    7.7240   17.1715 C   0  0  0  0  0  0  0  0  0  0  0  0
    6.5631    7.1965   23.3048 O   0  0  0  0  0  0  0  0  0  0  0  0
   10.1401    7.2114   16.0689 O   0  0  0  0  0  0  0  0  0  0  0  0
   11.4915    6.0062   22.3634 C   0  0  0  0  0  0  0  0  0  0  0  0
    3.8653    5.4923   18.5836 O   0  0  0  0  0  0  0  0  0  0  0  0
   10.6257    6.8964   21.1029 C   0  0  0  0  0  0  0  0  0  0  0  0
    9.4431    7.7750   19.4124 C   0  0  0  0  0  0  0  0  0  0  0  0
    8.9060    7.4558   16.4285 C   0  0  0  0  0  0  0  0  0  0  0  0
   10.6357    8.6913   17.5099 C   0  0  0  0  0  0  0  0  0  0  0  0
    5.9466    8.4506   22.6213 S   0  0  0  0  0  0  0  0  0  0  0  0
    6.5786    7.8441   19.9635 C   0  0  0  0  0  0  0  0  0  0  0  0
   11.7126    8.4563   18.4822 C   0  0  0  0  0  0  0  0  0  0  0  0
    7.6085    7.7523   18.2139 C   0  0  0  0  0  0  0  0  0  0  0  0
    8.6698    7.6002   20.3247 C   0  0  0  0  0  0  0  0  0  0  0  0
   11.4857    7.7544   19.8806 C   0  0  0  0  0  0  0  0  0  0  0  0
   10.4064    4.4425   23.0560 O   0  0  0  0  0  0  0  0  0  0  0  0
   11.5158    6.8789   21.3252 O   0  0  0  0  0  0  0  0  0  0  0  0
    5.7954    8.0206   19.8704 C   0  0  0  0  0  0  0  0  0  0  0  0
   10.2018    8.1718   18.5854 C   0  0  0  0  0  0  0  0  0  0  0  0
    8.2355    6.9180   15.0915 O   0  0  0  0  0  0  0  0  0  0  0  0
   12.6662    5.9204   23.2393 O   0  0  0  0  0  0  0  0  0  0  0  0
    5.9025    9.1777   22.8090 O   0  0  0  0  0  0  0  0  0  0  0  0
    9.4018    6.3924   22.2419 C   0  0  0  0  0  0  0  0  0  0  0  0
   12.4794    4.8645   23.9690 C   0  0  0  0  0  0  0  0  0  0  0  0
  1 24  1  0
  2  6  4  0
  2 17  4  0
  2 20  4  0
  3  5  1  0
  4 10  1  0
  4 22  1  0
  4 29  1  0
  5 11  1  0
  6 16  1  0
  7 14  4  0
  7 19  4  0
  9 14  1  0
 10 27  1  0
 12 23  1  0
 13 20  4  0
 13 25  4  0
 14 26  1  0
 15 18  4  0
 15 25  4  0
 16 28  1  0
 17 24  4  0
 18 21  4  0
 27 30  1  0
M  END
$$$$

 Created by Python create_sdf_string function

 30 54  0  0  0  0  0  0  0  0999 V2000
    5.7808    7.1558   18.6785 F   0  0  0  0  0  0  0  0  0  0  0  0
    7.5869    8.1380   21.0730 N   0  0  0  0  0  0  0  0  0  0  0  0
    5.5978    6.5728   18.0862 Se  0  0  0  0  0  0  0  0  0  0  0  0
    8.6911    8.2151   16.6890 F   0  0  0  0  0  0  0  0  0  0  0  0
   12.3998    5.8556   21.7647 O   0  0  0  0  0  0  0  0  0  0  0  0
   10.8873    8.3186   20.3156 C   0  0  0  0  0  0  0  0  0  0  0  0
   10.3984    8.3651   19.1016 Cl  0  0  0  0  0  0  0  0  0  0  0  0
   12.5769    8.0908   17.7934 C   0  0  0  0  0  0  0  0  0  0  0  0
    7.6892    7.7849   17.8666 C   0  0  0  0  0  0  0  0  0  0  0  0
    8.4523    6.5330   19.8268 C   0  0  0  0  0  0  0  0  0  0  0  0
   10.6271    8.0600   18.8623 F   0  0  0  0  0  0  0  0  0  0  0  0
   10.3314    4.6010   22.6177 O   0  0  0  0  0  0  0  0  0  0  0  0
   11.7177    6.9428   21.6652 P   0  0  0  0  0  0  0  0  0  0  0  0
   10.4516    8.5475   17.3318 C   0  0  0  0  0  0  0  0  0  0  0  0
    9.1326    7.4812   15.3656 C   0  0  0  0  0  0  0  0  0  0  0  0
   12.6854    5.4335   22.0343 F   0  0  0  0  0  0  0  0  0  0  0  0
    6.0515    8.3943   23.3792 C   0  0  0  0  0  0  0  0  0  0  0  0
    9.4727    5.7281   22.9326 C   0  0  0  0  0  0  0  0  0  0  0  0
   12.8151    4.8988   23.8960 O   0  0  0  0  0  0  0  0  0  0  0  0
   10.4917    5.0159   22.8949 He  0  0  0  0  0  0  0  0  0  0  0  0
    4.9941    5.5553   18.4841 He  0  0  0  0  0  0  0  0  0  0  0  0
    7.5161    7.5888   21.4439 He  0  0  0  0  0  0  0  0  0  0  0  0
    7.2521    7.7328   23.6127 He  0  0  0  0  0  0  0  0  0  0  0  0
   12.1765    7.0061   16.4040 He  0  0  0  0  0  0  0  0  0  0  0  0
    4.0522    4.9573   18.2581 He  0  0  0  0  0  0  0  0  0  0  0  0
    9.0823    8.1360   16.6316 He  0  0  0  0  0  0  0  0  0  0  0  0
   10.4970    8.4855   17.8886 He  0  0  0  0  0  0  0  0  0  0  0  0
    5.6491    9.5331   22.6986 He  0  0  0  0  0  0  0  0  0  0  0  0
    7.1671    8.6736   20.1478 He  0  0  0  0  0  0  0  0  0  0  0  0
    6.2632    8.1987   18.3261 He  0  0  0  0  0  0  0  0  0  0  0  0
  1  2  1  0
  1  6  2  0
  1  9  3  0
  1 10  3  0
  1 12  1  0
  1 13  3  0
  1 16  2  0
  1 17  2  0
  1 18  2  0
  2  6  4  0
  2  8  2  0
  2 10  4  0
  2 13  2  0
  2 19  3  0
  3  7  2  0
  3  8  3  0
  3 12  4  0
  4  6  1  0
  4  9  4  0
  4 16  1  0
  5  6  1  0
  5  9  1  0
  5 12  2  0
  6 10  2  0
  6 13  1  0
  6 18  2  0
  6 19  2  0
  7 13  4  0
  7 14  4  0
  7 18  2  0
  7 19  1  0
  8 10  4  0
  8 18  2  0
  9 10  2  0
  9 11  2  0
  9 13  2  0
 10 11  1  0
 10 14  3  0
 10 16  1  0
 10 19  1  0
 11 12  4  0
 11 13  3  0
 11 14  2  0
 11 18  1  0
 12 13  3  0
 12 19  1  0
 13 14  3  0
 13 15  2  0
 13 18  3  0
 14 17  2  0
 14 18  2  0
 14 19  1  0
 17 18  4  0
 17 19  1  0
M  END
$$$$

 Created by Python create_sdf_string function

 30 22  0  0  0  0  0  0  0  0999 V2000
    5.6342    7.0752   19.1216 C   0  0  0  0  0  0  0  0  0  0  0  0
    7.5486    7.9987   21.0879 N   0  0  0  0  0  0  0  0  0  0  0  0
    5.8163    6.4781   18.2213 C   0  0  0  0  0  0  0  0  0  0  0  0
   10.8662    5.2361   23.0150 P   0  0  0  0  0  0  0  0  0  0  0  0
    4.8919    5.9677   18.7317 C   0  0  0  0  0  0  0  0  0  0  0  0
    7.3751    7.9590   21.5679 C   0  0  0  0  0  0  0  0  0  0  0  0
    8.0622    8.1245   17.0182 N   0  0  0  0  0  0  0  0  0  0  0  0
    7.2454    7.7080   23.3860 C   0  0  0  0  0  0  0  0  0  0  0  0
   12.3169    7.5194   16.5911 C   0  0  0  0  0  0  0  0  0  0  0  0
   12.0669    5.8988   21.6075 O   0  0  0  0  0  0  0  0  0  0  0  0
    4.1256    5.3861   18.5657 C   0  0  0  0  0  0  0  0  0  0  0  0
   11.1167    7.7106   20.7695 C   0  0  0  0  0  0  0  0  0  0  0  0
   10.5745    8.3157   18.7808 C   0  0  0  0  0  0  0  0  0  0  0  0
    9.0265    8.1122   16.4253 C   0  0  0  0  0  0  0  0  0  0  0  0
   10.6059    8.0830   16.9999 C   0  0  0  0  0  0  0  0  0  0  0  0
    5.9418    8.9862   22.5374 C   0  0  0  0  0  0  0  0  0  0  0  0
    6.7373    7.9867   20.3580 C   0  0  0  0  0  0  0  0  0  0  0  0
   12.3988    7.8878   17.6609 C   0  0  0  0  0  0  0  0  0  0  0  0
    7.7371    7.7924   18.2095 C   0  0  0  0  0  0  0  0  0  0  0  0
    8.6977    7.5487   19.6853 C   0  0  0  0  0  0  0  0  0  0  0  0
   10.8556    7.9639   19.1293 C   0  0  0  0  0  0  0  0  0  0  0  0
   10.4050    4.4786   22.8004 O   0  0  0  0  0  0  0  0  0  0  0  0
   11.2594    7.1682   21.4723 C   0  0  0  0  0  0  0  0  0  0  0  0
    6.5379    7.5290   18.6976 C   0  0  0  0  0  0  0  0  0  0  0  0
   10.2079    8.2448   17.8209 C   0  0  0  0  0  0  0  0  0  0  0  0
    9.4566    7.9348   15.4485 C   0  0  0  0  0  0  0  0  0  0  0  0
   12.4331    5.8808   21.9955 C   0  0  0  0  0  0  0  0  0  0  0  0
    6.2915    8.5364   23.0873 C   0  0  0  0  0  0  0  0  0  0  0  0
    9.9290    6.0498   22.7930 C   0  0  0  0  0  0  0  0  0  0  0  0
   12.1679    4.8330   23.7618 O   0  0  0  0  0  0  0  0  0  0  0  0
  1  5  4  0
  2  6  4  0
  3  5  4  0
  3 24  4  0
  4 22  2  0
  4 29  1  0
  4 30  1  0
  5 11  1  0
  6 17  4  0
  7 14  4  0
  7 19  4  0
  8 28  4  0
  9 18  1  0
 10 27  1  0
 12 23  1  0
 13 25  4  0
 14 26  1  0
 15 25  4  0
 16 28  4  0
 17 24  4  0
 19 20  4  0
 19 24  4  0
M  END
$$$$

 Created by Python create_sdf_string function

 30 45  0  0  0  0  0  0  0  0999 V2000
    6.4771    6.6193   19.7230 C   0  0  0  0  0  0  0  0  0  0  0  0
    7.0844    5.3406   18.4608 C   0  0  0  0  0  0  0  0  0  0  0  0
    7.4574    8.1570   21.5748 C   0  0  0  0  0  0  0  0  0  0  0  0
    9.1588    6.8472   16.3265 N   0  0  0  0  0  0  0  0  0  0  0  0
    7.4408    7.7870   23.6648 C   0  0  0  0  0  0  0  0  0  0  0  0
   12.4235    8.1051   16.5178 C   0  0  0  0  0  0  0  0  0  0  0  0
   12.5629    6.4811   22.2154 P   0  0  0  0  0  0  0  0  0  0  0  0
    4.0697    5.7165   18.2095 O   0  0  0  0  0  0  0  0  0  0  0  0
   11.7756    7.7130   21.1275 Br  0  0  0  0  0  0  0  0  0  0  0  0
   11.3333    9.5948   18.2169 N   0  0  0  0  0  0  0  0  0  0  0  0
    5.2161    9.2981   22.6745 O   0  0  0  0  0  0  0  0  0  0  0  0
    7.2147    7.6042   21.1357 C   0  0  0  0  0  0  0  0  0  0  0  0
    8.4484    6.9278   20.1124 C   0  0  0  0  0  0  0  0  0  0  0  0
   10.2781    7.2040   18.3667 F   0  0  0  0  0  0  0  0  0  0  0  0
   10.2664    4.7383   22.3874 O   0  0  0  0  0  0  0  0  0  0  0  0
   12.2999    5.4669   21.5548 C   0  0  0  0  0  0  0  0  0  0  0  0
    9.5477    9.5384   18.3493 C   0  0  0  0  0  0  0  0  0  0  0  0
    9.5428    7.1893   14.5764 P   0  0  0  0  0  0  0  0  0  0  0  0
   12.2342    5.4296   22.8997 S   0  0  0  0  0  0  0  0  0  0  0  0
   10.1952    5.1911   24.2535 N   0  0  0  0  0  0  0  0  0  0  0  0
    6.4428    7.5799   21.8190 He  0  0  0  0  0  0  0  0  0  0  0  0
   10.5312    5.2050   23.2525 He  0  0  0  0  0  0  0  0  0  0  0  0
    4.5493    7.3123   18.3212 He  0  0  0  0  0  0  0  0  0  0  0  0
    8.9456    8.1971   17.3671 He  0  0  0  0  0  0  0  0  0  0  0  0
   11.0304    8.3539   17.1975 He  0  0  0  0  0  0  0  0  0  0  0  0
   13.1794    7.9095   18.3072 He  0  0  0  0  0  0  0  0  0  0  0  0
    8.0534    7.8221   17.4415 He  0  0  0  0  0  0  0  0  0  0  0  0
    7.1868    7.8062   18.4862 He  0  0  0  0  0  0  0  0  0  0  0  0
    5.8670    8.6211   22.8493 He  0  0  0  0  0  0  0  0  0  0  0  0
   13.5294    3.8191   24.1544 He  0  0  0  0  0  0  0  0  0  0  0  0
  1 11  3  0
  1 12  3  0
  1 18  3  0
  2  8  3  0
  2 10  2  0
  2 13  1  0
  3  4  4  0
  3  8  2  0
  3 12  1  0
  3 15  3  0
  3 16  4  0
  3 17  2  0
  4 17  3  0
  4 18  2  0
  5  6  1  0
  5 12  4  0
  5 17  4  0
  5 20  3  0
  6  9  2  0
  6 11  2  0
  6 17  4  0
  7 11  2  0
  7 12  1  0
  7 18  2  0
  8  9  4  0
  8 10  3  0
  8 11  3  0
  8 14  1  0
  8 16  4  0
  9 10  3  0
  9 18  1  0
  9 20  1  0
 10 12  1  0
 10 15  1  0
 10 17  4  0
 11 15  1  0
 11 18  1  0
 12 14  2  0
 12 16  4  0
 12 17  2  0
 12 18  3  0
 13 15  1  0
 13 20  3  0
 14 18  2  0
 18 20  2  0
M  END
$$$$

 Created by Python create_sdf_string function

 30 19  0  0  0  0  0  0  0  0999 V2000
    6.1867    7.0170   19.7913 C   0  0  0  0  0  0  0  0  0  0  0  0
    5.8760    7.6637   21.6797 C   0  0  0  0  0  0  0  0  0  0  0  0
    6.7737    6.2603   18.1552 C   0  0  0  0  0  0  0  0  0  0  0  0
   10.8678    5.1122   23.1034 C   0  0  0  0  0  0  0  0  0  0  0  0
    5.3129    6.7741   18.9171 C   0  0  0  0  0  0  0  0  0  0  0  0
    7.4368    7.9192   21.5849 C   0  0  0  0  0  0  0  0  0  0  0  0
    8.6981    7.3020   16.2630 N   0  0  0  0  0  0  0  0  0  0  0  0
    7.3313    7.8365   23.5604 C   0  0  0  0  0  0  0  0  0  0  0  0
   11.8299    8.1251   16.4583 C   0  0  0  0  0  0  0  0  0  0  0  0
   12.4760    6.1429   22.1982 C   0  0  0  0  0  0  0  0  0  0  0  0
    4.5151    5.9879   18.6449 O   0  0  0  0  0  0  0  0  0  0  0  0
   11.7460    7.1271   20.4746 C   0  0  0  0  0  0  0  0  0  0  0  0
   10.9771    8.9056   18.3481 N   0  0  0  0  0  0  0  0  0  0  0  0
    9.3523    8.0096   17.0802 N   0  0  0  0  0  0  0  0  0  0  0  0
   10.8285    8.1091   16.8023 C   0  0  0  0  0  0  0  0  0  0  0  0
    5.4281    9.0441   22.8306 O   0  0  0  0  0  0  0  0  0  0  0  0
    7.1045    7.6081   21.2133 C   0  0  0  0  0  0  0  0  0  0  0  0
   12.5569    7.7393   18.5159 C   0  0  0  0  0  0  0  0  0  0  0  0
    7.8453    7.4582   17.6460 C   0  0  0  0  0  0  0  0  0  0  0  0
    7.7329    6.7995   20.0524 C   0  0  0  0  0  0  0  0  0  0  0  0
   11.0498    7.6879   18.9206 C   0  0  0  0  0  0  0  0  0  0  0  0
   10.3412    5.2208   22.3905 C   0  0  0  0  0  0  0  0  0  0  0  0
   11.8809    6.2425   21.3773 C   0  0  0  0  0  0  0  0  0  0  0  0
    7.3503    7.4378   18.0608 C   0  0  0  0  0  0  0  0  0  0  0  0
   10.1766    8.9562   18.1815 C   0  0  0  0  0  0  0  0  0  0  0  0
    9.4074    7.3721   15.2561 O   0  0  0  0  0  0  0  0  0  0  0  0
   12.4016    5.4808   22.9216 C   0  0  0  0  0  0  0  0  0  0  0  0
    5.9089    8.3745   22.9177 C   0  0  0  0  0  0  0  0  0  0  0  0
   10.5436    5.0775   23.6035 C   0  0  0  0  0  0  0  0  0  0  0  0
   12.8351    4.3105   24.1530 O   0  0  0  0  0  0  0  0  0  0  0  0
  1  5  4  0
  1 20  4  0
  2 28  1  0
  4 22  4  0
  4 29  4  0
  5 11  1  0
  6 17  1  0
  7 14  4  0
  7 26  2  0
  9 15  4  0
 10 23  4  0
 10 27  4  0
 12 23  1  0
 13 25  4  0
 14 15  4  0
 16 28  1  0
 19 24  4  0
 22 29  4  0
 27 30  1  0
M  END
$$$$

 Created by Python create_sdf_string function

 30 73  0  0  0  0  0  0  0  0999 V2000
    6.3314    6.9571   19.1603 S   0  0  0  0  0  0  0  0  0  0  0  0
    6.9169    6.6515   22.0160 C   0  0  0  0  0  0  0  0  0  0  0  0
    9.8153    5.6820   23.4157 F   0  0  0  0  0  0  0  0  0  0  0  0
    7.3994    7.8138   22.3280 O   0  0  0  0  0  0  0  0  0  0  0  0
   10.4141    6.7493   16.6324 N   0  0  0  0  0  0  0  0  0  0  0  0
    6.7963    7.6079   23.3537 C   0  0  0  0  0  0  0  0  0  0  0  0
   11.9802    8.1568   15.7326 Se  0  0  0  0  0  0  0  0  0  0  0  0
   11.9659    7.0016   19.9797 C   0  0  0  0  0  0  0  0  0  0  0  0
   12.0078    9.6675   17.8559 N   0  0  0  0  0  0  0  0  0  0  0  0
    9.6876    8.0429   17.6086 Cl  0  0  0  0  0  0  0  0  0  0  0  0
    5.3542    9.1265   22.3719 O   0  0  0  0  0  0  0  0  0  0  0  0
    6.4738    7.6792   20.9710 Cl  0  0  0  0  0  0  0  0  0  0  0  0
   11.9596    8.1034   19.0646 C   0  0  0  0  0  0  0  0  0  0  0  0
    8.3141    7.4399   17.5822 C   0  0  0  0  0  0  0  0  0  0  0  0
   11.1221    7.9494   19.3490 C   0  0  0  0  0  0  0  0  0  0  0  0
    9.8764    5.2173   22.0694 P   0  0  0  0  0  0  0  0  0  0  0  0
    6.7842    7.2882   17.4755 Cl  0  0  0  0  0  0  0  0  0  0  0  0
    9.6446    8.8449   17.7080 C   0  0  0  0  0  0  0  0  0  0  0  0
    9.3467    7.0052   14.8663 O   0  0  0  0  0  0  0  0  0  0  0  0
   12.1850    4.7984   22.5909 C   0  0  0  0  0  0  0  0  0  0  0  0
    6.6667    8.3252   23.2883 N   0  0  0  0  0  0  0  0  0  0  0  0
   10.6932    5.5856   23.3872 C   0  0  0  0  0  0  0  0  0  0  0  0
   13.2277    4.5326   25.0442 O   0  0  0  0  0  0  0  0  0  0  0  0
    8.1124    6.5505   17.9406 He  0  0  0  0  0  0  0  0  0  0  0  0
    4.6259    6.2485   19.1389 He  0  0  0  0  0  0  0  0  0  0  0  0
   12.6615    5.8666   22.7503 He  0  0  0  0  0  0  0  0  0  0  0  0
    4.7851    6.5134   19.4075 He  0  0  0  0  0  0  0  0  0  0  0  0
    9.2793    8.1960   17.1599 He  0  0  0  0  0  0  0  0  0  0  0  0
    7.4402    7.7179   20.0960 He  0  0  0  0  0  0  0  0  0  0  0  0
   13.1763    5.1485   21.6299 He  0  0  0  0  0  0  0  0  0  0  0  0
  1  4  3  0
  1  6  4  0
  1  7  3  0
  1  9  1  0
  1 10  1  0
  1 12  1  0
  1 20  2  0
  1 23  2  0
  2  3  3  0
  2  6  3  0
  2  7  4  0
  2 15  1  0
  2 17  3  0
  2 18  2  0
  2 20  2  0
  2 23  3  0
  3  8  1  0
  3  9  3  0
  3 10  2  0
  3 15  1  0
  3 16  4  0
  3 19  1  0
  3 22  4  0
  4  7  4  0
  4  8  4  0
  4 10  4  0
  4 12  1  0
  5  6  3  0
  5  8  1  0
  5 12  4  0
  5 17  2  0
  6 12  4  0
  6 15  1  0
  6 19  3  0
  7 14  2  0
  7 15  4  0
  7 16  3  0
  7 18  4  0
  7 22  1  0
  7 23  2  0
  8 18  3  0
  9 12  4  0
  9 17  1  0
  9 19  3  0
 10 11  3  0
 10 12  2  0
 10 15  1  0
 10 19  3  0
 10 20  3  0
 10 21  4  0
 11 12  1  0
 11 13  2  0
 11 18  2  0
 11 21  1  0
 12 14  1  0
 12 15  2  0
 13 23  1  0
 14 15  3  0
 14 17  4  0
 15 16  1  0
 16 17  3  0
 16 20  3  0
 16 22  4  0
 16 23  3  0
 17 21  2  0
 17 23  2  0
 18 20  4  0
 18 22  4  0
 19 20  2  0
 20 21  3  0
 20 22  2  0
 20 23  1  0
 22 23  4  0
M  END
$$$$

 Created by Python create_sdf_string function

 30 26  0  0  0  0  0  0  0  0999 V2000
    6.2649    6.8565   19.2613 C   0  0  0  0  0  0  0  0  0  0  0  0
    6.8377    6.8270   21.8603 C   0  0  0  0  0  0  0  0  0  0  0  0
    7.3476    6.8080   18.0541 C   0  0  0  0  0  0  0  0  0  0  0  0
   10.2972    5.5570   22.9714 C   0  0  0  0  0  0  0  0  0  0  0  0
    4.9993    6.4162   19.1068 C   0  0  0  0  0  0  0  0  0  0  0  0
    7.4195    8.1624   22.2394 O   0  0  0  0  0  0  0  0  0  0  0  0
   10.0469    7.4911   16.0719 N   0  0  0  0  0  0  0  0  0  0  0  0
    6.7910    7.3340   23.4337 C   0  0  0  0  0  0  0  0  0  0  0  0
   11.3139    8.1649   15.9869 C   0  0  0  0  0  0  0  0  0  0  0  0
   12.3070    5.5562   22.2624 C   0  0  0  0  0  0  0  0  0  0  0  0
    4.6778    6.5659   19.4495 C   0  0  0  0  0  0  0  0  0  0  0  0
   12.0743    6.7625   20.4379 C   0  0  0  0  0  0  0  0  0  0  0  0
   11.9254    9.5073   17.9228 N   0  0  0  0  0  0  0  0  0  0  0  0
    9.3832    7.5344   16.8603 C   0  0  0  0  0  0  0  0  0  0  0  0
   10.3228    8.0677   18.0124 C   0  0  0  0  0  0  0  0  0  0  0  0
    5.6402    8.7585   22.5739 O   0  0  0  0  0  0  0  0  0  0  0  0
    6.4188    7.5277   21.1064 C   0  0  0  0  0  0  0  0  0  0  0  0
   11.9484    7.8859   19.4514 C   0  0  0  0  0  0  0  0  0  0  0  0
    8.2600    7.3477   17.4324 C   0  0  0  0  0  0  0  0  0  0  0  0
    7.1774    7.6220   20.2699 C   0  0  0  0  0  0  0  0  0  0  0  0
   11.2439    7.7281   19.2830 C   0  0  0  0  0  0  0  0  0  0  0  0
   10.3847    5.6962   22.0206 C   0  0  0  0  0  0  0  0  0  0  0  0
   12.2764    5.9787   21.5616 C   0  0  0  0  0  0  0  0  0  0  0  0
    7.2549    6.8366   17.4201 C   0  0  0  0  0  0  0  0  0  0  0  0
   10.7843    8.5846   17.4048 C   0  0  0  0  0  0  0  0  0  0  0  0
    9.2607    6.9858   15.0603 O   0  0  0  0  0  0  0  0  0  0  0  0
   12.1489    5.1672   23.4133 C   0  0  0  0  0  0  0  0  0  0  0  0
    6.5011    8.3637   23.2600 N   0  0  0  0  0  0  0  0  0  0  0  0
   10.9006    5.3173   23.6715 C   0  0  0  0  0  0  0  0  0  0  0  0
   12.7613    4.6331   24.4294 O   0  0  0  0  0  0  0  0  0  0  0  0
  1  3  1  0
  1  5  4  0
  1 20  4  0
  3 19  4  0
  3 24  4  0
  4 22  4  0
  4 29  4  0
  5 11  1  0
  6 28  1  0
  7  9  4  0
  7 14  4  0
  8 28  1  0
  9 25  4  0
 10 23  4  0
 10 27  4  0
 12 18  1  0
 12 23  1  0
 13 25  1  0
 15 21  1  0
 15 25  4  0
 16 28  1  0
 17 20  4  0
 18 21  1  0
 19 24  4  0
 27 29  4  0
 27 30  1  0
M  END
$$$$

 Created by Python create_sdf_string function

 30 62  0  0  0  0  0  0  0  0999 V2000
    8.0961    6.7239   22.4325 C   0  0  0  0  0  0  0  0  0  0  0  0
    7.7616    6.5997   17.7941 N   0  0  0  0  0  0  0  0  0  0  0  0
   10.0463    5.8026   23.8464 F   0  0  0  0  0  0  0  0  0  0  0  0
    4.6012    6.8114   19.3018 F   0  0  0  0  0  0  0  0  0  0  0  0
    6.6992    6.9961   22.3021 B   0  0  0  0  0  0  0  0  0  0  0  0
    9.8969    7.5002   15.6198 O   0  0  0  0  0  0  0  0  0  0  0  0
    7.8720    6.5805   23.0074 C   0  0  0  0  0  0  0  0  0  0  0  0
    9.7317    9.3980   16.1109 C   0  0  0  0  0  0  0  0  0  0  0  0
    4.6552    5.7407   19.5990 C   0  0  0  0  0  0  0  0  0  0  0  0
   11.4631    8.8185   19.4523 N   0  0  0  0  0  0  0  0  0  0  0  0
    9.6724    7.9728   16.5950 C   0  0  0  0  0  0  0  0  0  0  0  0
   10.7775    7.6968   17.1994 Cl  0  0  0  0  0  0  0  0  0  0  0  0
    6.1856    7.8346   20.7925 C   0  0  0  0  0  0  0  0  0  0  0  0
   11.3686    7.4389   19.4914 C   0  0  0  0  0  0  0  0  0  0  0  0
    7.5823    7.2780   19.4435 O   0  0  0  0  0  0  0  0  0  0  0  0
   11.2393    8.1699   19.4086 S   0  0  0  0  0  0  0  0  0  0  0  0
   10.4910    6.0400   21.4066 N   0  0  0  0  0  0  0  0  0  0  0  0
   11.7726    5.5662   21.4262 C   0  0  0  0  0  0  0  0  0  0  0  0
   10.0053    8.1426   17.0042 N   0  0  0  0  0  0  0  0  0  0  0  0
   10.1429    5.9573   13.8806 O   0  0  0  0  0  0  0  0  0  0  0  0
    7.5038    8.5859   23.9790 N   0  0  0  0  0  0  0  0  0  0  0  0
   10.8393    5.4051   23.6744 F   0  0  0  0  0  0  0  0  0  0  0  0
    6.7509    6.6379   19.1929 He  0  0  0  0  0  0  0  0  0  0  0  0
   13.0495    5.1183   22.5142 He  0  0  0  0  0  0  0  0  0  0  0  0
   12.0186    6.6294   20.3924 He  0  0  0  0  0  0  0  0  0  0  0  0
    5.3069    9.4515   22.8080 He  0  0  0  0  0  0  0  0  0  0  0  0
    9.2213    6.8693   16.9418 He  0  0  0  0  0  0  0  0  0  0  0  0
    7.8746    6.6414   16.5289 He  0  0  0  0  0  0  0  0  0  0  0  0
   12.7530    4.0832   23.4048 He  0  0  0  0  0  0  0  0  0  0  0  0
   12.0893    5.0421   24.8967 He  0  0  0  0  0  0  0  0  0  0  0  0
  1  2  2  0
  1  4  1  0
  1 17  4  0
  1 20  2  0
  2 19  4  0
  2 20  1  0
  2 22  4  0
  3  5  1  0
  3 17  4  0
  3 18  1  0
  3 20  2  0
  3 21  2  0
  3 22  2  0
  4  9  1  0
  4 11  4  0
  4 12  4  0
  4 15  2  0
  4 16  2  0
  4 18  3  0
  4 19  4  0
  4 21  2  0
  5  6  2  0
  5  8  3  0
  5 14  3  0
  5 15  3  0
  6  8  4  0
  6 11  4  0
  6 14  3  0
  6 15  1  0
  6 16  1  0
  6 17  3  0
  6 18  1  0
  6 20  3  0
  7  8  3  0
  7  9  2  0
  7 11  4  0
  7 20  1  0
  8 20  1  0
  8 22  1  0
  9 13  2  0
  9 20  1  0
 10 13  1  0
 10 14  4  0
 10 17  3  0
 10 20  4  0
 11 13  2  0
 11 19  2  0
 12 16  3  0
 12 18  4  0
 12 21  2  0
 13 19  4  0
 13 22  2  0
 14 16  1  0
 14 19  3  0
 14 21  4  0
 14 22  1  0
 15 16  2  0
 16 21  3  0
 16 22  2  0
 17 18  2  0
 19 21  4  0
 20 21  1  0
M  END
$$$$

 Created by Python create_sdf_string function

 30 26  0  0  0  0  0  0  0  0999 V2000
    6.8340    6.8292   18.9594 C   0  0  0  0  0  0  0  0  0  0  0  0
    8.1595    6.7436   22.5128 C   0  0  0  0  0  0  0  0  0  0  0  0
    7.5514    6.7156   17.8672 N   0  0  0  0  0  0  0  0  0  0  0  0
   10.0160    5.8069   23.1569 C   0  0  0  0  0  0  0  0  0  0  0  0
    5.1041    6.6379   19.1812 C   0  0  0  0  0  0  0  0  0  0  0  0
    6.9388    7.2842   21.9517 C   0  0  0  0  0  0  0  0  0  0  0  0
    9.6645    7.3126   15.3241 C   0  0  0  0  0  0  0  0  0  0  0  0
    7.9796    7.0225   23.1808 C   0  0  0  0  0  0  0  0  0  0  0  0
    9.9935    8.7220   15.8486 C   0  0  0  0  0  0  0  0  0  0  0  0
   12.4948    5.3489   22.2670 C   0  0  0  0  0  0  0  0  0  0  0  0
    4.9867    6.6032   19.7407 C   0  0  0  0  0  0  0  0  0  0  0  0
   12.2122    6.5570   20.4322 C   0  0  0  0  0  0  0  0  0  0  0  0
   11.6045    8.7316   19.0219 N   0  0  0  0  0  0  0  0  0  0  0  0
    9.6094    7.8440   16.1437 C   0  0  0  0  0  0  0  0  0  0  0  0
   10.7287    8.0220   17.6157 C   0  0  0  0  0  0  0  0  0  0  0  0
    5.8920    8.7841   22.9352 C   0  0  0  0  0  0  0  0  0  0  0  0
    6.2398    7.3076   20.8872 C   0  0  0  0  0  0  0  0  0  0  0  0
   11.6183    7.5290   19.5739 C   0  0  0  0  0  0  0  0  0  0  0  0
    8.6153    6.9715   16.8813 C   0  0  0  0  0  0  0  0  0  0  0  0
    7.2293    7.2018   20.0193 C   0  0  0  0  0  0  0  0  0  0  0  0
   11.1860    7.8177   19.1336 C   0  0  0  0  0  0  0  0  0  0  0  0
   10.2299    6.1075   21.9168 C   0  0  0  0  0  0  0  0  0  0  0  0
   11.6090    5.9221   21.7507 C   0  0  0  0  0  0  0  0  0  0  0  0
    7.9901    6.3220   16.6798 C   0  0  0  0  0  0  0  0  0  0  0  0
    9.8589    7.6879   17.4588 N   0  0  0  0  0  0  0  0  0  0  0  0
    9.7143    6.3282   14.2983 O   0  0  0  0  0  0  0  0  0  0  0  0
   12.0535    4.9382   23.6870 C   0  0  0  0  0  0  0  0  0  0  0  0
    6.9279    8.0988   23.3190 N   0  0  0  0  0  0  0  0  0  0  0  0
   10.7956    5.2717   23.7866 C   0  0  0  0  0  0  0  0  0  0  0  0
   12.4698    4.5422   24.6764 O   0  0  0  0  0  0  0  0  0  0  0  0
  1  3  4  0
  1  5  4  0
  1 20  4  0
  2  8  1  0
  3 19  4  0
  3 24  4  0
  4 22  4  0
  4 29  4  0
  5 11  1  0
  6 17  4  0
  7  9  4  0
  7 14  4  0
  9 14  4  0
 10 23  4  0
 10 27  4  0
 11 17  4  0
 12 18  1  0
 12 23  1  0
 15 25  4  0
 16 28  1  0
 17 20  4  0
 18 21  1  0
 19 24  4  0
 22 23  4  0
 27 29  4  0
 27 30  1  0
M  END
$$$$

 Created by Python create_sdf_string function

 30 53  0  0  0  0  0  0  0  0999 V2000
    6.7702    6.1530   19.0178 C   0  0  0  0  0  0  0  0  0  0  0  0
    7.1264    6.2551   22.9440 Cl  0  0  0  0  0  0  0  0  0  0  0  0
    5.5766    6.9187   20.1528 C   0  0  0  0  0  0  0  0  0  0  0  0
    7.2715    6.6840   22.3649 C   0  0  0  0  0  0  0  0  0  0  0  0
    8.8597    7.1306   22.5645 C   0  0  0  0  0  0  0  0  0  0  0  0
    9.3612    8.8134   16.4461 S   0  0  0  0  0  0  0  0  0  0  0  0
   12.3307    5.5639   22.1296 F   0  0  0  0  0  0  0  0  0  0  0  0
    4.8333    6.6394   19.0759 C   0  0  0  0  0  0  0  0  0  0  0  0
   12.1963    6.6473   19.2131 F   0  0  0  0  0  0  0  0  0  0  0  0
   11.5073    8.6410   19.2573 N   0  0  0  0  0  0  0  0  0  0  0  0
    9.2147    7.1082   16.1438 C   0  0  0  0  0  0  0  0  0  0  0  0
   10.6140    8.3825   16.8534 C   0  0  0  0  0  0  0  0  0  0  0  0
    6.4591    9.2941   23.3089 Cl  0  0  0  0  0  0  0  0  0  0  0  0
    6.2788    8.1860   20.7285 C   0  0  0  0  0  0  0  0  0  0  0  0
   10.4799    6.5395   21.9368 C   0  0  0  0  0  0  0  0  0  0  0  0
   11.5278    6.0834   21.4303 C   0  0  0  0  0  0  0  0  0  0  0  0
   10.8606    7.9054   17.2629 Br  0  0  0  0  0  0  0  0  0  0  0  0
    9.1120    6.9950   14.4445 O   0  0  0  0  0  0  0  0  0  0  0  0
   12.4376    5.6353   24.1635 P   0  0  0  0  0  0  0  0  0  0  0  0
    6.4156    8.0383   22.6576 N   0  0  0  0  0  0  0  0  0  0  0  0
   11.4435    5.1892   23.8830 C   0  0  0  0  0  0  0  0  0  0  0  0
   13.1270    5.1093   25.1114 O   0  0  0  0  0  0  0  0  0  0  0  0
    8.4704    7.0186   17.8405 He  0  0  0  0  0  0  0  0  0  0  0  0
    9.5993    5.8655   22.7890 He  0  0  0  0  0  0  0  0  0  0  0  0
    9.9256    6.9108   15.1581 He  0  0  0  0  0  0  0  0  0  0  0  0
   10.9684    6.5634   18.3166 He  0  0  0  0  0  0  0  0  0  0  0  0
    9.0350    7.3119   16.5244 He  0  0  0  0  0  0  0  0  0  0  0  0
    7.2633    7.7123   20.6941 He  0  0  0  0  0  0  0  0  0  0  0  0
   11.5808    7.0478   18.9241 He  0  0  0  0  0  0  0  0  0  0  0  0
    7.0411    5.3593   16.0181 He  0  0  0  0  0  0  0  0  0  0  0  0
  1  3  4  0
  1 11  4  0
  1 19  4  0
  1 20  2  0
  2  3  4  0
  2  5  1  0
  2  8  1  0
  2 14  2  0
  3  5  3  0
  3 21  3  0
  4  5  4  0
  4  6  1  0
  4 10  4  0
  4 13  2  0
  4 14  4  0
  5  6  2  0
  5 14  2  0
  5 17  3  0
  5 18  2  0
  6  9  2  0
  6 12  2  0
  6 13  4  0
  7 12  1  0
  7 13  2  0
  7 19  2  0
  8 14  4  0
  8 16  2  0
  8 20  3  0
  9 16  1  0
  9 17  1  0
  9 20  2  0
  9 21  1  0
 10 12  1  0
 10 13  1  0
 10 20  2  0
 10 22  1  0
 11 16  3  0
 11 17  1  0
 12 13  3  0
 12 18  2  0
 13 14  2  0
 13 15  1  0
 13 20  1  0
 14 15  1  0
 14 16  2  0
 15 16  4  0
 15 21  1  0
 16 18  1  0
 17 20  4  0
 18 19  3  0
 18 21  3  0
 19 21  3  0
 19 22  1  0
M  END
$$$$

 Created by Python create_sdf_string function

 30 26  0  0  0  0  0  0  0  0999 V2000
    7.0112    6.7984   18.9083 C   0  0  0  0  0  0  0  0  0  0  0  0
    7.3118    7.0492   23.2669 C   0  0  0  0  0  0  0  0  0  0  0  0
    8.0230    6.7994   17.6812 C   0  0  0  0  0  0  0  0  0  0  0  0
   10.0152    6.0113   22.9237 C   0  0  0  0  0  0  0  0  0  0  0  0
    5.6886    6.8110   19.0796 C   0  0  0  0  0  0  0  0  0  0  0  0
    7.1081    7.2541   21.2075 C   0  0  0  0  0  0  0  0  0  0  0  0
    9.3237    6.8233   15.2608 C   0  0  0  0  0  0  0  0  0  0  0  0
    7.6247    7.1076   22.5601 C   0  0  0  0  0  0  0  0  0  0  0  0
    9.8370    9.1570   16.6664 O   0  0  0  0  0  0  0  0  0  0  0  0
   12.5093    5.7402   22.2704 C   0  0  0  0  0  0  0  0  0  0  0  0
    5.0467    7.3880   19.8750 C   0  0  0  0  0  0  0  0  0  0  0  0
   12.0435    6.6058   19.8646 C   0  0  0  0  0  0  0  0  0  0  0  0
   11.4981    8.6276   18.8264 N   0  0  0  0  0  0  0  0  0  0  0  0
    9.4577    7.1737   16.2594 C   0  0  0  0  0  0  0  0  0  0  0  0
   10.8140    8.5734   17.5492 C   0  0  0  0  0  0  0  0  0  0  0  0
    6.2849    8.9688   23.1903 C   0  0  0  0  0  0  0  0  0  0  0  0
    5.7795    7.8015   21.0631 C   0  0  0  0  0  0  0  0  0  0  0  0
   11.3108    6.1447   18.6094 C   0  0  0  0  0  0  0  0  0  0  0  0
    8.3520    6.9026   16.9423 C   0  0  0  0  0  0  0  0  0  0  0  0
    7.6599    7.0804   20.1513 C   0  0  0  0  0  0  0  0  0  0  0  0
   11.7430    6.8858   19.2733 C   0  0  0  0  0  0  0  0  0  0  0  0
   10.3561    6.3207   21.7299 C   0  0  0  0  0  0  0  0  0  0  0  0
   11.6513    6.1617   21.3531 C   0  0  0  0  0  0  0  0  0  0  0  0
    7.6089    5.7335   16.0910 O   0  0  0  0  0  0  0  0  0  0  0  0
   10.7625    7.5962   17.1918 N   0  0  0  0  0  0  0  0  0  0  0  0
    8.9284    6.7157   14.3722 O   0  0  0  0  0  0  0  0  0  0  0  0
   12.2701    5.4336   23.5753 C   0  0  0  0  0  0  0  0  0  0  0  0
    6.3628    8.1472   22.6967 N   0  0  0  0  0  0  0  0  0  0  0  0
   10.9831    5.5294   23.8841 C   0  0  0  0  0  0  0  0  0  0  0  0
   13.1831    5.0145   24.5487 O   0  0  0  0  0  0  0  0  0  0  0  0
  1  3  1  0
  1  5  4  0
  1 20  4  0
  2  8  1  0
  3 19  1  0
  4 22  4  0
  4 29  4  0
  5 11  4  0
  6  8  4  0
  6 17  4  0
  6 20  4  0
  7 14  4  0
  7 26  1  0
  9 15  2  0
 10 23  4  0
 10 27  4  0
 11 17  4  0
 12 21  1  0
 12 23  1  0
 13 15  1  0
 14 25  1  0
 15 25  1  0
 16 28  1  0
 22 23  4  0
 27 29  4  0
 27 30  1  0
M  END
$$$$

 Created by Python create_sdf_string function

 30 41  0  0  0  0  0  0  0  0999 V2000
    7.8794    6.9208   18.6320 C   0  0  0  0  0  0  0  0  0  0  0  0
    5.8503    7.0651   24.2613 P   0  0  0  0  0  0  0  0  0  0  0  0
    7.0023    8.1892   17.1033 C   0  0  0  0  0  0  0  0  0  0  0  0
    9.7270    6.4828   22.0285 C   0  0  0  0  0  0  0  0  0  0  0  0
    9.9135    6.5755   15.9036 C   0  0  0  0  0  0  0  0  0  0  0  0
    8.1117    7.1232   22.6945 C   0  0  0  0  0  0  0  0  0  0  0  0
    9.3089   10.4440   17.3676 O   0  0  0  0  0  0  0  0  0  0  0  0
   12.0145    7.2211   19.7800 N   0  0  0  0  0  0  0  0  0  0  0  0
   10.4417    9.1678   19.5292 N   0  0  0  0  0  0  0  0  0  0  0  0
   10.6356    8.3206   17.5303 C   0  0  0  0  0  0  0  0  0  0  0  0
    6.9313    8.8693   22.8328 O   0  0  0  0  0  0  0  0  0  0  0  0
    6.7319    7.7341   20.8336 C   0  0  0  0  0  0  0  0  0  0  0  0
   11.1004    5.9327   18.9417 C   0  0  0  0  0  0  0  0  0  0  0  0
    8.1432    7.5062   18.0537 C   0  0  0  0  0  0  0  0  0  0  0  0
   11.0126    6.5054   21.1235 C   0  0  0  0  0  0  0  0  0  0  0  0
   10.8635    7.6222   17.0641 N   0  0  0  0  0  0  0  0  0  0  0  0
    9.7810    5.8699   14.7085 P   0  0  0  0  0  0  0  0  0  0  0  0
   12.7223    4.9749   24.3213 C   0  0  0  0  0  0  0  0  0  0  0  0
    6.2042    8.0350   22.4777 N   0  0  0  0  0  0  0  0  0  0  0  0
   10.0268    5.4356   23.0432 C   0  0  0  0  0  0  0  0  0  0  0  0
    5.5858    7.8369   19.6063 He  0  0  0  0  0  0  0  0  0  0  0  0
    7.7241    7.7213   21.6908 He  0  0  0  0  0  0  0  0  0  0  0  0
   13.6679    4.6375   22.5839 He  0  0  0  0  0  0  0  0  0  0  0  0
    5.8409    7.1539   20.1845 He  0  0  0  0  0  0  0  0  0  0  0  0
   10.1377    6.3918   15.6272 He  0  0  0  0  0  0  0  0  0  0  0  0
    9.6282    7.3163   19.6617 He  0  0  0  0  0  0  0  0  0  0  0  0
   11.3755    7.3056   19.4110 He  0  0  0  0  0  0  0  0  0  0  0  0
   11.6215    6.0174   21.2452 He  0  0  0  0  0  0  0  0  0  0  0  0
    7.6827    7.1187   15.5755 He  0  0  0  0  0  0  0  0  0  0  0  0
   12.8451    5.1277   24.7579 He  0  0  0  0  0  0  0  0  0  0  0  0
  1  3  1  0
  1  6  1  0
  1  9  2  0
  1 15  3  0
  1 19  2  0
  2  3  3  0
  2 11  4  0
  2 16  3  0
  3  5  3  0
  4  5  1  0
  4 14  3  0
  4 20  4  0
  5 11  2  0
  5 13  2  0
  5 18  3  0
  6 13  2  0
  6 14  1  0
  6 15  4  0
  6 16  1  0
  6 17  2  0
  7 10  2  0
  8 14  4  0
  9 10  3  0
  9 12  2  0
  9 13  4  0
  9 15  3  0
 10 13  2  0
 10 16  1  0
 11 12  2  0
 11 14  3  0
 12 14  2  0
 12 16  2  0
 12 18  1  0
 12 19  3  0
 12 20  1  0
 13 17  3  0
 13 19  1  0
 15 18  1  0
 16 18  4  0
 16 20  3  0
 17 20  4  0
M  END
$$$$

 Created by Python create_sdf_string function

 30 27  0  0  0  0  0  0  0  0999 V2000
    7.8996    7.4409   19.0650 C   0  0  0  0  0  0  0  0  0  0  0  0
    6.2314    7.5605   23.7939 C   0  0  0  0  0  0  0  0  0  0  0  0
    7.7083    7.3595   17.2599 C   0  0  0  0  0  0  0  0  0  0  0  0
   10.4896    6.1970   22.3605 C   0  0  0  0  0  0  0  0  0  0  0  0
    5.8000    7.6170   19.0009 C   0  0  0  0  0  0  0  0  0  0  0  0
    8.1397    7.3911   21.7576 C   0  0  0  0  0  0  0  0  0  0  0  0
    9.8678    6.5540   15.8372 C   0  0  0  0  0  0  0  0  0  0  0  0
    7.8647    7.3357   22.6377 C   0  0  0  0  0  0  0  0  0  0  0  0
    9.8123    9.8929   17.2979 O   0  0  0  0  0  0  0  0  0  0  0  0
   13.0177    5.2456   22.5498 C   0  0  0  0  0  0  0  0  0  0  0  0
    5.6809    7.6187   20.1272 C   0  0  0  0  0  0  0  0  0  0  0  0
   11.8538    7.1888   19.7501 N   0  0  0  0  0  0  0  0  0  0  0  0
   10.5858    8.7854   19.1305 N   0  0  0  0  0  0  0  0  0  0  0  0
    9.7534    6.7927   15.7859 C   0  0  0  0  0  0  0  0  0  0  0  0
   10.2457    8.7033   17.6320 C   0  0  0  0  0  0  0  0  0  0  0  0
    6.9035    8.3733   23.2355 O   0  0  0  0  0  0  0  0  0  0  0  0
    6.7257    7.6179   20.9879 C   0  0  0  0  0  0  0  0  0  0  0  0
   10.9419    6.1655   18.9956 C   0  0  0  0  0  0  0  0  0  0  0  0
    7.5310    7.5262   18.1237 C   0  0  0  0  0  0  0  0  0  0  0  0
    9.0885    7.3472   20.0363 C   0  0  0  0  0  0  0  0  0  0  0  0
   11.3123    7.6319   19.4455 C   0  0  0  0  0  0  0  0  0  0  0  0
   11.3710    6.2992   21.2877 C   0  0  0  0  0  0  0  0  0  0  0  0
   12.5683    5.8095   21.4384 C   0  0  0  0  0  0  0  0  0  0  0  0
    8.0054    6.9546   15.6452 O   0  0  0  0  0  0  0  0  0  0  0  0
   10.5210    7.6495   16.8831 N   0  0  0  0  0  0  0  0  0  0  0  0
    9.8640    5.8258   14.7446 C   0  0  0  0  0  0  0  0  0  0  0  0
   12.2076    5.1401   23.7393 C   0  0  0  0  0  0  0  0  0  0  0  0
    6.0827    7.6852   22.1524 N   0  0  0  0  0  0  0  0  0  0  0  0
   10.9227    5.6283   23.4262 C   0  0  0  0  0  0  0  0  0  0  0  0
   12.7159    4.6597   24.8732 C   0  0  0  0  0  0  0  0  0  0  0  0
  1  3  1  0
  1 19  4  0
  1 20  4  0
  2 16  4  0
  3 19  4  0
  3 24  4  0
  4 22  4  0
  4 29  4  0
  5 11  1  0
  5 19  4  0
  6  8  4  0
  6 20  4  0
  7 14  4  0
  7 26  1  0
  9 15  2  0
 10 23  4  0
 10 27  4  0
 11 17  4  0
 12 21  2  0
 13 15  1  0
 13 21  1  0
 14 25  1  0
 15 25  1  0
 17 28  4  0
 22 23  4  0
 27 29  4  0
 27 30  1  0
M  END
$$$$

 Created by Python create_sdf_string function

 30 55  0  0  0  0  0  0  0  0999 V2000
    7.0630    8.3952   18.5183 C   0  0  0  0  0  0  0  0  0  0  0  0
    6.4445    7.2741   23.0350 C   0  0  0  0  0  0  0  0  0  0  0  0
    7.4237    6.7820   18.1780 N   0  0  0  0  0  0  0  0  0  0  0  0
    8.2015    6.9060   22.8450 C   0  0  0  0  0  0  0  0  0  0  0  0
    9.0000   10.7235   15.9070 O   0  0  0  0  0  0  0  0  0  0  0  0
   12.5534    5.1455   22.5010 C   0  0  0  0  0  0  0  0  0  0  0  0
   12.2909    6.9325   18.9890 O   0  0  0  0  0  0  0  0  0  0  0  0
    9.8814    8.7197   18.6079 S   0  0  0  0  0  0  0  0  0  0  0  0
    9.1481    9.1695   18.0666 C   0  0  0  0  0  0  0  0  0  0  0  0
    5.9002    8.7608   23.3464 C   0  0  0  0  0  0  0  0  0  0  0  0
    7.0085    7.8536   20.2441 S   0  0  0  0  0  0  0  0  0  0  0  0
   10.9025    5.0062   19.0628 Br  0  0  0  0  0  0  0  0  0  0  0  0
    7.7648    6.6409   17.9290 C   0  0  0  0  0  0  0  0  0  0  0  0
    9.5948    6.8255   19.9997 C   0  0  0  0  0  0  0  0  0  0  0  0
   12.4724    6.3014   20.8883 C   0  0  0  0  0  0  0  0  0  0  0  0
    8.1685    6.7534   15.8436 O   0  0  0  0  0  0  0  0  0  0  0  0
   10.2837    7.5869   17.1707 N   0  0  0  0  0  0  0  0  0  0  0  0
   11.7120    5.0948   23.7206 N   0  0  0  0  0  0  0  0  0  0  0  0
    5.9737    7.1698   22.2062 N   0  0  0  0  0  0  0  0  0  0  0  0
   10.0246    5.7282   23.4815 S   0  0  0  0  0  0  0  0  0  0  0  0
   12.4708    5.0381   24.7746 C   0  0  0  0  0  0  0  0  0  0  0  0
   10.5994    6.2800   22.6685 He  0  0  0  0  0  0  0  0  0  0  0  0
    6.2949    8.0272   18.5578 He  0  0  0  0  0  0  0  0  0  0  0  0
    8.5923    7.9603   21.8329 He  0  0  0  0  0  0  0  0  0  0  0  0
   11.1412    7.3172   15.4324 He  0  0  0  0  0  0  0  0  0  0  0  0
    5.7694    8.7071   19.5315 He  0  0  0  0  0  0  0  0  0  0  0  0
    9.6600    6.5513   16.3143 He  0  0  0  0  0  0  0  0  0  0  0  0
   11.5998    7.6171   19.4133 He  0  0  0  0  0  0  0  0  0  0  0  0
   12.3485    5.9083   21.0936 He  0  0  0  0  0  0  0  0  0  0  0  0
    9.9900    6.8152   15.4323 He  0  0  0  0  0  0  0  0  0  0  0  0
  1  2  3  0
  1  3  2  0
  1  5  4  0
  1 10  2  0
  1 13  4  0
  1 15  4  0
  2 10  4  0
  2 11  1  0
  2 12  4  0
  2 14  1  0
  2 15  1  0
  2 16  1  0
  2 20  2  0
  2 21  3  0
  3 13  4  0
  3 14  3  0
  3 15  4  0
  3 16  1  0
  3 20  2  0
  4  7  4  0
  4 16  4  0
  4 18  3  0
  5  6  2  0
  5  9  2  0
  5 14  1  0
  5 19  2  0
  7  9  2  0
  7 14  2  0
  7 18  1  0
  7 20  1  0
  8 13  2  0
  8 14  2  0
  8 16  3  0
  8 18  3  0
  8 20  1  0
  9 13  2  0
  9 17  4  0
  9 19  1  0
 10 11  2  0
 10 14  2  0
 10 15  1  0
 10 18  1  0
 10 19  4  0
 10 20  3  0
 11 14  3  0
 11 16  3  0
 11 19  4  0
 12 16  3  0
 12 18  2  0
 12 20  1  0
 13 15  4  0
 15 16  3  0
 17 20  2  0
 18 19  1  0
 18 20  4  0
M  END
$$$$

 Created by Python create_sdf_string function

 30 27  0  0  0  0  0  0  0  0999 V2000
    7.3894    8.1833   18.5217 C   0  0  0  0  0  0  0  0  0  0  0  0
    6.9214    7.7410   23.3532 C   0  0  0  0  0  0  0  0  0  0  0  0
    7.5118    6.6347   17.7242 N   0  0  0  0  0  0  0  0  0  0  0  0
   10.4061    6.4230   22.3682 C   0  0  0  0  0  0  0  0  0  0  0  0
    6.4131    7.9467   19.3011 C   0  0  0  0  0  0  0  0  0  0  0  0
    8.3825    7.2929   21.8851 C   0  0  0  0  0  0  0  0  0  0  0  0
   10.8828    7.3573   15.8455 C   0  0  0  0  0  0  0  0  0  0  0  0
    8.1126    7.2783   22.5735 C   0  0  0  0  0  0  0  0  0  0  0  0
    9.1352   10.1171   16.7262 O   0  0  0  0  0  0  0  0  0  0  0  0
   12.4776    5.2620   22.3374 C   0  0  0  0  0  0  0  0  0  0  0  0
    5.3978    8.5856   19.3433 O   0  0  0  0  0  0  0  0  0  0  0  0
   12.4868    7.3560   18.9098 O   0  0  0  0  0  0  0  0  0  0  0  0
   10.3883    8.4725   18.6773 C   0  0  0  0  0  0  0  0  0  0  0  0
    9.4157    6.6571   15.9455 C   0  0  0  0  0  0  0  0  0  0  0  0
    9.3235    8.8445   17.3035 C   0  0  0  0  0  0  0  0  0  0  0  0
    6.1296    7.8806   23.0403 C   0  0  0  0  0  0  0  0  0  0  0  0
    6.8096    7.7518   20.7852 C   0  0  0  0  0  0  0  0  0  0  0  0
   11.5716    4.9679   19.6924 Br  0  0  0  0  0  0  0  0  0  0  0  0
    8.0238    7.2178   17.6788 C   0  0  0  0  0  0  0  0  0  0  0  0
    9.1954    7.3655   20.6894 C   0  0  0  0  0  0  0  0  0  0  0  0
   11.6166    7.4673   19.4679 C   0  0  0  0  0  0  0  0  0  0  0  0
   11.4340    6.4628   21.1774 C   0  0  0  0  0  0  0  0  0  0  0  0
   11.8414    5.7550   21.1930 C   0  0  0  0  0  0  0  0  0  0  0  0
    8.2468    6.1774   16.1593 C   0  0  0  0  0  0  0  0  0  0  0  0
    9.9478    7.9428   17.2482 N   0  0  0  0  0  0  0  0  0  0  0  0
    9.9718    6.7125   15.4939 C   0  0  0  0  0  0  0  0  0  0  0  0
   11.8225    5.3074   23.5735 C   0  0  0  0  0  0  0  0  0  0  0  0
    6.0485    7.7312   21.6376 C   0  0  0  0  0  0  0  0  0  0  0  0
   10.5865    5.8956   23.3945 C   0  0  0  0  0  0  0  0  0  0  0  0
   12.3495    4.8238   24.5899 C   0  0  0  0  0  0  0  0  0  0  0  0
  1  5  4  0
  1 19  4  0
  2  8  4  0
  2 16  4  0
  3 19  4  0
  4 22  4  0
  4 29  4  0
  5 11  1  0
  5 17  1  0
  6  8  4  0
  7 14  4  0
  7 26  4  0
  9 15  2  0
 10 23  4  0
 10 27  4  0
 12 21  2  0
 13 21  1  0
 14 24  4  0
 14 26  4  0
 15 25  4  0
 16 28  4  0
 17 28  4  0
 18 23  1  0
 21 22  1  0
 22 23  4  0
 27 29  4  0
 27 30  1  0
M  END
$$$$

 Created by Python create_sdf_string function

 30 58  0  0  0  0  0  0  0  0999 V2000
    6.3922    8.7280   23.4995 C   0  0  0  0  0  0  0  0  0  0  0  0
    6.5250    6.9638   17.9829 N   0  0  0  0  0  0  0  0  0  0  0  0
   10.7787    6.8628   21.8596 C   0  0  0  0  0  0  0  0  0  0  0  0
    7.0847    8.1028   18.0940 C   0  0  0  0  0  0  0  0  0  0  0  0
    8.2605    7.7118   22.3192 C   0  0  0  0  0  0  0  0  0  0  0  0
   10.8690    6.8091   15.5077 C   0  0  0  0  0  0  0  0  0  0  0  0
    5.2562    9.3742   20.0381 O   0  0  0  0  0  0  0  0  0  0  0  0
   10.6747    9.3459   17.5848 I   0  0  0  0  0  0  0  0  0  0  0  0
    8.5414    6.6294   16.3182 C   0  0  0  0  0  0  0  0  0  0  0  0
    9.4974    8.9660   17.3699 C   0  0  0  0  0  0  0  0  0  0  0  0
    5.0545    7.3982   22.4431 N   0  0  0  0  0  0  0  0  0  0  0  0
    6.5981    6.9771   20.1479 C   0  0  0  0  0  0  0  0  0  0  0  0
    8.1131    6.7578   17.4685 C   0  0  0  0  0  0  0  0  0  0  0  0
   11.2038    7.4202   19.9918 N   0  0  0  0  0  0  0  0  0  0  0  0
   11.5610    5.9644   19.9801 C   0  0  0  0  0  0  0  0  0  0  0  0
   10.6511    6.0298   20.9933 C   0  0  0  0  0  0  0  0  0  0  0  0
    8.7462    6.6717   16.5630 C   0  0  0  0  0  0  0  0  0  0  0  0
    8.9630    7.7364   16.6485 C   0  0  0  0  0  0  0  0  0  0  0  0
   10.4600    6.9215   15.6029 C   0  0  0  0  0  0  0  0  0  0  0  0
    5.9150    8.0669   21.1779 C   0  0  0  0  0  0  0  0  0  0  0  0
   10.1435    4.9450   23.1603 O   0  0  0  0  0  0  0  0  0  0  0  0
    7.8619    8.6669   18.9394 He  0  0  0  0  0  0  0  0  0  0  0  0
    8.3526    7.8677   22.9593 He  0  0  0  0  0  0  0  0  0  0  0  0
    8.5468   10.2671   17.0180 He  0  0  0  0  0  0  0  0  0  0  0  0
   13.2729    5.4780   21.8501 He  0  0  0  0  0  0  0  0  0  0  0  0
   12.0011    6.9811   19.4319 He  0  0  0  0  0  0  0  0  0  0  0  0
   12.4876    5.0691   19.8127 He  0  0  0  0  0  0  0  0  0  0  0  0
    9.1194    7.9459   20.5581 He  0  0  0  0  0  0  0  0  0  0  0  0
   11.7919    4.9921   23.0674 He  0  0  0  0  0  0  0  0  0  0  0  0
   12.4920    3.9685   24.6203 He  0  0  0  0  0  0  0  0  0  0  0  0
  1  3  4  0
  1  7  3  0
  1 11  2  0
  1 15  1  0
  1 20  2  0
  2  3  1  0
  2 11  2  0
  2 13  3  0
  2 14  3  0
  2 15  1  0
  2 17  1  0
  2 20  4  0
  3  4  3  0
  3 15  4  0
  3 19  4  0
  3 20  2  0
  4 12  1  0
  4 14  2  0
  4 15  2  0
  5 15  4  0
  5 20  1  0
  6  9  4  0
  6 16  3  0
  6 19  4  0
  7  9  3  0
  7 11  4  0
  7 14  3  0
  7 16  3  0
  8 11  4  0
  8 13  4  0
  8 14  1  0
  8 20  2  0
  9 13  3  0
  9 14  4  0
  9 15  2  0
  9 17  4  0
  9 19  4  0
 10 11  1  0
 10 13  3  0
 10 14  2  0
 10 17  2  0
 10 19  4  0
 11 13  3  0
 11 15  1  0
 12 14  2  0
 12 19  3  0
 12 20  2  0
 13 14  1  0
 13 21  2  0
 14 15  1  0
 14 17  3  0
 14 20  1  0
 15 17  3  0
 15 21  2  0
 16 17  4  0
 17 18  2  0
 17 20  1  0
 20 21  1  0
M  END
$$$$

 Created by Python create_sdf_string function

 30 24  0  0  0  0  0  0  0  0999 V2000
    7.9162    8.5784   18.8329 C   0  0  0  0  0  0  0  0  0  0  0  0
    6.3975    8.3479   23.4109 C   0  0  0  0  0  0  0  0  0  0  0  0
    6.8164    6.4518   17.8169 O   0  0  0  0  0  0  0  0  0  0  0  0
   10.4973    6.5385   21.7405 C   0  0  0  0  0  0  0  0  0  0  0  0
    6.9627    7.9926   19.0513 C   0  0  0  0  0  0  0  0  0  0  0  0
    7.9532    7.8307   21.9385 C   0  0  0  0  0  0  0  0  0  0  0  0
   10.2457    6.7810   15.5837 C   0  0  0  0  0  0  0  0  0  0  0  0
    8.1196    7.5417   22.7808 C   0  0  0  0  0  0  0  0  0  0  0  0
    8.9028    9.9871   17.3815 O   0  0  0  0  0  0  0  0  0  0  0  0
   12.5545    5.0580   21.7873 C   0  0  0  0  0  0  0  0  0  0  0  0
    5.4590    9.1254   19.8111 O   0  0  0  0  0  0  0  0  0  0  0  0
   12.1116    6.8649   19.3270 C   0  0  0  0  0  0  0  0  0  0  0  0
   10.5297    9.4379   17.8671 O   0  0  0  0  0  0  0  0  0  0  0  0
    8.9460    5.9902   15.8180 C   0  0  0  0  0  0  0  0  0  0  0  0
    9.4977    8.6937   17.0514 C   0  0  0  0  0  0  0  0  0  0  0  0
    5.3925    7.6999   22.3891 N   0  0  0  0  0  0  0  0  0  0  0  0
    6.4803    7.4922   20.2497 C   0  0  0  0  0  0  0  0  0  0  0  0
   12.4626    5.5139   20.3054 C   0  0  0  0  0  0  0  0  0  0  0  0
    7.8516    7.1961   17.5995 C   0  0  0  0  0  0  0  0  0  0  0  0
    8.8848    7.8412   20.8914 N   0  0  0  0  0  0  0  0  0  0  0  0
   11.2645    7.5198   19.8087 N   0  0  0  0  0  0  0  0  0  0  0  0
   11.6552    6.3959   20.5013 C   0  0  0  0  0  0  0  0  0  0  0  0
   10.9148    6.2911   21.5887 C   0  0  0  0  0  0  0  0  0  0  0  0
    8.4742    6.1961   16.3942 C   0  0  0  0  0  0  0  0  0  0  0  0
    8.7117    7.8696   17.2480 C   0  0  0  0  0  0  0  0  0  0  0  0
   10.3342    7.6357   15.8947 C   0  0  0  0  0  0  0  0  0  0  0  0
   11.6742    4.9208   23.2254 C   0  0  0  0  0  0  0  0  0  0  0  0
    6.4167    8.0042   21.4649 C   0  0  0  0  0  0  0  0  0  0  0  0
   10.4584    5.3215   23.4791 O   0  0  0  0  0  0  0  0  0  0  0  0
   12.3183    4.1782   24.1988 O   0  0  0  0  0  0  0  0  0  0  0  0
  1  5  1  0
  2 16  1  0
  3 19  1  0
  4 22  4  0
  4 23  4  0
  5 17  1  0
  6  8  1  0
  6 20  1  0
  6 28  1  0
  7 14  4  0
  7 26  4  0
  9 15  1  0
 10 18  4  0
 10 27  4  0
 14 24  4  0
 15 25  4  0
 15 26  4  0
 16 28  1  0
 17 28  1  0
 18 22  4  0
 19 25  4  0
 21 22  1  0
 27 29  4  0
 27 30  1  0
M  END
$$$$

 Created by Python create_sdf_string function

 30 62  0  0  0  0  0  0  0  0999 V2000
    8.1428    9.0641   18.8002 F   0  0  0  0  0  0  0  0  0  0  0  0
    6.7713    8.6299   24.0250 C   0  0  0  0  0  0  0  0  0  0  0  0
   10.4809    6.6989   22.1895 C   0  0  0  0  0  0  0  0  0  0  0  0
    6.9125    7.4517   19.8838 C   0  0  0  0  0  0  0  0  0  0  0  0
    8.1087    8.5034   21.7279 C   0  0  0  0  0  0  0  0  0  0  0  0
   10.0287    6.0966   15.6783 C   0  0  0  0  0  0  0  0  0  0  0  0
    8.3040    7.6756   22.1632 C   0  0  0  0  0  0  0  0  0  0  0  0
    9.6334   10.6175   16.4842 O   0  0  0  0  0  0  0  0  0  0  0  0
   11.9261    5.7346   21.6826 C   0  0  0  0  0  0  0  0  0  0  0  0
    6.2778    7.7787   20.0619 O   0  0  0  0  0  0  0  0  0  0  0  0
    8.9819    5.5487   15.4646 S   0  0  0  0  0  0  0  0  0  0  0  0
    9.5066    9.0952   17.1170 C   0  0  0  0  0  0  0  0  0  0  0  0
    5.3510    7.3375   23.6111 N   0  0  0  0  0  0  0  0  0  0  0  0
    6.3837    7.3413   19.8190 N   0  0  0  0  0  0  0  0  0  0  0  0
    8.8002    7.6762   20.6608 N   0  0  0  0  0  0  0  0  0  0  0  0
   11.4728    7.9837   19.6772 N   0  0  0  0  0  0  0  0  0  0  0  0
   10.6212    6.6050   19.9975 C   0  0  0  0  0  0  0  0  0  0  0  0
   10.8093    6.9936   20.9208 C   0  0  0  0  0  0  0  0  0  0  0  0
    8.6840    6.4174   16.1002 C   0  0  0  0  0  0  0  0  0  0  0  0
    9.7899    7.9716   17.1041 C   0  0  0  0  0  0  0  0  0  0  0  0
   10.6174    7.7547   15.0876 C   0  0  0  0  0  0  0  0  0  0  0  0
   10.6856    4.5321   22.5037 C   0  0  0  0  0  0  0  0  0  0  0  0
    9.9067    5.0812   23.3981 O   0  0  0  0  0  0  0  0  0  0  0  0
   12.7761    4.3073   24.0436 O   0  0  0  0  0  0  0  0  0  0  0  0
    6.3141    6.5424   16.9656 He  0  0  0  0  0  0  0  0  0  0  0  0
   12.6151    6.5306   19.4959 He  0  0  0  0  0  0  0  0  0  0  0  0
   11.2183    9.0737   17.9483 He  0  0  0  0  0  0  0  0  0  0  0  0
   11.9237    5.4091   19.8425 He  0  0  0  0  0  0  0  0  0  0  0  0
    8.6058    6.5796   17.6861 He  0  0  0  0  0  0  0  0  0  0  0  0
    6.9686    8.9963   20.7407 He  0  0  0  0  0  0  0  0  0  0  0  0
  1  6  2  0
  1  8  3  0
  1 17  2  0
  1 18  3  0
  1 24  4  0
  2  4  4  0
  2  7  3  0
  2  9  3  0
  2 13  1  0
  2 18  1  0
  2 19  4  0
  2 22  2  0
  3  5  2  0
  3 10  4  0
  3 21  2  0
  3 23  4  0
  4  5  1  0
  4 10  3  0
  4 12  4  0
  4 20  4  0
  5  8  1  0
  5 10  4  0
  6  7  1  0
  6 11  4  0
  6 14  2  0
  6 21  4  0
  7  9  2  0
  7 20  2  0
  7 21  1  0
  8 12  1  0
  8 19  2  0
  8 21  4  0
  8 23  4  0
  9 11  4  0
  9 16  3  0
  9 20  2  0
  9 21  2  0
  9 22  4  0
 10 15  4  0
 10 20  2  0
 10 21  4  0
 10 22  3  0
 10 24  3  0
 11 18  3  0
 11 19  4  0
 12 19  1  0
 13 16  4  0
 13 18  3  0
 14 19  4  0
 14 24  2  0
 15 18  4  0
 16 19  1  0
 16 21  3  0
 17 20  2  0
 17 22  1  0
 18 20  1  0
 18 23  4  0
 19 21  3  0
 20 22  3  0
 20 23  3  0
 21 24  3  0
 22 24  1  0
M  END
$$$$

 Created by Python create_sdf_string function

 30 28  0  0  0  0  0  0  0  0999 V2000
    8.0920    8.5395   18.7998 C   0  0  0  0  0  0  0  0  0  0  0  0
    6.7379    8.3110   23.6728 C   0  0  0  0  0  0  0  0  0  0  0  0
    7.2510    6.5132   17.4763 O   0  0  0  0  0  0  0  0  0  0  0  0
    9.8431    6.4870   22.3866 C   0  0  0  0  0  0  0  0  0  0  0  0
    6.7959    7.5730   19.3575 C   0  0  0  0  0  0  0  0  0  0  0  0
    8.0682    8.1365   21.7095 C   0  0  0  0  0  0  0  0  0  0  0  0
   10.1200    6.4479   15.2268 C   0  0  0  0  0  0  0  0  0  0  0  0
    7.8643    8.0357   22.7756 C   0  0  0  0  0  0  0  0  0  0  0  0
    9.7860   10.1808   16.6413 O   0  0  0  0  0  0  0  0  0  0  0  0
   12.0459    5.0209   21.4999 C   0  0  0  0  0  0  0  0  0  0  0  0
    5.7476    7.5623   20.1087 O   0  0  0  0  0  0  0  0  0  0  0  0
   12.7349    6.3149   19.3185 C   0  0  0  0  0  0  0  0  0  0  0  0
   10.9122    9.3780   17.8643 O   0  0  0  0  0  0  0  0  0  0  0  0
    9.0821    5.6854   15.3773 C   0  0  0  0  0  0  0  0  0  0  0  0
    9.9483    9.1933   17.1761 C   0  0  0  0  0  0  0  0  0  0  0  0
    5.6813    7.7388   23.4232 N   0  0  0  0  0  0  0  0  0  0  0  0
    6.5178    7.7865   19.7985 N   0  0  0  0  0  0  0  0  0  0  0  0
   11.9391    5.8524   20.4263 C   0  0  0  0  0  0  0  0  0  0  0  0
    8.3857    7.0714   17.1320 C   0  0  0  0  0  0  0  0  0  0  0  0
    8.9653    7.8481   20.7578 N   0  0  0  0  0  0  0  0  0  0  0  0
   11.2684    7.9601   19.6513 N   0  0  0  0  0  0  0  0  0  0  0  0
   10.8988    6.8218   20.5839 C   0  0  0  0  0  0  0  0  0  0  0  0
   10.0629    7.0413   21.2388 C   0  0  0  0  0  0  0  0  0  0  0  0
    8.3949    5.8453   16.3319 C   0  0  0  0  0  0  0  0  0  0  0  0
    9.4385    7.9046   16.7745 C   0  0  0  0  0  0  0  0  0  0  0  0
   10.3747    7.4971   15.7099 C   0  0  0  0  0  0  0  0  0  0  0  0
   11.5160    4.9589   22.7539 C   0  0  0  0  0  0  0  0  0  0  0  0
    7.0705    8.6439   21.1751 C   0  0  0  0  0  0  0  0  0  0  0  0
   10.3200    5.6243   23.2844 C   0  0  0  0  0  0  0  0  0  0  0  0
   12.2079    4.1232   23.7355 O   0  0  0  0  0  0  0  0  0  0  0  0
  2  8  1  0
  2 16  1  0
  3 19  1  0
  4 23  4  0
  4 29  4  0
  5 17  1  0
  6  8  1  0
  6 20  1  0
  6 28  1  0
  7 14  4  0
  7 26  4  0
  9 15  1  0
 10 18  4  0
 10 27  4  0
 12 18  1  0
 13 15  2  0
 14 24  4  0
 15 25  1  0
 17 28  1  0
 18 22  4  0
 19 24  4  0
 19 25  4  0
 20 23  4  0
 21 22  1  0
 22 23  4  0
 25 26  4  0
 27 29  4  0
 27 30  1  0
M  END
$$$$

 Created by Python create_sdf_string function

 30 53  0  0  0  0  0  0  0  0999 V2000
    7.5004    7.8640   18.9153 N   0  0  0  0  0  0  0  0  0  0  0  0
    6.5095    8.7050   25.0484 C   0  0  0  0  0  0  0  0  0  0  0  0
    7.4912    6.7626   18.2377 O   0  0  0  0  0  0  0  0  0  0  0  0
   10.0009    6.1576   22.5440 C   0  0  0  0  0  0  0  0  0  0  0  0
    7.5232    7.3152   18.9780 C   0  0  0  0  0  0  0  0  0  0  0  0
    7.6969    7.6945   21.7761 C   0  0  0  0  0  0  0  0  0  0  0  0
   10.3499    6.4173   15.7901 C   0  0  0  0  0  0  0  0  0  0  0  0
    9.5172   10.6589   16.4068 O   0  0  0  0  0  0  0  0  0  0  0  0
   11.8560    4.8602   22.4694 C   0  0  0  0  0  0  0  0  0  0  0  0
    5.9847    7.8713   20.4650 O   0  0  0  0  0  0  0  0  0  0  0  0
   11.1751    9.1245   17.6702 S   0  0  0  0  0  0  0  0  0  0  0  0
    8.7949    5.5134   15.2131 C   0  0  0  0  0  0  0  0  0  0  0  0
    7.4190    7.0990   20.7713 N   0  0  0  0  0  0  0  0  0  0  0  0
    7.8793    6.3714   17.4239 C   0  0  0  0  0  0  0  0  0  0  0  0
    9.8517    7.3355   20.8418 O   0  0  0  0  0  0  0  0  0  0  0  0
   11.8667    8.1508   19.7170 N   0  0  0  0  0  0  0  0  0  0  0  0
   10.5267    6.5233   21.3695 C   0  0  0  0  0  0  0  0  0  0  0  0
   11.3478    7.5481   15.5184 Cl  0  0  0  0  0  0  0  0  0  0  0  0
   11.0570    4.8636   22.8614 C   0  0  0  0  0  0  0  0  0  0  0  0
    7.1819    8.6356   20.9011 O   0  0  0  0  0  0  0  0  0  0  0  0
    9.9322    5.4035   22.5541 C   0  0  0  0  0  0  0  0  0  0  0  0
   12.2563    4.0689   23.2442 F   0  0  0  0  0  0  0  0  0  0  0  0
    7.8817    7.7625   24.0574 He  0  0  0  0  0  0  0  0  0  0  0  0
   13.5496    6.0032   19.4676 He  0  0  0  0  0  0  0  0  0  0  0  0
    9.6919    8.4937   17.5615 He  0  0  0  0  0  0  0  0  0  0  0  0
    5.5465    8.3075   23.8977 He  0  0  0  0  0  0  0  0  0  0  0  0
   12.1018    5.8674   20.2491 He  0  0  0  0  0  0  0  0  0  0  0  0
   10.7846    6.2253   20.8595 He  0  0  0  0  0  0  0  0  0  0  0  0
    8.4415    6.5204   15.9359 He  0  0  0  0  0  0  0  0  0  0  0  0
    9.3543    8.3098   17.4330 He  0  0  0  0  0  0  0  0  0  0  0  0
  1  2  3  0
  1 16  3  0
  1 18  1  0
  2  8  1  0
  2  9  2  0
  2 10  4  0
  2 16  4  0
  2 17  4  0
  3  6  3  0
  3  9  4  0
  3 14  1  0
  4  6  4  0
  4  9  1  0
  4 10  4  0
  4 19  3  0
  4 21  4  0
  5  8  4  0
  5 13  1  0
  5 20  2  0
  5 21  1  0
  5 22  4  0
  6 12  2  0
  6 20  1  0
  7  9  4  0
  7 11  3  0
  7 12  4  0
  7 15  2  0
  7 18  4  0
  7 21  1  0
  8 14  1  0
  8 17  2  0
  8 21  1  0
  9 11  3  0
  9 12  1  0
  9 14  2  0
  9 19  4  0
 10 13  2  0
 10 16  1  0
 11 20  4  0
 12 21  4  0
 12 22  1  0
 13 14  1  0
 13 15  4  0
 13 20  4  0
 13 22  1  0
 14 20  1  0
 15 16  3  0
 15 21  3  0
 17 21  2  0
 18 19  1  0
 18 20  1  0
 19 21  4  0
 19 22  1  0
M  END
$$$$

 Created by Python create_sdf_string function

 30 31  0  0  0  0  0  0  0  0999 V2000
    7.9326    8.7253   18.7185 N   0  0  0  0  0  0  0  0  0  0  0  0
    6.8352    8.4927   24.4893 C   0  0  0  0  0  0  0  0  0  0  0  0
    7.3341    6.7334   18.0499 O   0  0  0  0  0  0  0  0  0  0  0  0
    9.8314    6.2314   22.3535 C   0  0  0  0  0  0  0  0  0  0  0  0
    7.5719    7.4610   19.1079 C   0  0  0  0  0  0  0  0  0  0  0  0
    7.7710    7.8082   22.5108 C   0  0  0  0  0  0  0  0  0  0  0  0
   10.3022    6.3545   15.2265 C   0  0  0  0  0  0  0  0  0  0  0  0
    7.7254    7.7363   23.8485 C   0  0  0  0  0  0  0  0  0  0  0  0
    9.2479   10.1470   16.7246 O   0  0  0  0  0  0  0  0  0  0  0  0
   12.1574    4.9787   21.8592 C   0  0  0  0  0  0  0  0  0  0  0  0
    5.7695    7.6819   20.3836 O   0  0  0  0  0  0  0  0  0  0  0  0
   13.0513    6.0979   19.8391 C   0  0  0  0  0  0  0  0  0  0  0  0
   10.8437    9.4687   17.8837 O   0  0  0  0  0  0  0  0  0  0  0  0
    9.1336    5.6040   15.2129 C   0  0  0  0  0  0  0  0  0  0  0  0
    9.6272    9.0736   17.4870 C   0  0  0  0  0  0  0  0  0  0  0  0
    5.7458    8.4016   23.7816 O   0  0  0  0  0  0  0  0  0  0  0  0
    7.4597    7.5737   20.5106 C   0  0  0  0  0  0  0  0  0  0  0  0
   12.5569    5.5413   20.8631 N   0  0  0  0  0  0  0  0  0  0  0  0
    8.3320    6.8155   17.0293 C   0  0  0  0  0  0  0  0  0  0  0  0
    9.5527    7.4407   20.7745 C   0  0  0  0  0  0  0  0  0  0  0  0
   11.9722    7.3318   19.6610 N   0  0  0  0  0  0  0  0  0  0  0  0
   11.1420    6.5176   20.9949 C   0  0  0  0  0  0  0  0  0  0  0  0
   10.5490    6.6523   21.1587 C   0  0  0  0  0  0  0  0  0  0  0  0
    8.2209    5.8528   16.0925 C   0  0  0  0  0  0  0  0  0  0  0  0
    9.4151    7.7468   16.8355 C   0  0  0  0  0  0  0  0  0  0  0  0
   10.4313    7.4372   16.0000 C   0  0  0  0  0  0  0  0  0  0  0  0
   11.3693    4.8271   22.8090 C   0  0  0  0  0  0  0  0  0  0  0  0
    7.2714    8.2414   21.4755 O   0  0  0  0  0  0  0  0  0  0  0  0
   10.1392    5.5024   23.0524 C   0  0  0  0  0  0  0  0  0  0  0  0
   12.0373    3.8681   23.5283 C   0  0  0  0  0  0  0  0  0  0  0  0
  1  5  1  0
  1 15  1  0
  2  8  1  0
  2 16  1  0
  3  5  1  0
  3 19  1  0
  4 23  4  0
  4 29  4  0
  5 17  1  0
  6  8  1  0
  6 28  1  0
  7 14  4  0
  7 26  4  0
  9 15  1  0
 10 18  4  0
 10 27  4  0
 11 17  2  0
 12 18  4  0
 12 21  4  0
 13 15  2  0
 14 24  4  0
 15 25  1  0
 17 28  1  0
 18 22  4  0
 19 24  4  0
 19 25  4  0
 21 22  4  0
 22 23  4  0
 25 26  4  0
 27 29  4  0
 27 30  1  0
M  END
$$$$

 Created by Python create_sdf_string function

 30 42  0  0  0  0  0  0  0  0999 V2000
    8.2510    6.9222   18.2669 O   0  0  0  0  0  0  0  0  0  0  0  0
   10.0606    6.7507   21.5074 C   0  0  0  0  0  0  0  0  0  0  0  0
    7.7407    7.9716   19.6225 F   0  0  0  0  0  0  0  0  0  0  0  0
   10.7421    6.7953   15.2426 Cl  0  0  0  0  0  0  0  0  0  0  0  0
    9.6268   10.4729   16.9068 F   0  0  0  0  0  0  0  0  0  0  0  0
    4.9517    8.2040   20.2462 O   0  0  0  0  0  0  0  0  0  0  0  0
   12.9822    6.1029   19.5770 C   0  0  0  0  0  0  0  0  0  0  0  0
   10.6474    9.7557   18.4471 O   0  0  0  0  0  0  0  0  0  0  0  0
    9.4347    5.6646   15.1824 C   0  0  0  0  0  0  0  0  0  0  0  0
    7.9512    7.8592   19.5708 B   0  0  0  0  0  0  0  0  0  0  0  0
   12.3876    5.3499   20.6294 N   0  0  0  0  0  0  0  0  0  0  0  0
    7.9466    6.0187   17.1341 C   0  0  0  0  0  0  0  0  0  0  0  0
    8.6155    6.8716   21.1179 C   0  0  0  0  0  0  0  0  0  0  0  0
   11.1524    7.6195   19.9354 O   0  0  0  0  0  0  0  0  0  0  0  0
   10.4867    6.0414   21.3220 N   0  0  0  0  0  0  0  0  0  0  0  0
    9.9021    6.6631   20.5531 C   0  0  0  0  0  0  0  0  0  0  0  0
    7.9236    5.3333   15.9110 C   0  0  0  0  0  0  0  0  0  0  0  0
   11.1523    7.9565   15.5717 C   0  0  0  0  0  0  0  0  0  0  0  0
    8.8382    6.2404   23.7195 C   0  0  0  0  0  0  0  0  0  0  0  0
   11.3013    3.3193   23.4423 C   0  0  0  0  0  0  0  0  0  0  0  0
    8.4854    8.2497   19.3057 He  0  0  0  0  0  0  0  0  0  0  0  0
    6.8868    8.5747   23.0238 He  0  0  0  0  0  0  0  0  0  0  0  0
    7.9895    8.0042   23.4221 He  0  0  0  0  0  0  0  0  0  0  0  0
    7.6102    8.4522   23.5096 He  0  0  0  0  0  0  0  0  0  0  0  0
   12.2901    5.5195   21.7845 He  0  0  0  0  0  0  0  0  0  0  0  0
    9.6279    8.3304   17.2945 He  0  0  0  0  0  0  0  0  0  0  0  0
    5.4925    8.5770   24.2858 He  0  0  0  0  0  0  0  0  0  0  0  0
    8.9200    7.8164   16.2707 He  0  0  0  0  0  0  0  0  0  0  0  0
   11.3057    5.1860   22.8840 He  0  0  0  0  0  0  0  0  0  0  0  0
    7.6304    8.7461   21.8306 He  0  0  0  0  0  0  0  0  0  0  0  0
  1  3  1  0
  1  5  4  0
  1  6  3  0
  1  9  4  0
  1 17  1  0
  2 10  4  0
  2 16  3  0
  2 17  4  0
  2 19  2  0
  3  4  2  0
  3  8  3  0
  3 10  1  0
  3 17  2  0
  4  7  2  0
  4  9  4  0
  4 14  2  0
  5 10  2  0
  5 12  2  0
  5 15  4  0
  5 16  2  0
  5 19  2  0
  6 10  2  0
  6 13  3  0
  6 14  2  0
  6 17  3  0
  7 11  4  0
  7 14  4  0
  7 17  2  0
  7 19  3  0
  8 13  2  0
  9 10  3  0
  9 17  4  0
 10 18  3  0
 11 15  4  0
 11 18  3  0
 12 16  3  0
 12 17  1  0
 13 14  1  0
 14 15  4  0
 14 19  4  0
 15 18  2  0
 17 20  2  0
M  END
$$$$

 Created by Python create_sdf_string function

 30 32  0  0  0  0  0  0  0  0999 V2000
    8.5713    8.7901   18.8782 C   0  0  0  0  0  0  0  0  0  0  0  0
    6.4155    8.6798   23.1613 C   0  0  0  0  0  0  0  0  0  0  0  0
    7.6542    6.9367   17.9621 O   0  0  0  0  0  0  0  0  0  0  0  0
   10.1508    6.1957   22.0426 C   0  0  0  0  0  0  0  0  0  0  0  0
    7.7723    7.8907   19.0008 C   0  0  0  0  0  0  0  0  0  0  0  0
    8.1361    7.6806   23.1301 C   0  0  0  0  0  0  0  0  0  0  0  0
   10.4018    6.4605   14.9994 C   0  0  0  0  0  0  0  0  0  0  0  0
    7.2781    8.3921   23.8735 N   0  0  0  0  0  0  0  0  0  0  0  0
    9.5072   10.0741   16.5288 O   0  0  0  0  0  0  0  0  0  0  0  0
   12.1380    5.0884   21.8558 C   0  0  0  0  0  0  0  0  0  0  0  0
    5.8568    8.0673   20.2451 O   0  0  0  0  0  0  0  0  0  0  0  0
   12.7361    6.1756   19.7669 C   0  0  0  0  0  0  0  0  0  0  0  0
   10.5257    9.5680   18.4286 O   0  0  0  0  0  0  0  0  0  0  0  0
    9.4681    5.4758   15.0728 C   0  0  0  0  0  0  0  0  0  0  0  0
    9.4277    9.0517   17.4497 C   0  0  0  0  0  0  0  0  0  0  0  0
    5.5916    8.5970   23.9158 O   0  0  0  0  0  0  0  0  0  0  0  0
    7.1656    7.9066   20.1496 C   0  0  0  0  0  0  0  0  0  0  0  0
   12.6608    5.4280   20.8433 N   0  0  0  0  0  0  0  0  0  0  0  0
    8.4562    6.7182   16.9098 C   0  0  0  0  0  0  0  0  0  0  0  0
    8.4617    7.2010   21.0676 C   0  0  0  0  0  0  0  0  0  0  0  0
   11.4637    6.9646   19.7713 N   0  0  0  0  0  0  0  0  0  0  0  0
   10.7508    6.4743   20.8947 N   0  0  0  0  0  0  0  0  0  0  0  0
    9.9150    6.5709   21.0608 C   0  0  0  0  0  0  0  0  0  0  0  0
    8.5236    5.6108   15.9590 C   0  0  0  0  0  0  0  0  0  0  0  0
    9.3639    7.7004   16.6267 C   0  0  0  0  0  0  0  0  0  0  0  0
   10.3200    7.5667   15.6737 C   0  0  0  0  0  0  0  0  0  0  0  0
   11.4484    4.9370   22.6888 C   0  0  0  0  0  0  0  0  0  0  0  0
    7.5582    8.2519   21.9035 N   0  0  0  0  0  0  0  0  0  0  0  0
    9.1126    6.5949   23.4011 C   0  0  0  0  0  0  0  0  0  0  0  0
   11.4791    4.1140   23.4450 C   0  0  0  0  0  0  0  0  0  0  0  0
  1  5  1  0
  1 15  1  0
  2  8  1  0
  2 16  2  0
  2 28  1  0
  3  5  1  0
  3 19  1  0
  4 23  4  0
  5 17  1  0
  6  8  1  0
  6 28  1  0
  6 29  1  0
  7 14  4  0
  7 26  4  0
  9 15  1  0
 10 18  4  0
 10 27  4  0
 11 17  2  0
 12 18  4  0
 12 21  4  0
 13 15  2  0
 14 24  4  0
 15 25  1  0
 17 20  1  0
 17 28  1  0
 19 24  4  0
 19 25  4  0
 20 23  1  0
 21 22  4  0
 22 23  4  0
 25 26  4  0
 27 30  1  0
M  END
$$$$

 Created by Python create_sdf_string function

 30 72  0  0  0  0  0  0  0  0999 V2000
    8.2057    8.9937   19.2834 O   0  0  0  0  0  0  0  0  0  0  0  0
    7.0451    8.1607   23.9518 C   0  0  0  0  0  0  0  0  0  0  0  0
    7.8186    7.7598   18.1828 O   0  0  0  0  0  0  0  0  0  0  0  0
    7.6959    7.8612   19.2200 C   0  0  0  0  0  0  0  0  0  0  0  0
    8.5019    8.5028   24.0262 C   0  0  0  0  0  0  0  0  0  0  0  0
   10.2696    6.7343   14.8079 C   0  0  0  0  0  0  0  0  0  0  0  0
    7.2200    8.8545   24.3818 N   0  0  0  0  0  0  0  0  0  0  0  0
    8.3106   10.3740   17.0616 O   0  0  0  0  0  0  0  0  0  0  0  0
    5.5357    7.1572   19.9841 B   0  0  0  0  0  0  0  0  0  0  0  0
   12.0986    5.6672   19.7085 C   0  0  0  0  0  0  0  0  0  0  0  0
   11.0104    8.5135   17.2970 O   0  0  0  0  0  0  0  0  0  0  0  0
   10.1548    6.0055   15.2435 C   0  0  0  0  0  0  0  0  0  0  0  0
    9.2502    8.5352   17.7416 C   0  0  0  0  0  0  0  0  0  0  0  0
    5.2628    8.2528   24.0081 O   0  0  0  0  0  0  0  0  0  0  0  0
   13.1706    5.1635   20.5378 N   0  0  0  0  0  0  0  0  0  0  0  0
    8.6123    6.1245   17.4433 C   0  0  0  0  0  0  0  0  0  0  0  0
    8.4278    7.9626   21.3122 C   0  0  0  0  0  0  0  0  0  0  0  0
   10.2956    7.0555   20.6433 C   0  0  0  0  0  0  0  0  0  0  0  0
    9.7964    6.4801   20.2051 F   0  0  0  0  0  0  0  0  0  0  0  0
    9.4917    6.1863   15.8103 C   0  0  0  0  0  0  0  0  0  0  0  0
    9.6284    6.9421   16.2561 C   0  0  0  0  0  0  0  0  0  0  0  0
    9.8946    7.1751   16.1744 N   0  0  0  0  0  0  0  0  0  0  0  0
   11.2924    4.7663   22.1951 S   0  0  0  0  0  0  0  0  0  0  0  0
    7.5094    8.4715   21.6971 N   0  0  0  0  0  0  0  0  0  0  0  0
    8.7376    6.0813   23.7596 C   0  0  0  0  0  0  0  0  0  0  0  0
   11.8300    4.0505   23.2462 C   0  0  0  0  0  0  0  0  0  0  0  0
    9.1967    6.3774   23.0720 He  0  0  0  0  0  0  0  0  0  0  0  0
   11.7150    5.0967   21.6116 He  0  0  0  0  0  0  0  0  0  0  0  0
    7.4135    7.6096   20.3379 He  0  0  0  0  0  0  0  0  0  0  0  0
   12.4571    7.6014   20.1897 He  0  0  0  0  0  0  0  0  0  0  0  0
  1  4  1  0
  1  7  3  0
  1  9  2  0
  1 12  3  0
  1 13  1  0
  1 16  3  0
  1 18  4  0
  1 23  4  0
  1 25  1  0
  2  4  3  0
  2  7  1  0
  2  8  3  0
  2 14  2  0
  2 20  4  0
  2 24  4  0
  3  4  1  0
  3  5  2  0
  3  7  2  0
  3  9  3  0
  3 25  3  0
  4 12  3  0
  4 15  3  0
  4 16  4  0
  4 18  2  0
  4 20  1  0
  4 26  3  0
  5 10  1  0
  5 15  4  0
  5 24  1  0
  5 25  1  0
  6 12  2  0
  6 16  4  0
  6 19  3  0
  7 23  2  0
  7 24  4  0
  8  9  4  0
  8 13  1  0
  8 17  3  0
  9 20  4  0
  9 22  3  0
  9 24  1  0
  9 25  1  0
 10 15  2  0
 11 13  2  0
 11 18  1  0
 11 19  3  0
 11 21  2  0
 11 24  2  0
 12 20  4  0
 12 21  2  0
 13 15  2  0
 13 20  4  0
 13 22  1  0
 13 26  3  0
 14 17  3  0
 14 18  4  0
 15 18  2  0
 15 19  2  0
 15 24  3  0
 16 19  3  0
 16 20  4  0
 16 21  4  0
 16 25  1  0
 17 19  1  0
 18 19  4  0
 18 20  3  0
 18 23  2  0
 19 20  1  0
 19 22  4  0
 19 26  3  0
 23 24  2  0
 23 26  1  0
M  END
$$$$

 Created by Python create_sdf_string function

 30 29  0  0  0  0  0  0  0  0999 V2000
    8.5471    8.7565   19.0344 O   0  0  0  0  0  0  0  0  0  0  0  0
    6.5321    8.3111   23.6329 C   0  0  0  0  0  0  0  0  0  0  0  0
    7.1414    7.4623   18.3825 O   0  0  0  0  0  0  0  0  0  0  0  0
    9.6010    6.1715   22.7602 C   0  0  0  0  0  0  0  0  0  0  0  0
    7.7711    7.8917   19.1262 C   0  0  0  0  0  0  0  0  0  0  0  0
    8.4726    8.0694   23.9339 C   0  0  0  0  0  0  0  0  0  0  0  0
   10.4816    6.7394   14.8567 C   0  0  0  0  0  0  0  0  0  0  0  0
    7.1406    8.8298   24.6063 N   0  0  0  0  0  0  0  0  0  0  0  0
    8.5873   10.0120   16.9539 O   0  0  0  0  0  0  0  0  0  0  0  0
   11.6336    5.3040   21.5454 C   0  0  0  0  0  0  0  0  0  0  0  0
    5.8713    7.5381   20.0712 O   0  0  0  0  0  0  0  0  0  0  0  0
   12.5763    6.1746   19.6798 C   0  0  0  0  0  0  0  0  0  0  0  0
   10.8839    9.3763   17.6904 O   0  0  0  0  0  0  0  0  0  0  0  0
    9.9807    5.5555   14.9751 C   0  0  0  0  0  0  0  0  0  0  0  0
    9.3370    9.0979   17.5797 C   0  0  0  0  0  0  0  0  0  0  0  0
    5.3732    8.1370   23.7605 O   0  0  0  0  0  0  0  0  0  0  0  0
    7.4447    7.6774   20.8875 C   0  0  0  0  0  0  0  0  0  0  0  0
   12.5140    5.1653   20.7315 N   0  0  0  0  0  0  0  0  0  0  0  0
    8.7059    6.2232   16.8645 C   0  0  0  0  0  0  0  0  0  0  0  0
    8.4239    7.4461   21.1929 C   0  0  0  0  0  0  0  0  0  0  0  0
   11.7356    7.0978   19.8042 N   0  0  0  0  0  0  0  0  0  0  0  0
   10.4811    6.9255   20.7226 C   0  0  0  0  0  0  0  0  0  0  0  0
    9.8230    6.7689   21.2095 C   0  0  0  0  0  0  0  0  0  0  0  0
    9.1479    5.3098   15.8985 C   0  0  0  0  0  0  0  0  0  0  0  0
    9.3514    7.4925   16.6711 C   0  0  0  0  0  0  0  0  0  0  0  0
   10.0945    7.6503   15.7047 C   0  0  0  0  0  0  0  0  0  0  0  0
   11.2806    4.9922   22.3360 C   0  0  0  0  0  0  0  0  0  0  0  0
    7.1256    8.1343   22.0496 N   0  0  0  0  0  0  0  0  0  0  0  0
    8.7379    6.7369   23.7486 C   0  0  0  0  0  0  0  0  0  0  0  0
   11.5757    4.2455   23.0972 C   0  0  0  0  0  0  0  0  0  0  0  0
  1  5  1  0
  1 15  1  0
  2  8  1  0
  2 16  2  0
  2 28  1  0
  3  5  1  0
  4 23  4  0
  4 29  1  0
  6  8  1  0
  6 29  1  0
  7 14  4  0
  7 26  4  0
  9 15  1  0
 10 18  4  0
 10 27  4  0
 12 18  4  0
 12 21  4  0
 13 15  2  0
 14 24  4  0
 15 25  1  0
 17 20  1  0
 17 28  1  0
 19 24  4  0
 19 25  4  0
 20 23  1  0
 21 22  4  0
 22 23  4  0
 25 26  4  0
 27 30  1  0
M  END
$$$$

 Created by Python create_sdf_string function

 30 53  0  0  0  0  0  0  0  0999 V2000
    8.7575    8.7560   19.2268 B   0  0  0  0  0  0  0  0  0  0  0  0
    6.7971    7.9600   23.1289 C   0  0  0  0  0  0  0  0  0  0  0  0
    8.9483    6.2693   22.2421 C   0  0  0  0  0  0  0  0  0  0  0  0
    7.6812    7.3441   18.7490 C   0  0  0  0  0  0  0  0  0  0  0  0
    8.4968    7.9767   23.4632 N   0  0  0  0  0  0  0  0  0  0  0  0
    8.7116   10.9370   17.3569 Se  0  0  0  0  0  0  0  0  0  0  0  0
   12.0638    5.9245   21.5630 C   0  0  0  0  0  0  0  0  0  0  0  0
    5.5050    7.6264   20.6889 O   0  0  0  0  0  0  0  0  0  0  0  0
   12.7354    6.6606   19.1755 C   0  0  0  0  0  0  0  0  0  0  0  0
   10.8943    9.1241   17.7811 O   0  0  0  0  0  0  0  0  0  0  0  0
   10.2471    5.7456   14.8006 C   0  0  0  0  0  0  0  0  0  0  0  0
    8.9711    9.9802   17.8092 C   0  0  0  0  0  0  0  0  0  0  0  0
   12.4229    4.5426   19.9703 N   0  0  0  0  0  0  0  0  0  0  0  0
    9.2675    5.5861   16.9469 C   0  0  0  0  0  0  0  0  0  0  0  0
    8.0888    7.3919   20.1780 O   0  0  0  0  0  0  0  0  0  0  0  0
   12.1431    7.6000   19.8709 N   0  0  0  0  0  0  0  0  0  0  0  0
   10.4445    6.7738   20.5017 C   0  0  0  0  0  0  0  0  0  0  0  0
    9.6917    6.9706   21.1367 C   0  0  0  0  0  0  0  0  0  0  0  0
    9.0695    5.0947   16.3412 C   0  0  0  0  0  0  0  0  0  0  0  0
   10.0942    8.2593   14.8435 C   0  0  0  0  0  0  0  0  0  0  0  0
   11.6914    5.0282   21.7378 F   0  0  0  0  0  0  0  0  0  0  0  0
    6.8929    8.3405   22.2571 N   0  0  0  0  0  0  0  0  0  0  0  0
    8.4391    6.9697   24.2972 C   0  0  0  0  0  0  0  0  0  0  0  0
   11.6808    4.0853   23.0406 C   0  0  0  0  0  0  0  0  0  0  0  0
    7.6567    7.9252   18.3583 He  0  0  0  0  0  0  0  0  0  0  0  0
   10.8370    7.0875   15.3644 He  0  0  0  0  0  0  0  0  0  0  0  0
    6.3584    9.0789   25.1225 He  0  0  0  0  0  0  0  0  0  0  0  0
    5.7377    8.4066   23.7564 He  0  0  0  0  0  0  0  0  0  0  0  0
    7.4471    7.5519   20.8661 He  0  0  0  0  0  0  0  0  0  0  0  0
    9.6389    7.3243   16.5933 He  0  0  0  0  0  0  0  0  0  0  0  0
  1  4  1  0
  1 12  1  0
  1 14  1  0
  1 21  4  0
  2  6  3  0
  2 12  1  0
  2 17  2  0
  2 19  2  0
  3 12  1  0
  3 13  4  0
  3 18  4  0
  3 23  1  0
  4  8  3  0
  4 14  2  0
  4 22  2  0
  5  7  3  0
  5 23  1  0
  6  7  1  0
  6 11  1  0
  6 12  1  0
  6 18  1  0
  6 21  3  0
  6 23  1  0
  7  8  3  0
  7  9  3  0
  7 11  4  0
  7 12  4  0
  7 13  4  0
  7 14  3  0
  7 17  3  0
  7 21  4  0
  8 16  1  0
  9 11  2  0
  9 13  2  0
  9 16  4  0
 10 15  4  0
 11 14  2  0
 11 15  3  0
 11 19  4  0
 11 21  3  0
 12 14  4  0
 12 23  4  0
 12 24  4  0
 13 18  4  0
 13 23  3  0
 14 19  1  0
 14 21  2  0
 14 23  4  0
 15 18  1  0
 17 22  4  0
 18 22  2  0
 21 24  1  0
 22 23  4  0
M  END
$$$$

 Created by Python create_sdf_string function

 30 30  0  0  0  0  0  0  0  0999 V2000
    8.6735    8.8825   18.8086 N   0  0  0  0  0  0  0  0  0  0  0  0
    6.4743    8.3197   23.5072 C   0  0  0  0  0  0  0  0  0  0  0  0
    7.7855    7.7606   18.1434 C   0  0  0  0  0  0  0  0  0  0  0  0
    9.3254    6.6037   22.5125 C   0  0  0  0  0  0  0  0  0  0  0  0
    7.8851    7.6863   18.7505 C   0  0  0  0  0  0  0  0  0  0  0  0
    8.4372    7.6941   23.7502 N   0  0  0  0  0  0  0  0  0  0  0  0
   10.6293    6.8217   14.9127 C   0  0  0  0  0  0  0  0  0  0  0  0
    6.8610    8.7763   24.7897 C   0  0  0  0  0  0  0  0  0  0  0  0
    8.6979   10.6084   17.2351 O   0  0  0  0  0  0  0  0  0  0  0  0
   11.5935    5.4934   21.1343 C   0  0  0  0  0  0  0  0  0  0  0  0
    5.8340    7.6922   20.6119 O   0  0  0  0  0  0  0  0  0  0  0  0
   12.5651    6.4061   19.4415 C   0  0  0  0  0  0  0  0  0  0  0  0
   10.6878    9.6425   17.8680 O   0  0  0  0  0  0  0  0  0  0  0  0
   10.2561    5.5489   15.0304 C   0  0  0  0  0  0  0  0  0  0  0  0
    9.3451    9.6055   17.7690 C   0  0  0  0  0  0  0  0  0  0  0  0
    5.3429    8.3603   23.5565 O   0  0  0  0  0  0  0  0  0  0  0  0
    7.2183    7.6864   21.1649 C   0  0  0  0  0  0  0  0  0  0  0  0
   12.5485    5.2302   20.2603 N   0  0  0  0  0  0  0  0  0  0  0  0
    8.9956    5.9424   16.8282 C   0  0  0  0  0  0  0  0  0  0  0  0
    8.3585    7.2595   20.4861 N   0  0  0  0  0  0  0  0  0  0  0  0
   11.5621    7.2369   19.7559 N   0  0  0  0  0  0  0  0  0  0  0  0
   10.6823    6.6860   20.6939 C   0  0  0  0  0  0  0  0  0  0  0  0
    9.5488    6.7981   21.2339 C   0  0  0  0  0  0  0  0  0  0  0  0
    9.4280    5.1228   16.0103 C   0  0  0  0  0  0  0  0  0  0  0  0
    9.2785    7.1559   16.6278 C   0  0  0  0  0  0  0  0  0  0  0  0
   10.1603    7.7424   15.6171 C   0  0  0  0  0  0  0  0  0  0  0  0
   11.3460    5.0307   22.1185 C   0  0  0  0  0  0  0  0  0  0  0  0
    7.1096    7.9741   22.4685 N   0  0  0  0  0  0  0  0  0  0  0  0
    8.4731    7.0505   23.6843 C   0  0  0  0  0  0  0  0  0  0  0  0
   11.4515    4.3589   23.0056 C   0  0  0  0  0  0  0  0  0  0  0  0
  1  5  1  0
  1 15  1  0
  2  8  1  0
  2 16  2  0
  2 28  1  0
  3  5  1  0
  3 25  1  0
  4 23  4  0
  4 29  1  0
  6 29  1  0
  7 14  4  0
  7 26  4  0
  9 15  1  0
 10 18  4  0
 10 22  4  0
 10 27  4  0
 11 17  2  0
 12 18  4  0
 12 21  4  0
 13 15  2  0
 14 24  4  0
 17 20  1  0
 17 28  1  0
 19 24  4  0
 19 25  4  0
 20 23  1  0
 21 22  4  0
 22 23  4  0
 25 26  4  0
 27 30  1  0
M  END
$$$$

 Created by Python create_sdf_string function

 30 66  0  0  0  0  0  0  0  0999 V2000
    6.5160    8.1728   23.0514 C   0  0  0  0  0  0  0  0  0  0  0  0
    7.3811    7.7866   18.5458 C   0  0  0  0  0  0  0  0  0  0  0  0
    8.9101    6.3279   21.8835 C   0  0  0  0  0  0  0  0  0  0  0  0
    7.4014    7.7986   19.1970 C   0  0  0  0  0  0  0  0  0  0  0  0
    9.1319    7.2768   23.6375 N   0  0  0  0  0  0  0  0  0  0  0  0
   10.2584    6.4636   14.5262 N   0  0  0  0  0  0  0  0  0  0  0  0
    7.2693    8.1362   25.5404 N   0  0  0  0  0  0  0  0  0  0  0  0
    8.8627   10.5883   17.0705 O   0  0  0  0  0  0  0  0  0  0  0  0
    5.2522    8.2441   21.0644 O   0  0  0  0  0  0  0  0  0  0  0  0
   10.8883    9.3810   17.4328 N   0  0  0  0  0  0  0  0  0  0  0  0
   10.9810    4.8327   14.7618 S   0  0  0  0  0  0  0  0  0  0  0  0
    8.9079    9.2565   18.5926 C   0  0  0  0  0  0  0  0  0  0  0  0
    5.7828    7.8317   23.8325 O   0  0  0  0  0  0  0  0  0  0  0  0
    7.5160    8.0136   21.8987 C   0  0  0  0  0  0  0  0  0  0  0  0
   12.1015    5.0587   19.6547 S   0  0  0  0  0  0  0  0  0  0  0  0
    8.8729    6.5488   20.9989 N   0  0  0  0  0  0  0  0  0  0  0  0
   11.4788    7.5950   19.9374 N   0  0  0  0  0  0  0  0  0  0  0  0
   10.1636    7.2292   20.7588 C   0  0  0  0  0  0  0  0  0  0  0  0
    9.7683    4.8239   15.5922 N   0  0  0  0  0  0  0  0  0  0  0  0
    9.5676    7.0177   16.3969 C   0  0  0  0  0  0  0  0  0  0  0  0
    9.6399    6.8976   16.2177 C   0  0  0  0  0  0  0  0  0  0  0  0
   10.9849    5.1930   22.2632 C   0  0  0  0  0  0  0  0  0  0  0  0
    6.5535    8.2962   22.8989 F   0  0  0  0  0  0  0  0  0  0  0  0
    8.5689    7.2332   23.9517 C   0  0  0  0  0  0  0  0  0  0  0  0
   10.8703    4.2051   23.0089 C   0  0  0  0  0  0  0  0  0  0  0  0
    9.2977    9.2156   18.8499 He  0  0  0  0  0  0  0  0  0  0  0  0
   11.8699    5.8036   21.7596 He  0  0  0  0  0  0  0  0  0  0  0  0
   13.1587    5.8795   18.7396 He  0  0  0  0  0  0  0  0  0  0  0  0
    8.4460    5.4509   17.0296 He  0  0  0  0  0  0  0  0  0  0  0  0
   10.4503    6.1029   20.4722 He  0  0  0  0  0  0  0  0  0  0  0  0
  1  7  1  0
  1 12  1  0
  1 14  4  0
  1 16  4  0
  1 20  4  0
  1 23  1  0
  2  4  1  0
  2  6  3  0
  2 15  3  0
  2 18  3  0
  2 20  4  0
  2 23  4  0
  2 24  2  0
  3 10  4  0
  3 12  3  0
  3 18  4  0
  3 19  2  0
  3 21  4  0
  3 23  1  0
  3 24  1  0
  4  7  2  0
  4 13  2  0
  4 21  3  0
  4 22  1  0
  5  7  3  0
  5 20  3  0
  6 16  2  0
  6 22  4  0
  7 13  1  0
  7 20  2  0
  8 10  1  0
  8 12  4  0
  9 11  1  0
  9 14  2  0
  9 16  4  0
  9 19  3  0
  9 20  3  0
  9 22  1  0
 10 12  2  0
 10 14  2  0
 10 15  3  0
 10 21  1  0
 10 23  1  0
 10 25  3  0
 11 15  2  0
 11 19  4  0
 12 15  4  0
 12 18  1  0
 13 17  1  0
 13 24  2  0
 14 16  1  0
 14 23  3  0
 14 25  2  0
 15 25  4  0
 16 18  1  0
 16 21  4  0
 17 20  1  0
 17 21  2  0
 17 24  1  0
 18 22  2  0
 18 25  3  0
 19 20  1  0
 20 21  4  0
 21 25  2  0
 22 23  3  0
 22 25  1  0
M  END
$$$$

 Created by Python create_sdf_string function

 30 31  0  0  0  0  0  0  0  0999 V2000
    8.8916    9.0130   19.0271 N   0  0  0  0  0  0  0  0  0  0  0  0
    7.1833    7.9382   23.3223 C   0  0  0  0  0  0  0  0  0  0  0  0
    7.7176    7.3399   18.2760 C   0  0  0  0  0  0  0  0  0  0  0  0
    9.3884    6.5555   22.3406 C   0  0  0  0  0  0  0  0  0  0  0  0
    7.6612    8.2027   19.1026 C   0  0  0  0  0  0  0  0  0  0  0  0
    8.9990    7.1859   24.2361 N   0  0  0  0  0  0  0  0  0  0  0  0
   10.5647    6.6527   14.9945 C   0  0  0  0  0  0  0  0  0  0  0  0
    7.1041    8.0819   25.2295 N   0  0  0  0  0  0  0  0  0  0  0  0
    8.6340   10.2941   17.2385 O   0  0  0  0  0  0  0  0  0  0  0  0
   11.5003    5.4060   21.0976 C   0  0  0  0  0  0  0  0  0  0  0  0
    5.7911    8.1957   21.2355 O   0  0  0  0  0  0  0  0  0  0  0  0
   12.5569    6.2064   19.2199 C   0  0  0  0  0  0  0  0  0  0  0  0
   10.6074    9.3825   17.4564 N   0  0  0  0  0  0  0  0  0  0  0  0
   10.3951    5.2510   15.0880 C   0  0  0  0  0  0  0  0  0  0  0  0
    9.3465    9.4751   17.8390 C   0  0  0  0  0  0  0  0  0  0  0  0
    5.4823    7.9272   24.1732 O   0  0  0  0  0  0  0  0  0  0  0  0
    7.2117    7.8621   21.5021 C   0  0  0  0  0  0  0  0  0  0  0  0
   12.5644    5.0330   20.0784 S   0  0  0  0  0  0  0  0  0  0  0  0
    8.8686    5.4483   16.7463 C   0  0  0  0  0  0  0  0  0  0  0  0
    8.4460    7.3843   20.9724 N   0  0  0  0  0  0  0  0  0  0  0  0
   11.4803    7.0931   19.5071 N   0  0  0  0  0  0  0  0  0  0  0  0
   10.7825    6.6494   20.4779 C   0  0  0  0  0  0  0  0  0  0  0  0
    9.5728    6.8897   21.2188 C   0  0  0  0  0  0  0  0  0  0  0  0
    9.6416    4.6484   15.9343 C   0  0  0  0  0  0  0  0  0  0  0  0
    9.0576    6.6374   16.6774 C   0  0  0  0  0  0  0  0  0  0  0  0
    9.9028    7.2679   15.7950 C   0  0  0  0  0  0  0  0  0  0  0  0
   10.9197    5.1438   22.2395 C   0  0  0  0  0  0  0  0  0  0  0  0
    6.4194    8.1927   23.0562 C   0  0  0  0  0  0  0  0  0  0  0  0
    8.5934    7.2425   23.4662 C   0  0  0  0  0  0  0  0  0  0  0  0
   10.8790    4.5427   23.2198 C   0  0  0  0  0  0  0  0  0  0  0  0
  1  5  1  0
  1 15  1  0
  2  8  1  0
  2 28  1  0
  2 29  1  0
  3  5  1  0
  3 25  1  0
  4 23  4  0
  4 29  1  0
  6 29  1  0
  7 14  4  0
  7 26  4  0
  8 16  1  0
  9 15  1  0
 10 18  4  0
 10 22  4  0
 10 27  4  0
 11 17  2  0
 12 18  4  0
 12 21  4  0
 13 15  2  0
 14 24  4  0
 16 28  1  0
 17 20  1  0
 19 24  4  0
 19 25  4  0
 20 23  1  0
 21 22  4  0
 22 23  4  0
 25 26  4  0
 27 30  1  0
M  END
$$$$

 Created by Python create_sdf_string function

 30 48  0  0  0  0  0  0  0  0999 V2000
    8.7594    9.5301   18.8768 N   0  0  0  0  0  0  0  0  0  0  0  0
    7.5079    8.4917   24.0383 C   0  0  0  0  0  0  0  0  0  0  0  0
    8.2968    7.0239   18.6516 C   0  0  0  0  0  0  0  0  0  0  0  0
    8.0000    8.0559   19.5512 C   0  0  0  0  0  0  0  0  0  0  0  0
    7.1803    7.4109   25.3559 N   0  0  0  0  0  0  0  0  0  0  0  0
    8.9804   10.1852   17.2785 O   0  0  0  0  0  0  0  0  0  0  0  0
   11.5964    5.3193   20.3933 C   0  0  0  0  0  0  0  0  0  0  0  0
    5.4587    7.7798   21.4700 O   0  0  0  0  0  0  0  0  0  0  0  0
    9.7555    8.4774   18.0127 C   0  0  0  0  0  0  0  0  0  0  0  0
    5.3814    8.1453   24.1579 O   0  0  0  0  0  0  0  0  0  0  0  0
    6.8112    8.6619   21.4487 N   0  0  0  0  0  0  0  0  0  0  0  0
   12.4844    4.9588   20.1768 S   0  0  0  0  0  0  0  0  0  0  0  0
    8.4310    5.0603   16.4350 C   0  0  0  0  0  0  0  0  0  0  0  0
    9.2510    8.3442   20.2124 N   0  0  0  0  0  0  0  0  0  0  0  0
   11.9882    7.4595   19.6740 C   0  0  0  0  0  0  0  0  0  0  0  0
    9.2107    7.2444   20.2873 C   0  0  0  0  0  0  0  0  0  0  0  0
    9.3743    4.7030   15.7509 O   0  0  0  0  0  0  0  0  0  0  0  0
    9.6565    7.7278   16.6851 C   0  0  0  0  0  0  0  0  0  0  0  0
   10.3030    7.2973   16.4504 C   0  0  0  0  0  0  0  0  0  0  0  0
   11.1548    5.4819   22.6718 C   0  0  0  0  0  0  0  0  0  0  0  0
    5.9134    8.0239   22.9864 C   0  0  0  0  0  0  0  0  0  0  0  0
    9.2377    7.1461   23.0319 C   0  0  0  0  0  0  0  0  0  0  0  0
    9.4713    6.3948   22.6043 He  0  0  0  0  0  0  0  0  0  0  0  0
    9.2815    6.7228   24.5099 He  0  0  0  0  0  0  0  0  0  0  0  0
   10.4994    6.4780   15.0865 He  0  0  0  0  0  0  0  0  0  0  0  0
   12.2635    6.6074   19.2114 He  0  0  0  0  0  0  0  0  0  0  0  0
   11.4423    8.8594   17.5676 He  0  0  0  0  0  0  0  0  0  0  0  0
   11.1248    6.0707   14.6770 He  0  0  0  0  0  0  0  0  0  0  0  0
   11.3953    6.1411   20.9810 He  0  0  0  0  0  0  0  0  0  0  0  0
   10.3207    4.2748   23.2595 He  0  0  0  0  0  0  0  0  0  0  0  0
  1  4  1  0
  1  7  4  0
  1  8  2  0
  1  9  1  0
  1 13  1  0
  1 18  1  0
  1 22  4  0
  2  4  2  0
  2  6  4  0
  2  8  1  0
  2 12  3  0
  2 17  4  0
  2 21  1  0
  2 22  1  0
  3 18  1  0
  4 12  4  0
  4 13  3  0
  4 20  3  0
  5  8  1  0
  5 11  1  0
  5 12  1  0
  5 13  2  0
  5 20  3  0
  5 21  1  0
  6  8  4  0
  6  9  2  0
  6 22  2  0
  7 12  3  0
  7 13  4  0
  7 15  1  0
  7 20  4  0
  7 22  4  0
  8 15  3  0
  8 20  3  0
  9 11  4  0
  9 15  3  0
  9 17  3  0
 10 14  2  0
 10 21  1  0
 11 15  3  0
 12 13  3  0
 13 15  2  0
 13 17  4  0
 14 16  1  0
 17 19  3  0
 17 22  3  0
 18 21  3  0
 19 21  1  0
M  END
$$$$

 Created by Python create_sdf_string function

 30 31  0  0  0  0  0  0  0  0999 V2000
    8.7577    8.8956   18.9776 N   0  0  0  0  0  0  0  0  0  0  0  0
    7.5570    7.8415   23.5014 C   0  0  0  0  0  0  0  0  0  0  0  0
    8.3791    6.8320   17.6735 C   0  0  0  0  0  0  0  0  0  0  0  0
    9.6971    6.6416   22.3184 C   0  0  0  0  0  0  0  0  0  0  0  0
    7.6971    8.6716   19.4026 C   0  0  0  0  0  0  0  0  0  0  0  0
    9.1121    6.8163   24.6220 O   0  0  0  0  0  0  0  0  0  0  0  0
   10.7028    6.3593   15.2224 C   0  0  0  0  0  0  0  0  0  0  0  0
    7.2049    7.6528   25.1677 N   0  0  0  0  0  0  0  0  0  0  0  0
    9.1252    9.9982   17.2199 O   0  0  0  0  0  0  0  0  0  0  0  0
   11.6034    5.5232   21.0064 C   0  0  0  0  0  0  0  0  0  0  0  0
    5.8648    8.1398   21.5868 O   0  0  0  0  0  0  0  0  0  0  0  0
   12.7988    6.2430   19.1233 C   0  0  0  0  0  0  0  0  0  0  0  0
   11.1484    9.1931   17.9995 O   0  0  0  0  0  0  0  0  0  0  0  0
   10.6515    5.5305   14.8400 C   0  0  0  0  0  0  0  0  0  0  0  0
    9.6447    9.1297   17.8741 S   0  0  0  0  0  0  0  0  0  0  0  0
    5.3029    8.1984   23.9751 O   0  0  0  0  0  0  0  0  0  0  0  0
    7.2631    8.2809   21.1202 C   0  0  0  0  0  0  0  0  0  0  0  0
   12.5744    4.9566   19.8901 S   0  0  0  0  0  0  0  0  0  0  0  0
    8.7338    5.3372   16.4720 C   0  0  0  0  0  0  0  0  0  0  0  0
    8.6958    7.9454   20.7579 N   0  0  0  0  0  0  0  0  0  0  0  0
   12.0950    7.2688   19.6254 C   0  0  0  0  0  0  0  0  0  0  0  0
   11.1916    6.6886   20.6908 C   0  0  0  0  0  0  0  0  0  0  0  0
    9.7331    7.2766   21.1584 C   0  0  0  0  0  0  0  0  0  0  0  0
    9.5534    4.9535   15.5674 C   0  0  0  0  0  0  0  0  0  0  0  0
    9.4185    7.4004   17.0039 C   0  0  0  0  0  0  0  0  0  0  0  0
   10.2428    7.3457   16.0427 C   0  0  0  0  0  0  0  0  0  0  0  0
   10.7317    5.4264   22.4177 C   0  0  0  0  0  0  0  0  0  0  0  0
    6.3053    8.0795   23.3311 C   0  0  0  0  0  0  0  0  0  0  0  0
    8.8128    7.1285   23.2920 C   0  0  0  0  0  0  0  0  0  0  0  0
   10.7295    4.4916   23.3098 C   0  0  0  0  0  0  0  0  0  0  0  0
  1  5  1  0
  1 15  1  0
  2  8  1  0
  2 28  1  0
  2 29  1  0
  3 19  4  0
  3 25  1  0
  4 23  4  0
  4 27  4  0
  4 29  1  0
  6 29  1  0
  7 14  4  0
  7 26  4  0
  9 15  2  0
 10 18  4  0
 10 22  4  0
 10 27  4  0
 11 17  1  0
 12 18  4  0
 12 21  4  0
 13 15  2  0
 14 24  4  0
 15 25  1  0
 16 28  1  0
 17 20  1  0
 19 24  4  0
 20 23  1  0
 21 22  4  0
 22 23  4  0
 25 26  4  0
 27 30  1  0
M  END
$$$$

 Created by Python create_sdf_string function

 30 60  0  0  0  0  0  0  0  0999 V2000
    8.5017    9.1524   18.5190 B   0  0  0  0  0  0  0  0  0  0  0  0
    7.6846    8.6458   22.8692 C   0  0  0  0  0  0  0  0  0  0  0  0
    8.5093    7.3222   17.1409 C   0  0  0  0  0  0  0  0  0  0  0  0
    9.5180    7.0566   22.4782 C   0  0  0  0  0  0  0  0  0  0  0  0
    7.4256    8.2374   19.6009 N   0  0  0  0  0  0  0  0  0  0  0  0
    8.5429    6.3293   24.5008 O   0  0  0  0  0  0  0  0  0  0  0  0
   10.5710    6.9714   15.1164 Se  0  0  0  0  0  0  0  0  0  0  0  0
    7.3638    7.5160   25.2157 N   0  0  0  0  0  0  0  0  0  0  0  0
    8.9465    9.4532   17.3443 O   0  0  0  0  0  0  0  0  0  0  0  0
   12.0231    5.2058   20.6687 C   0  0  0  0  0  0  0  0  0  0  0  0
   12.7977    5.6956   19.6026 O   0  0  0  0  0  0  0  0  0  0  0  0
   10.8946    8.5900   18.3637 S   0  0  0  0  0  0  0  0  0  0  0  0
   10.2963    5.4795   14.8825 N   0  0  0  0  0  0  0  0  0  0  0  0
    5.3293    7.7224   23.8112 C   0  0  0  0  0  0  0  0  0  0  0  0
    7.8807    8.5077   20.9785 C   0  0  0  0  0  0  0  0  0  0  0  0
   12.9226    6.0381   20.2352 S   0  0  0  0  0  0  0  0  0  0  0  0
    9.0564    4.9869   16.5810 P   0  0  0  0  0  0  0  0  0  0  0  0
    8.9535    7.8867   21.3491 N   0  0  0  0  0  0  0  0  0  0  0  0
   11.5420    7.5385   19.4776 C   0  0  0  0  0  0  0  0  0  0  0  0
   11.0754    6.3693   20.2542 C   0  0  0  0  0  0  0  0  0  0  0  0
    9.3695    7.2305   20.8513 N   0  0  0  0  0  0  0  0  0  0  0  0
    9.5793    6.8943   16.8178 F   0  0  0  0  0  0  0  0  0  0  0  0
   10.5938    7.5038   16.8777 C   0  0  0  0  0  0  0  0  0  0  0  0
   10.6814    5.4811   21.8935 S   0  0  0  0  0  0  0  0  0  0  0  0
    6.1134    7.6525   23.9521 C   0  0  0  0  0  0  0  0  0  0  0  0
    8.4611    7.5485   23.2845 C   0  0  0  0  0  0  0  0  0  0  0  0
   10.5587    4.2241   23.1328 F   0  0  0  0  0  0  0  0  0  0  0  0
    5.1576    8.1636   21.4260 He  0  0  0  0  0  0  0  0  0  0  0  0
    9.7668    8.6180   17.9832 He  0  0  0  0  0  0  0  0  0  0  0  0
    9.5493    5.1382   15.3120 He  0  0  0  0  0  0  0  0  0  0  0  0
  1  3  3  0
  1 10  2  0
  1 19  4  0
  1 22  4  0
  1 27  1  0
  2  4  1  0
  2 14  2  0
  2 19  2  0
  2 22  1  0
  2 25  1  0
  2 26  1  0
  2 27  4  0
  3 12  2  0
  3 17  4  0
  3 22  1  0
  3 26  4  0
  4 21  4  0
  4 24  4  0
  4 26  1  0
  5 21  3  0
  5 27  1  0
  6 19  4  0
  7  9  1  0
  7 19  1  0
  7 23  4  0
  7 27  2  0
  8 13  2  0
  9 24  4  0
  9 25  1  0
 10 11  1  0
 10 16  4  0
 10 20  4  0
 10 23  3  0
 10 24  4  0
 11 12  2  0
 11 20  3  0
 11 27  3  0
 12 13  1  0
 13 14  4  0
 13 18  3  0
 13 22  4  0
 13 24  1  0
 13 27  3  0
 14 24  4  0
 14 25  1  0
 15 18  1  0
 15 20  3  0
 16 25  1  0
 18 19  2  0
 18 21  1  0
 18 22  3  0
 18 26  4  0
 18 27  4  0
 19 22  2  0
 19 25  1  0
 23 25  2  0
 23 27  2  0
 24 25  3  0
 24 27  1  0
 26 27  4  0
M  END
$$$$

 Created by Python create_sdf_string function

 30 32  0  0  0  0  0  0  0  0999 V2000
    8.5713    9.0146   18.7184 C   0  0  0  0  0  0  0  0  0  0  0  0
    7.4223    8.1788   23.1327 C   0  0  0  0  0  0  0  0  0  0  0  0
    8.6567    6.4677   17.0704 C   0  0  0  0  0  0  0  0  0  0  0  0
    9.6530    6.5249   22.2753 C   0  0  0  0  0  0  0  0  0  0  0  0
    7.3350    8.7344   19.4930 N   0  0  0  0  0  0  0  0  0  0  0  0
    8.5542    6.5666   24.6930 O   0  0  0  0  0  0  0  0  0  0  0  0
   10.7626    6.5037   15.1056 C   0  0  0  0  0  0  0  0  0  0  0  0
    7.1131    7.3829   25.2612 N   0  0  0  0  0  0  0  0  0  0  0  0
    8.9392    9.7110   17.1545 O   0  0  0  0  0  0  0  0  0  0  0  0
   11.5857    5.7236   21.1201 C   0  0  0  0  0  0  0  0  0  0  0  0
    6.0332    8.4473   21.4707 C   0  0  0  0  0  0  0  0  0  0  0  0
   13.1653    5.7464   19.6435 O   0  0  0  0  0  0  0  0  0  0  0  0
   10.9238    8.6349   18.7243 O   0  0  0  0  0  0  0  0  0  0  0  0
   10.1423    5.3414   14.9477 C   0  0  0  0  0  0  0  0  0  0  0  0
    9.4910    8.6688   17.9769 C   0  0  0  0  0  0  0  0  0  0  0  0
    5.3399    7.7925   24.0010 C   0  0  0  0  0  0  0  0  0  0  0  0
    7.3592    8.2960   20.9103 C   0  0  0  0  0  0  0  0  0  0  0  0
   13.0081    5.4272   20.2102 C   0  0  0  0  0  0  0  0  0  0  0  0
    8.6594    5.3210   16.3227 C   0  0  0  0  0  0  0  0  0  0  0  0
    8.5961    7.8163   21.3484 N   0  0  0  0  0  0  0  0  0  0  0  0
   11.4669    7.4719   19.4936 C   0  0  0  0  0  0  0  0  0  0  0  0
   11.0681    6.7473   20.4381 C   0  0  0  0  0  0  0  0  0  0  0  0
    9.5733    7.2015   21.2329 C   0  0  0  0  0  0  0  0  0  0  0  0
    9.5521    4.7867   15.2456 C   0  0  0  0  0  0  0  0  0  0  0  0
    9.6006    7.4353   16.9601 C   0  0  0  0  0  0  0  0  0  0  0  0
   10.5557    7.4813   15.9349 C   0  0  0  0  0  0  0  0  0  0  0  0
   10.6885    5.4573   22.2191 C   0  0  0  0  0  0  0  0  0  0  0  0
    6.4982    7.8663   24.0532 C   0  0  0  0  0  0  0  0  0  0  0  0
    8.3842    7.4783   23.2485 C   0  0  0  0  0  0  0  0  0  0  0  0
   10.7772    4.2835   23.0791 O   0  0  0  0  0  0  0  0  0  0  0  0
  1  5  1  0
  1 15  1  0
  2 28  1  0
  2 29  1  0
  3 19  4  0
  3 25  4  0
  4 23  4  0
  4 27  4  0
  4 29  1  0
  5 17  1  0
  6  8  1  0
  6 29  2  0
  7 14  4  0
  7 26  4  0
  8 28  1  0
  9 15  2  0
 10 22  4  0
 10 27  4  0
 11 17  1  0
 12 18  1  0
 13 15  1  0
 13 21  1  0
 14 24  4  0
 15 25  1  0
 16 28  1  0
 17 20  1  0
 19 24  4  0
 20 23  1  0
 21 22  4  0
 22 23  4  0
 25 26  4  0
 27 30  1  0
M  END
$$$$

 Created by Python create_sdf_string function

 30 75  0  0  0  0  0  0  0  0999 V2000
    8.5604    8.8691   18.7719 C   0  0  0  0  0  0  0  0  0  0  0  0
    7.1950    8.2924   22.6994 Br  0  0  0  0  0  0  0  0  0  0  0  0
    8.8597    7.2587   17.5409 C   0  0  0  0  0  0  0  0  0  0  0  0
   10.1828    6.4569   22.1414 C   0  0  0  0  0  0  0  0  0  0  0  0
    7.0209    7.9543   19.7436 N   0  0  0  0  0  0  0  0  0  0  0  0
   11.6557    6.0409   14.3433 C   0  0  0  0  0  0  0  0  0  0  0  0
    7.0930    6.5894   24.8944 N   0  0  0  0  0  0  0  0  0  0  0  0
    9.1278    9.3569   17.3836 O   0  0  0  0  0  0  0  0  0  0  0  0
   11.2841    5.8592   21.4295 C   0  0  0  0  0  0  0  0  0  0  0  0
    6.3138    9.6985   21.4829 C   0  0  0  0  0  0  0  0  0  0  0  0
   13.2089    5.7940   19.1933 F   0  0  0  0  0  0  0  0  0  0  0  0
   11.2066    9.0467   18.2754 C   0  0  0  0  0  0  0  0  0  0  0  0
    9.3882    8.6107   17.9450 C   0  0  0  0  0  0  0  0  0  0  0  0
    5.2129    7.9618   23.9760 C   0  0  0  0  0  0  0  0  0  0  0  0
    7.1575    8.7652   20.3973 C   0  0  0  0  0  0  0  0  0  0  0  0
    9.3230    5.7785   16.5370 C   0  0  0  0  0  0  0  0  0  0  0  0
    7.8695    7.5417   21.1954 N   0  0  0  0  0  0  0  0  0  0  0  0
   11.0559    7.2457   19.5421 C   0  0  0  0  0  0  0  0  0  0  0  0
   11.3763    6.6302   20.5267 C   0  0  0  0  0  0  0  0  0  0  0  0
    8.6949    4.9205   14.8850 C   0  0  0  0  0  0  0  0  0  0  0  0
    9.1444    7.2238   16.3873 C   0  0  0  0  0  0  0  0  0  0  0  0
   11.7247    7.2352   15.8720 C   0  0  0  0  0  0  0  0  0  0  0  0
   10.2545    5.6630   22.8668 C   0  0  0  0  0  0  0  0  0  0  0  0
    5.9162    8.1484   24.1634 S   0  0  0  0  0  0  0  0  0  0  0  0
    8.5080    7.5381   23.0256 C   0  0  0  0  0  0  0  0  0  0  0  0
   11.0679    4.5643   22.9230 C   0  0  0  0  0  0  0  0  0  0  0  0
    9.2126    6.7567   23.6894 He  0  0  0  0  0  0  0  0  0  0  0  0
    9.5013    6.1162   14.9528 He  0  0  0  0  0  0  0  0  0  0  0  0
   12.7715    5.1862   20.0531 He  0  0  0  0  0  0  0  0  0  0  0  0
    9.7819    7.6822   20.8503 He  0  0  0  0  0  0  0  0  0  0  0  0
  1  2  3  0
  1  5  1  0
  1 13  3  0
  1 21  4  0
  1 24  4  0
  2 19  4  0
  2 20  3  0
  2 24  1  0
  2 25  1  0
  3  5  4  0
  3 11  3  0
  3 16  4  0
  3 19  2  0
  3 21  4  0
  3 22  3  0
  4 11  1  0
  4 19  3  0
  4 21  2  0
  4 23  4  0
  4 24  2  0
  4 25  1  0
  4 26  1  0
  5  8  4  0
  5 13  1  0
  5 15  1  0
  5 17  4  0
  5 24  4  0
  6 11  3  0
  6 12  4  0
  6 16  1  0
  6 19  1  0
  6 22  4  0
  7 13  1  0
  7 23  2  0
  7 24  1  0
  8 11  3  0
  8 13  2  0
  8 14  2  0
  8 16  3  0
  8 21  3  0
  9 18  4  0
  9 19  4  0
  9 20  4  0
  9 23  4  0
  9 25  2  0
 10 13  3  0
 10 14  1  0
 10 15  1  0
 10 21  1  0
 11 18  2  0
 12 13  1  0
 12 17  3  0
 12 18  1  0
 12 23  1  0
 12 25  4  0
 13 19  1  0
 13 21  1  0
 14 16  3  0
 14 17  2  0
 14 20  2  0
 14 24  4  0
 14 26  3  0
 15 16  4  0
 15 22  4  0
 16 17  2  0
 16 19  2  0
 16 20  4  0
 17 20  2  0
 18 19  4  0
 18 20  1  0
 18 24  3  0
 18 25  2  0
 21 22  4  0
 23 26  1  0
 25 26  2  0
M  END
$$$$

 Created by Python create_sdf_string function

 30 34  0  0  0  0  0  0  0  0999 V2000
    8.5052    9.0638   18.8063 C   0  0  0  0  0  0  0  0  0  0  0  0
    7.1444    8.0907   22.8080 N   0  0  0  0  0  0  0  0  0  0  0  0
    8.8443    6.5377   16.9317 C   0  0  0  0  0  0  0  0  0  0  0  0
    9.6498    6.7228   22.0683 C   0  0  0  0  0  0  0  0  0  0  0  0
    7.4692    8.6508   19.6054 N   0  0  0  0  0  0  0  0  0  0  0  0
    8.4941    6.7939   24.0720 N   0  0  0  0  0  0  0  0  0  0  0  0
   10.9363    6.4033   14.6892 C   0  0  0  0  0  0  0  0  0  0  0  0
    7.0323    7.0762   24.8243 N   0  0  0  0  0  0  0  0  0  0  0  0
    9.0933    9.5560   17.2259 O   0  0  0  0  0  0  0  0  0  0  0  0
   11.4998    5.8977   21.0869 C   0  0  0  0  0  0  0  0  0  0  0  0
    6.3278    9.1242   21.6166 C   0  0  0  0  0  0  0  0  0  0  0  0
   12.9798    5.9178   19.2711 C   0  0  0  0  0  0  0  0  0  0  0  0
   10.9907    8.7938   18.4501 C   0  0  0  0  0  0  0  0  0  0  0  0
   10.0655    5.5361   14.5950 C   0  0  0  0  0  0  0  0  0  0  0  0
    9.5276    8.5340   17.7861 C   0  0  0  0  0  0  0  0  0  0  0  0
    5.1576    8.1412   24.0858 O   0  0  0  0  0  0  0  0  0  0  0  0
    6.9980    8.6817   20.5661 C   0  0  0  0  0  0  0  0  0  0  0  0
   12.7180    5.2923   20.2803 C   0  0  0  0  0  0  0  0  0  0  0  0
    8.4572    5.5485   16.2331 C   0  0  0  0  0  0  0  0  0  0  0  0
    8.3483    7.9062   21.1605 N   0  0  0  0  0  0  0  0  0  0  0  0
   11.4213    7.1460   19.4541 C   0  0  0  0  0  0  0  0  0  0  0  0
   10.9420    6.8275   20.3496 C   0  0  0  0  0  0  0  0  0  0  0  0
    9.4691    7.4183   20.9798 C   0  0  0  0  0  0  0  0  0  0  0  0
    9.1008    5.0835   15.0385 C   0  0  0  0  0  0  0  0  0  0  0  0
    9.7436    7.3823   16.7833 C   0  0  0  0  0  0  0  0  0  0  0  0
   10.8701    7.3466   15.7552 C   0  0  0  0  0  0  0  0  0  0  0  0
   10.5682    5.8815   22.3783 C   0  0  0  0  0  0  0  0  0  0  0  0
    6.3101    7.9157   23.9468 C   0  0  0  0  0  0  0  0  0  0  0  0
    8.3583    7.3236   22.8244 C   0  0  0  0  0  0  0  0  0  0  0  0
   11.2765    4.8196   22.8965 C   0  0  0  0  0  0  0  0  0  0  0  0
  1  5  1  0
  1 15  1  0
  2 11  1  0
  2 28  1  0
  2 29  1  0
  3 19  4  0
  3 25  4  0
  4 23  4  0
  4 27  4  0
  4 29  1  0
  5 17  1  0
  6  8  1  0
  6 29  2  0
  7 14  4  0
  7 26  4  0
  8 28  1  0
  9 15  1  0
 10 18  4  0
 10 22  4  0
 10 27  4  0
 11 17  1  0
 12 18  1  0
 13 15  1  0
 13 21  1  0
 14 24  4  0
 15 25  1  0
 16 28  2  0
 17 20  1  0
 19 24  4  0
 20 23  4  0
 21 22  4  0
 22 23  4  0
 25 26  4  0
 27 30  1  0
M  END
$$$$

 Created by Python create_sdf_string function

 30 52  0  0  0  0  0  0  0  0999 V2000
    7.7878    9.2405   18.8516 C   0  0  0  0  0  0  0  0  0  0  0  0
    7.3318    8.4249   22.0987 C   0  0  0  0  0  0  0  0  0  0  0  0
    9.2164    6.5896   16.7940 C   0  0  0  0  0  0  0  0  0  0  0  0
    9.5620    6.5817   22.1027 C   0  0  0  0  0  0  0  0  0  0  0  0
    7.3897    8.7744   19.9424 N   0  0  0  0  0  0  0  0  0  0  0  0
    8.6366    6.3285   24.8864 N   0  0  0  0  0  0  0  0  0  0  0  0
   10.8901    6.0280   14.3538 C   0  0  0  0  0  0  0  0  0  0  0  0
   11.5162    5.7679   21.1539 Cl  0  0  0  0  0  0  0  0  0  0  0  0
    6.1381    9.1651   21.2003 C   0  0  0  0  0  0  0  0  0  0  0  0
   13.3372    6.1561   19.0756 C   0  0  0  0  0  0  0  0  0  0  0  0
   10.7085    8.8951   18.4558 C   0  0  0  0  0  0  0  0  0  0  0  0
    9.8732    5.7775   14.3130 C   0  0  0  0  0  0  0  0  0  0  0  0
   10.3844    8.6869   17.7601 O   0  0  0  0  0  0  0  0  0  0  0  0
    5.0284    8.3963   23.7060 O   0  0  0  0  0  0  0  0  0  0  0  0
   12.4876    5.0643   20.4761 N   0  0  0  0  0  0  0  0  0  0  0  0
    8.4590    5.8998   16.2639 C   0  0  0  0  0  0  0  0  0  0  0  0
   10.6716    6.6642   20.2333 N   0  0  0  0  0  0  0  0  0  0  0  0
   11.0533    6.5394   20.4244 N   0  0  0  0  0  0  0  0  0  0  0  0
   10.1218    7.3428   21.2629 C   0  0  0  0  0  0  0  0  0  0  0  0
    9.5569    8.1635   16.7091 N   0  0  0  0  0  0  0  0  0  0  0  0
   11.4400    6.9847   16.5549 C   0  0  0  0  0  0  0  0  0  0  0  0
   10.6371    6.2204   22.4549 C   0  0  0  0  0  0  0  0  0  0  0  0
    6.0766    7.9286   24.0824 O   0  0  0  0  0  0  0  0  0  0  0  0
    8.2197    6.7649   22.8766 C   0  0  0  0  0  0  0  0  0  0  0  0
   11.3476    4.8952   22.3816 C   0  0  0  0  0  0  0  0  0  0  0  0
    7.1518    7.8236   24.8239 He  0  0  0  0  0  0  0  0  0  0  0  0
    9.6044    9.4798   16.4798 He  0  0  0  0  0  0  0  0  0  0  0  0
    6.7644    8.2845   20.1987 He  0  0  0  0  0  0  0  0  0  0  0  0
    8.1876    8.2340   22.1242 He  0  0  0  0  0  0  0  0  0  0  0  0
    9.3398    4.3860   14.7130 He  0  0  0  0  0  0  0  0  0  0  0  0
  1  5  1  0
  1 13  1  0
  1 15  3  0
  1 23  2  0
  1 24  2  0
  2 23  1  0
  2 24  1  0
  3 16  4  0
  3 23  4  0
  4  8  2  0
  4 11  1  0
  4 19  4  0
  5  7  3  0
  5 17  4  0
  5 25  3  0
  6  8  3  0
  6 10  2  0
  6 16  2  0
  6 24  4  0
  7 12  4  0
  7 14  4  0
  7 21  4  0
  7 24  3  0
  8 15  4  0
  8 16  4  0
  8 17  2  0
  8 20  3  0
  8 22  4  0
  8 25  3  0
  9 11  1  0
  9 22  2  0
  9 25  2  0
 10 15  1  0
 10 18  2  0
 11 13  1  0
 12 13  2  0
 12 22  3  0
 13 18  1  0
 13 19  3  0
 13 20  1  0
 14 23  2  0
 15 16  3  0
 15 24  2  0
 17 18  4  0
 17 19  1  0
 18 19  4  0
 19 20  1  0
 20 21  3  0
 20 22  1  0
 21 22  3  0
 21 23  1  0
 22 25  4  0
M  END
$$$$

 Created by Python create_sdf_string function

 30 33  0  0  0  0  0  0  0  0999 V2000
    8.1838    9.1190   18.5347 C   0  0  0  0  0  0  0  0  0  0  0  0
    7.5196    7.7762   22.6915 C   0  0  0  0  0  0  0  0  0  0  0  0
    8.9614    6.6194   16.5895 C   0  0  0  0  0  0  0  0  0  0  0  0
    9.6035    6.6125   22.3436 C   0  0  0  0  0  0  0  0  0  0  0  0
    7.6763    8.8101   19.4767 N   0  0  0  0  0  0  0  0  0  0  0  0
    8.3314    6.7002   24.4831 N   0  0  0  0  0  0  0  0  0  0  0  0
   10.9477    6.1529   14.9701 C   0  0  0  0  0  0  0  0  0  0  0  0
    7.0368    7.4420   24.8943 N   0  0  0  0  0  0  0  0  0  0  0  0
    9.5615    9.8168   16.6194 C   0  0  0  0  0  0  0  0  0  0  0  0
   11.6838    5.6959   21.0396 C   0  0  0  0  0  0  0  0  0  0  0  0
    5.9452    9.0341   20.9669 O   0  0  0  0  0  0  0  0  0  0  0  0
   12.9845    6.0082   19.1979 C   0  0  0  0  0  0  0  0  0  0  0  0
   10.7452    9.1019   18.5253 C   0  0  0  0  0  0  0  0  0  0  0  0
   10.1492    5.3418   14.5964 C   0  0  0  0  0  0  0  0  0  0  0  0
    9.6014    8.8142   17.6420 C   0  0  0  0  0  0  0  0  0  0  0  0
    5.3605    8.3761   23.7979 O   0  0  0  0  0  0  0  0  0  0  0  0
    7.0436    8.6109   20.5002 C   0  0  0  0  0  0  0  0  0  0  0  0
   12.6932    5.3349   20.2848 N   0  0  0  0  0  0  0  0  0  0  0  0
    8.5492    5.5922   16.0351 C   0  0  0  0  0  0  0  0  0  0  0  0
    7.7305    8.0582   21.4743 C   0  0  0  0  0  0  0  0  0  0  0  0
   10.6060    7.2938   19.9608 N   0  0  0  0  0  0  0  0  0  0  0  0
   10.8521    6.7896   20.4145 C   0  0  0  0  0  0  0  0  0  0  0  0
    9.7049    7.1656   21.1356 C   0  0  0  0  0  0  0  0  0  0  0  0
    9.2327    4.7288   14.4614 C   0  0  0  0  0  0  0  0  0  0  0  0
    9.6915    7.6850   16.9555 C   0  0  0  0  0  0  0  0  0  0  0  0
   10.7325    7.0521   15.9856 C   0  0  0  0  0  0  0  0  0  0  0  0
   10.4516    5.6939   22.8903 C   0  0  0  0  0  0  0  0  0  0  0  0
    6.4444    7.9828   23.8094 C   0  0  0  0  0  0  0  0  0  0  0  0
    8.4913    6.9805   23.2715 C   0  0  0  0  0  0  0  0  0  0  0  0
   11.4958    5.1309   22.3431 C   0  0  0  0  0  0  0  0  0  0  0  0
  1  5  1  0
  1 15  1  0
  2 20  1  0
  2 28  1  0
  2 29  1  0
  3 19  4  0
  3 25  4  0
  4 23  4  0
  4 27  4  0
  4 29  1  0
  5 17  1  0
  6  8  1  0
  6 29  1  0
  7 14  4  0
  7 26  4  0
  8 28  1  0
  9 15  1  0
 10 18  1  0
 10 22  4  0
 10 30  4  0
 11 17  2  0
 12 18  1  0
 13 15  1  0
 14 24  4  0
 15 25  1  0
 16 28  2  0
 17 20  1  0
 19 24  4  0
 21 22  4  0
 21 23  4  0
 22 23  4  0
 25 26  4  0
 27 30  4  0
M  END
$$$$

 Created by Python create_sdf_string function

 30 42  0  0  0  0  0  0  0  0999 V2000
    8.3672    9.8362   18.1553 C   0  0  0  0  0  0  0  0  0  0  0  0
    7.8847    7.4755   22.8141 C   0  0  0  0  0  0  0  0  0  0  0  0
    9.0186    7.0292   16.1471 C   0  0  0  0  0  0  0  0  0  0  0  0
    9.6027    6.3201   22.4823 Cl  0  0  0  0  0  0  0  0  0  0  0  0
    8.0627    8.6496   19.8441 Cl  0  0  0  0  0  0  0  0  0  0  0  0
    9.1821   10.2487   16.5443 C   0  0  0  0  0  0  0  0  0  0  0  0
   12.0882    6.0306   20.9064 C   0  0  0  0  0  0  0  0  0  0  0  0
    5.8919    9.1392   21.0929 O   0  0  0  0  0  0  0  0  0  0  0  0
   13.0853    6.9836   19.4232 C   0  0  0  0  0  0  0  0  0  0  0  0
   10.6221    8.8676   18.5777 C   0  0  0  0  0  0  0  0  0  0  0  0
    9.6993    5.0562   13.9255 C   0  0  0  0  0  0  0  0  0  0  0  0
    5.6252    8.1798   22.9689 O   0  0  0  0  0  0  0  0  0  0  0  0
    7.2335    9.0069   19.7906 C   0  0  0  0  0  0  0  0  0  0  0  0
   12.2763    5.0354   20.3549 N   0  0  0  0  0  0  0  0  0  0  0  0
    7.9650    5.3532   16.0924 C   0  0  0  0  0  0  0  0  0  0  0  0
   11.2267    7.3042   20.4289 C   0  0  0  0  0  0  0  0  0  0  0  0
   11.1030    7.3201   19.9615 C   0  0  0  0  0  0  0  0  0  0  0  0
    9.2942    4.6981   14.4332 C   0  0  0  0  0  0  0  0  0  0  0  0
   10.5393    5.7034   22.7457 C   0  0  0  0  0  0  0  0  0  0  0  0
    8.7206    6.9097   23.0616 C   0  0  0  0  0  0  0  0  0  0  0  0
    8.4820    7.1809   25.0668 He  0  0  0  0  0  0  0  0  0  0  0  0
   10.6424    6.0808   14.7447 He  0  0  0  0  0  0  0  0  0  0  0  0
    7.1945    7.6157   25.3821 He  0  0  0  0  0  0  0  0  0  0  0  0
   10.2786    8.9894   18.0717 He  0  0  0  0  0  0  0  0  0  0  0  0
    7.2474    8.0870   21.5397 He  0  0  0  0  0  0  0  0  0  0  0  0
    9.6803    7.0745   20.9982 He  0  0  0  0  0  0  0  0  0  0  0  0
    9.7255    7.4261   17.0898 He  0  0  0  0  0  0  0  0  0  0  0  0
   11.1341    7.2498   15.3740 He  0  0  0  0  0  0  0  0  0  0  0  0
    6.5218    8.0001   24.2060 He  0  0  0  0  0  0  0  0  0  0  0  0
   11.6766    5.4429   22.1044 He  0  0  0  0  0  0  0  0  0  0  0  0
  1  5  1  0
  1  9  1  0
  1 18  2  0
  1 19  1  0
  2  3  3  0
  2 14  3  0
  2 20  1  0
  3  9  1  0
  3 10  3  0
  3 15  4  0
  4 19  4  0
  5 13  1  0
  5 15  4  0
  6 20  3  0
  7  9  3  0
  7 10  4  0
  7 11  1  0
  7 14  1  0
  7 16  4  0
  7 17  4  0
  7 19  2  0
  8 12  3  0
  8 13  2  0
  9 10  3  0
  9 14  1  0
  9 15  4  0
 10 13  1  0
 10 15  3  0
 11 18  2  0
 12 16  1  0
 12 19  4  0
 12 20  3  0
 13 16  3  0
 13 19  2  0
 14 17  2  0
 15 18  4  0
 15 19  1  0
 15 20  4  0
 16 17  4  0
 16 18  2  0
 17 18  4  0
 18 19  2  0
M  END
$$$$

 Created by Python create_sdf_string function

 30 33  0  0  0  0  0  0  0  0999 V2000
    8.2477    9.6714   18.5385 C   0  0  0  0  0  0  0  0  0  0  0  0
    7.5796    7.6795   22.7539 C   0  0  0  0  0  0  0  0  0  0  0  0
    8.7161    6.6696   16.5437 C   0  0  0  0  0  0  0  0  0  0  0  0
    9.6020    6.6270   22.4619 C   0  0  0  0  0  0  0  0  0  0  0  0
    8.0051    8.9428   19.4684 N   0  0  0  0  0  0  0  0  0  0  0  0
    8.4373    7.0072   24.8338 C   0  0  0  0  0  0  0  0  0  0  0  0
   10.5247    6.0293   14.7202 C   0  0  0  0  0  0  0  0  0  0  0  0
    7.1111    7.6385   25.1240 N   0  0  0  0  0  0  0  0  0  0  0  0
    9.2705    9.8832   16.8024 C   0  0  0  0  0  0  0  0  0  0  0  0
   11.7886    6.0667   20.9223 C   0  0  0  0  0  0  0  0  0  0  0  0
    6.2177    9.1443   20.7423 O   0  0  0  0  0  0  0  0  0  0  0  0
   13.2583    6.4759   19.1810 C   0  0  0  0  0  0  0  0  0  0  0  0
   10.5354    9.1579   18.2649 C   0  0  0  0  0  0  0  0  0  0  0  0
    9.8411    4.7769   13.9842 C   0  0  0  0  0  0  0  0  0  0  0  0
    9.9913    8.6785   17.2863 N   0  0  0  0  0  0  0  0  0  0  0  0
    5.4169    8.2311   23.5039 O   0  0  0  0  0  0  0  0  0  0  0  0
    7.3376    8.7010   20.5296 C   0  0  0  0  0  0  0  0  0  0  0  0
   12.8988    5.6921   20.1464 N   0  0  0  0  0  0  0  0  0  0  0  0
    8.4549    5.6746   15.8092 C   0  0  0  0  0  0  0  0  0  0  0  0
    7.7894    7.8165   21.4400 N   0  0  0  0  0  0  0  0  0  0  0  0
   10.7657    7.0669   20.4885 C   0  0  0  0  0  0  0  0  0  0  0  0
   10.3996    7.4750   20.3331 C   0  0  0  0  0  0  0  0  0  0  0  0
    9.5546    7.1720   21.2710 C   0  0  0  0  0  0  0  0  0  0  0  0
    9.2775    5.2063   14.7742 C   0  0  0  0  0  0  0  0  0  0  0  0
    9.8297    7.5165   16.5128 C   0  0  0  0  0  0  0  0  0  0  0  0
   10.7259    7.0749   15.5091 C   0  0  0  0  0  0  0  0  0  0  0  0
   10.5727    5.7170   22.8469 C   0  0  0  0  0  0  0  0  0  0  0  0
    6.5218    7.9598   23.7346 C   0  0  0  0  0  0  0  0  0  0  0  0
    8.5490    6.9336   23.4690 C   0  0  0  0  0  0  0  0  0  0  0  0
   11.6236    5.3828   22.1297 C   0  0  0  0  0  0  0  0  0  0  0  0
  1  5  1  0
  2 20  1  0
  2 28  1  0
  2 29  1  0
  3 19  4  0
  3 25  4  0
  4 23  4  0
  4 27  4  0
  4 29  1  0
  5 17  1  0
  6  8  1  0
  6 29  1  0
  7 24  4  0
  7 26  4  0
  8 28  1  0
  9 15  1  0
 10 18  1  0
 10 21  4  0
 10 30  4  0
 11 17  2  0
 12 18  1  0
 13 15  1  0
 14 24  1  0
 15 25  1  0
 16 28  2  0
 17 20  1  0
 19 24  4  0
 20 23  1  0
 21 22  4  0
 21 23  4  0
 22 23  4  0
 25 26  4  0
 27 30  4  0
M  END
$$$$

 Created by Python create_sdf_string function

 30 58  0  0  0  0  0  0  0  0999 V2000
    7.6788    9.6912   18.3976 C   0  0  0  0  0  0  0  0  0  0  0  0
    7.2537    7.5113   22.7022 C   0  0  0  0  0  0  0  0  0  0  0  0
    8.8302    6.9113   16.6982 C   0  0  0  0  0  0  0  0  0  0  0  0
    9.7489    6.5529   22.5922 C   0  0  0  0  0  0  0  0  0  0  0  0
    7.5901    9.0535   19.2379 F   0  0  0  0  0  0  0  0  0  0  0  0
   10.6000    5.6685   14.6402 C   0  0  0  0  0  0  0  0  0  0  0  0
   12.1756    6.4743   19.8741 F   0  0  0  0  0  0  0  0  0  0  0  0
    6.1874    9.2936   20.3425 F   0  0  0  0  0  0  0  0  0  0  0  0
   13.2347    6.4547   19.2398 C   0  0  0  0  0  0  0  0  0  0  0  0
   10.4798    9.8050   18.1673 C   0  0  0  0  0  0  0  0  0  0  0  0
   10.1453    4.6455   13.6215 C   0  0  0  0  0  0  0  0  0  0  0  0
   10.4387    8.0465   17.3662 N   0  0  0  0  0  0  0  0  0  0  0  0
    4.9486    7.9229   23.8312 P   0  0  0  0  0  0  0  0  0  0  0  0
   12.7795    5.2189   20.2678 Cl  0  0  0  0  0  0  0  0  0  0  0  0
    8.7035    5.1074   15.7348 C   0  0  0  0  0  0  0  0  0  0  0  0
    7.7591    8.0987   21.5091 N   0  0  0  0  0  0  0  0  0  0  0  0
   11.1888    6.8768   20.2881 C   0  0  0  0  0  0  0  0  0  0  0  0
   10.8751    7.3444   20.2013 C   0  0  0  0  0  0  0  0  0  0  0  0
    8.9367    6.9611   21.0744 C   0  0  0  0  0  0  0  0  0  0  0  0
   10.6104    7.4885   16.6088 C   0  0  0  0  0  0  0  0  0  0  0  0
   10.4155    7.3073   15.3684 C   0  0  0  0  0  0  0  0  0  0  0  0
   10.7165    5.9917   23.5397 C   0  0  0  0  0  0  0  0  0  0  0  0
    6.5041    8.2003   23.9873 I   0  0  0  0  0  0  0  0  0  0  0  0
   12.0377    5.4045   22.2598 C   0  0  0  0  0  0  0  0  0  0  0  0
    8.4355    6.9820   24.7217 He  0  0  0  0  0  0  0  0  0  0  0  0
    6.9646    7.5076   24.9156 He  0  0  0  0  0  0  0  0  0  0  0  0
    9.6337   10.3360   15.9283 He  0  0  0  0  0  0  0  0  0  0  0  0
    7.9554    9.2957   20.1422 He  0  0  0  0  0  0  0  0  0  0  0  0
    9.6452    5.4274   14.5920 He  0  0  0  0  0  0  0  0  0  0  0  0
    9.2838    6.6122   23.5021 He  0  0  0  0  0  0  0  0  0  0  0  0
  1  5  1  0
  1  9  2  0
  1 12  4  0
  1 19  4  0
  2  4  3  0
  2  5  1  0
  2 11  3  0
  2 15  4  0
  2 16  1  0
  2 18  4  0
  3  9  4  0
  3 12  1  0
  3 15  4  0
  3 19  2  0
  3 20  4  0
  4  7  3  0
  4 11  2  0
  4 14  4  0
  4 16  4  0
  4 17  3  0
  4 19  4  0
  4 22  4  0
  4 23  4  0
  5  7  4  0
  5 12  4  0
  6  8  3  0
  6 10  3  0
  6 11  1  0
  7  9  3  0
  7 10  2  0
  7 11  3  0
  7 14  1  0
  7 17  4  0
  7 24  4  0
  8 11  4  0
  8 24  1  0
  9 14  1  0
  9 15  4  0
  9 17  4  0
 10 12  1  0
 10 14  1  0
 10 15  4  0
 10 16  4  0
 10 23  3  0
 11 19  1  0
 11 22  1  0
 12 20  1  0
 13 15  2  0
 13 21  1  0
 13 23  4  0
 16 24  3  0
 17 18  4  0
 17 23  4  0
 17 24  4  0
 18 19  4  0
 18 21  3  0
 18 22  3  0
 20 21  4  0
M  END
$$$$

 Created by Python create_sdf_string function

 30 32  0  0  0  0  0  0  0  0999 V2000
    8.0017    9.5979   18.1839 C   0  0  0  0  0  0  0  0  0  0  0  0
    7.4817    7.7184   22.7384 C   0  0  0  0  0  0  0  0  0  0  0  0
    8.8295    6.5285   16.6322 C   0  0  0  0  0  0  0  0  0  0  0  0
    9.6338    6.7439   22.5629 C   0  0  0  0  0  0  0  0  0  0  0  0
    7.9388    9.0405   19.3134 N   0  0  0  0  0  0  0  0  0  0  0  0
    8.3264    6.9006   24.7370 C   0  0  0  0  0  0  0  0  0  0  0  0
   10.6232    6.1671   14.6711 C   0  0  0  0  0  0  0  0  0  0  0  0
    7.0705    7.4651   25.0286 N   0  0  0  0  0  0  0  0  0  0  0  0
    9.5301    9.8997   16.2064 C   0  0  0  0  0  0  0  0  0  0  0  0
   12.0230    6.0851   20.7234 C   0  0  0  0  0  0  0  0  0  0  0  0
    6.3304    9.2530   20.7051 O   0  0  0  0  0  0  0  0  0  0  0  0
   13.2890    6.4502   18.9140 C   0  0  0  0  0  0  0  0  0  0  0  0
   10.3796    9.5518   17.9782 C   0  0  0  0  0  0  0  0  0  0  0  0
    9.7941    4.0798   13.5130 C   0  0  0  0  0  0  0  0  0  0  0  0
    9.9847    8.7096   17.0967 N   0  0  0  0  0  0  0  0  0  0  0  0
    5.2426    8.0867   23.7105 O   0  0  0  0  0  0  0  0  0  0  0  0
    7.4339    8.7161   20.4570 C   0  0  0  0  0  0  0  0  0  0  0  0
   13.0776    5.5047   20.1139 O   0  0  0  0  0  0  0  0  0  0  0  0
    8.7131    5.4842   15.7801 C   0  0  0  0  0  0  0  0  0  0  0  0
    8.0308    7.9554   21.3838 N   0  0  0  0  0  0  0  0  0  0  0  0
   11.2870    6.6690   20.4735 C   0  0  0  0  0  0  0  0  0  0  0  0
   10.2128    7.2798   20.2987 C   0  0  0  0  0  0  0  0  0  0  0  0
    9.3686    7.3317   21.3514 C   0  0  0  0  0  0  0  0  0  0  0  0
    9.6371    5.2521   14.7090 C   0  0  0  0  0  0  0  0  0  0  0  0
    9.8777    7.4990   16.3735 C   0  0  0  0  0  0  0  0  0  0  0  0
   10.7883    7.2370   15.3919 C   0  0  0  0  0  0  0  0  0  0  0  0
   10.7182    6.0004   22.9587 C   0  0  0  0  0  0  0  0  0  0  0  0
    6.4796    7.8926   23.6956 C   0  0  0  0  0  0  0  0  0  0  0  0
    8.5321    6.9559   23.5011 C   0  0  0  0  0  0  0  0  0  0  0  0
   11.7580    5.7251   22.0570 C   0  0  0  0  0  0  0  0  0  0  0  0
  1  5  1  0
  2 20  1  0
  2 28  1  0
  2 29  1  0
  3 19  4  0
  3 25  4  0
  4 23  4  0
  4 27  4  0
  4 29  1  0
  5 17  1  0
  6  8  2  0
  6 29  1  0
  7 24  4  0
  7 26  4  0
  8 28  1  0
  9 15  1  0
 10 18  1  0
 10 21  4  0
 10 30  4  0
 11 17  2  0
 12 18  1  0
 13 15  1  0
 14 24  1  0
 15 25  1  0
 16 28  1  0
 17 20  1  0
 19 24  4  0
 20 23  1  0
 21 22  4  0
 22 23  4  0
 25 26  4  0
 27 30  4  0
M  END
$$$$

 Created by Python create_sdf_string function

 30 56  0  0  0  0  0  0  0  0999 V2000
    7.1486    9.9292   18.1606 O   0  0  0  0  0  0  0  0  0  0  0  0
    7.1522    7.2576   23.0316 C   0  0  0  0  0  0  0  0  0  0  0  0
    9.2424    6.6572   16.6987 C   0  0  0  0  0  0  0  0  0  0  0  0
   10.1804    7.0796   21.5425 C   0  0  0  0  0  0  0  0  0  0  0  0
    8.5028    9.5981   19.7116 N   0  0  0  0  0  0  0  0  0  0  0  0
   10.8581    6.3796   15.1190 C   0  0  0  0  0  0  0  0  0  0  0  0
    6.6451    7.1389   25.2777 N   0  0  0  0  0  0  0  0  0  0  0  0
    9.1553   10.8217   15.7533 C   0  0  0  0  0  0  0  0  0  0  0  0
   13.4710    6.6600   19.1393 C   0  0  0  0  0  0  0  0  0  0  0  0
   10.6345   10.0430   17.9310 C   0  0  0  0  0  0  0  0  0  0  0  0
   10.0049    4.3047   14.0623 C   0  0  0  0  0  0  0  0  0  0  0  0
    9.5643    8.9984   16.8728 N   0  0  0  0  0  0  0  0  0  0  0  0
    5.7317    7.8498   23.4498 O   0  0  0  0  0  0  0  0  0  0  0  0
    7.3294    8.7225   20.7849 B   0  0  0  0  0  0  0  0  0  0  0  0
   13.2476    5.4789   20.1944 O   0  0  0  0  0  0  0  0  0  0  0  0
    8.6499    5.5832   16.1887 C   0  0  0  0  0  0  0  0  0  0  0  0
    7.7492    7.6819   21.7079 N   0  0  0  0  0  0  0  0  0  0  0  0
   11.4167    6.6968   19.8395 C   0  0  0  0  0  0  0  0  0  0  0  0
   10.5010    7.6548   20.2797 C   0  0  0  0  0  0  0  0  0  0  0  0
    9.4776    7.5140   21.0693 C   0  0  0  0  0  0  0  0  0  0  0  0
   10.9730    6.9460   15.2645 C   0  0  0  0  0  0  0  0  0  0  0  0
   10.3253    6.0716   23.5429 C   0  0  0  0  0  0  0  0  0  0  0  0
    6.4164    7.9199   23.1676 Cl  0  0  0  0  0  0  0  0  0  0  0  0
    8.9894    7.4552   23.8080 C   0  0  0  0  0  0  0  0  0  0  0  0
   11.8269    5.5585   21.8809 C   0  0  0  0  0  0  0  0  0  0  0  0
    7.8258    7.1151   25.2621 He  0  0  0  0  0  0  0  0  0  0  0  0
   11.9093    6.1079   20.8232 He  0  0  0  0  0  0  0  0  0  0  0  0
    6.4669    9.5429   20.9998 He  0  0  0  0  0  0  0  0  0  0  0  0
    9.3828    5.5847   14.5110 He  0  0  0  0  0  0  0  0  0  0  0  0
   10.1180    7.8049   16.9564 He  0  0  0  0  0  0  0  0  0  0  0  0
  1  5  1  0
  1 10  4  0
  1 13  2  0
  1 18  2  0
  1 21  3  0
  2  6  2  0
  2 12  4  0
  2 17  1  0
  2 18  3  0
  2 21  2  0
  2 23  1  0
  2 24  1  0
  3  5  3  0
  3 13  1  0
  3 16  4  0
  3 23  1  0
  4 14  3  0
  4 20  4  0
  4 21  4  0
  5  7  3  0
  5 10  4  0
  5 14  1  0
  6 13  3  0
  6 19  4  0
  7 13  3  0
  7 22  2  0
  7 25  3  0
  8 21  1  0
  8 23  1  0
  9 10  4  0
  9 15  1  0
  9 25  1  0
 10 15  4  0
 10 23  1  0
 10 24  1  0
 10 25  3  0
 11 14  3  0
 11 15  4  0
 11 17  1  0
 12 15  1  0
 12 18  1  0
 13 18  2  0
 13 22  4  0
 13 23  1  0
 14 16  4  0
 14 20  4  0
 16 22  4  0
 16 23  4  0
 17 19  3  0
 17 25  3  0
 18 19  4  0
 18 22  3  0
 18 23  4  0
 18 24  1  0
 19 20  4  0
 19 25  4  0
M  END
$$$$

 Created by Python create_sdf_string function

 30 34  0  0  0  0  0  0  0  0999 V2000
    7.9244    9.8227   18.4117 C   0  0  0  0  0  0  0  0  0  0  0  0
    7.7174    7.5483   22.8558 C   0  0  0  0  0  0  0  0  0  0  0  0
    8.8869    6.8600   16.6333 C   0  0  0  0  0  0  0  0  0  0  0  0
   10.0457    6.6584   22.3077 C   0  0  0  0  0  0  0  0  0  0  0  0
    7.9966    9.4055   19.6515 N   0  0  0  0  0  0  0  0  0  0  0  0
    7.9108    7.0554   25.1248 C   0  0  0  0  0  0  0  0  0  0  0  0
   10.8603    6.2995   14.8497 C   0  0  0  0  0  0  0  0  0  0  0  0
    6.6164    7.3173   25.0253 N   0  0  0  0  0  0  0  0  0  0  0  0
    9.2989   10.4502   16.0623 C   0  0  0  0  0  0  0  0  0  0  0  0
   12.0132    6.1784   20.6490 C   0  0  0  0  0  0  0  0  0  0  0  0
    6.4224    9.3285   21.0516 O   0  0  0  0  0  0  0  0  0  0  0  0
   13.7654    6.2469   19.0677 C   0  0  0  0  0  0  0  0  0  0  0  0
    9.8538   10.0388   17.5428 C   0  0  0  0  0  0  0  0  0  0  0  0
    9.6995    4.2826   14.0753 C   0  0  0  0  0  0  0  0  0  0  0  0
    9.9758    9.0690   16.9820 N   0  0  0  0  0  0  0  0  0  0  0  0
    5.5203    7.8417   23.5379 O   0  0  0  0  0  0  0  0  0  0  0  0
    7.4858    8.8671   20.7935 C   0  0  0  0  0  0  0  0  0  0  0  0
   13.2902    5.6464   20.1367 O   0  0  0  0  0  0  0  0  0  0  0  0
    8.8840    5.6628   15.9433 C   0  0  0  0  0  0  0  0  0  0  0  0
    8.1617    7.9775   21.5501 N   0  0  0  0  0  0  0  0  0  0  0  0
   11.3988    7.0018   19.8820 C   0  0  0  0  0  0  0  0  0  0  0  0
   10.2665    7.5186   20.2188 C   0  0  0  0  0  0  0  0  0  0  0  0
    9.4938    7.3947   21.2532 C   0  0  0  0  0  0  0  0  0  0  0  0
    9.8333    5.4006   14.9585 C   0  0  0  0  0  0  0  0  0  0  0  0
    9.9033    7.8108   16.4478 C   0  0  0  0  0  0  0  0  0  0  0  0
   10.9117    7.4831   15.5730 C   0  0  0  0  0  0  0  0  0  0  0  0
    9.9178    6.4123   23.3996 C   0  0  0  0  0  0  0  0  0  0  0  0
    6.4448    7.6918   23.4915 C   0  0  0  0  0  0  0  0  0  0  0  0
    8.5932    7.1253   23.8594 C   0  0  0  0  0  0  0  0  0  0  0  0
   11.6759    5.7907   21.8265 C   0  0  0  0  0  0  0  0  0  0  0  0
  1  5  1  0
  1 13  1  0
  2 20  1  0
  2 28  1  0
  2 29  1  0
  3 19  4  0
  3 25  4  0
  4 23  4  0
  4 27  1  0
  4 30  4  0
  5 17  1  0
  6  8  1  0
  6 29  1  0
  7 24  4  0
  7 26  4  0
  8 28  1  0
  9 13  1  0
  9 15  1  0
 10 18  1  0
 10 21  4  0
 10 30  4  0
 11 17  2  0
 12 18  1  0
 13 15  1  0
 14 24  1  0
 15 25  1  0
 16 28  1  0
 17 20  1  0
 19 24  4  0
 20 23  1  0
 21 22  4  0
 22 23  4  0
 25 26  4  0
 27 29  4  0
M  END
$$$$

 Created by Python create_sdf_string function

 30 37  0  0  0  0  0  0  0  0999 V2000
    7.4906    7.8214   23.1839 C   0  0  0  0  0  0  0  0  0  0  0  0
    8.8057    6.6492   16.2442 C   0  0  0  0  0  0  0  0  0  0  0  0
    8.4133    8.9998   19.6980 N   0  0  0  0  0  0  0  0  0  0  0  0
    8.0672    7.0031   24.8816 C   0  0  0  0  0  0  0  0  0  0  0  0
   10.6745    6.8954   15.0767 C   0  0  0  0  0  0  0  0  0  0  0  0
    6.1649    7.6851   24.3335 N   0  0  0  0  0  0  0  0  0  0  0  0
    9.3719   10.9185   15.9327 N   0  0  0  0  0  0  0  0  0  0  0  0
   11.9277    6.2035   20.5361 C   0  0  0  0  0  0  0  0  0  0  0  0
    6.0314    9.3598   21.1747 O   0  0  0  0  0  0  0  0  0  0  0  0
    9.5605   10.3196   17.6002 C   0  0  0  0  0  0  0  0  0  0  0  0
   10.1081    9.3536   17.2813 N   0  0  0  0  0  0  0  0  0  0  0  0
    7.5358    9.1718   20.7131 C   0  0  0  0  0  0  0  0  0  0  0  0
   13.1141    5.6169   20.2664 O   0  0  0  0  0  0  0  0  0  0  0  0
    8.1016    8.2533   21.6496 N   0  0  0  0  0  0  0  0  0  0  0  0
   11.7628    7.2980   20.0977 C   0  0  0  0  0  0  0  0  0  0  0  0
    9.3194    7.2036   20.9098 C   0  0  0  0  0  0  0  0  0  0  0  0
    9.7109    5.2927   14.8531 C   0  0  0  0  0  0  0  0  0  0  0  0
   10.6984    6.5238   15.8533 O   0  0  0  0  0  0  0  0  0  0  0  0
    9.9706    6.2760   23.1317 C   0  0  0  0  0  0  0  0  0  0  0  0
    7.1809    7.9949   23.3335 C   0  0  0  0  0  0  0  0  0  0  0  0
    8.8506    7.7963   23.7571 C   0  0  0  0  0  0  0  0  0  0  0  0
   11.7255    5.7149   21.7253 C   0  0  0  0  0  0  0  0  0  0  0  0
    7.5223    9.7514   18.7677 He  0  0  0  0  0  0  0  0  0  0  0  0
   10.3857    6.5943   21.7725 He  0  0  0  0  0  0  0  0  0  0  0  0
   13.5818    5.9689   18.6366 He  0  0  0  0  0  0  0  0  0  0  0  0
    9.7225    4.4867   14.1616 He  0  0  0  0  0  0  0  0  0  0  0  0
    5.9456    7.9194   23.6038 He  0  0  0  0  0  0  0  0  0  0  0  0
    8.7136    5.3778   15.9372 He  0  0  0  0  0  0  0  0  0  0  0  0
   10.2505    7.0243   20.4667 He  0  0  0  0  0  0  0  0  0  0  0  0
   10.1153    7.7293   16.0682 He  0  0  0  0  0  0  0  0  0  0  0  0
  1  5  4  0
  1 14  1  0
  1 20  1  0
  1 21  1  0
  2  5  1  0
  2  7  2  0
  3  4  3  0
  3 12  1  0
  3 20  4  0
  4  6  2  0
  4  7  3  0
  4  8  1  0
  4 15  4  0
  4 21  1  0
  5 17  4  0
  5 18  4  0
  6  8  2  0
  6 20  1  0
  6 21  2  0
  7 10  1  0
  7 11  1  0
  8 13  1  0
  8 14  2  0
  8 15  4  0
  8 22  4  0
  9 12  2  0
 10 11  1  0
 11 14  3  0
 11 17  3  0
 12 14  1  0
 13 20  4  0
 13 21  1  0
 14 16  1  0
 15 22  4  0
 16 20  3  0
 17 21  3  0
 19 21  4  0
M  END
$$$$

 Created by Python create_sdf_string function

 30 33  0  0  0  0  0  0  0  0999 V2000
    8.0268    9.8086   18.4253 C   0  0  0  0  0  0  0  0  0  0  0  0
    7.8879    7.8648   22.8270 C   0  0  0  0  0  0  0  0  0  0  0  0
    8.7004    7.0117   16.5485 C   0  0  0  0  0  0  0  0  0  0  0  0
   10.3053    6.6117   22.1036 C   0  0  0  0  0  0  0  0  0  0  0  0
    8.2063    9.2965   19.6852 N   0  0  0  0  0  0  0  0  0  0  0  0
    8.0044    7.0982   25.0309 C   0  0  0  0  0  0  0  0  0  0  0  0
   10.8360    6.2347   15.0564 C   0  0  0  0  0  0  0  0  0  0  0  0
    6.7033    7.5394   24.8062 N   0  0  0  0  0  0  0  0  0  0  0  0
    9.2062   10.8070   16.3027 N   0  0  0  0  0  0  0  0  0  0  0  0
   12.0758    6.1993   20.4872 C   0  0  0  0  0  0  0  0  0  0  0  0
    6.5280    9.3588   20.9195 O   0  0  0  0  0  0  0  0  0  0  0  0
   13.5804    6.0874   18.8087 C   0  0  0  0  0  0  0  0  0  0  0  0
    9.3225   10.0079   17.4107 C   0  0  0  0  0  0  0  0  0  0  0  0
    9.5794    4.3280   14.1379 O   0  0  0  0  0  0  0  0  0  0  0  0
   10.0582    9.0072   17.1969 N   0  0  0  0  0  0  0  0  0  0  0  0
    5.5564    8.0742   23.2481 O   0  0  0  0  0  0  0  0  0  0  0  0
    7.6066    8.8706   20.7047 C   0  0  0  0  0  0  0  0  0  0  0  0
   13.2726    5.6792   20.1208 O   0  0  0  0  0  0  0  0  0  0  0  0
    8.6226    5.8917   15.8589 C   0  0  0  0  0  0  0  0  0  0  0  0
    8.3551    7.9872   21.5658 N   0  0  0  0  0  0  0  0  0  0  0  0
   11.4128    6.9597   19.6602 C   0  0  0  0  0  0  0  0  0  0  0  0
   10.2192    7.5352   19.9848 C   0  0  0  0  0  0  0  0  0  0  0  0
    9.6458    7.3655   21.2085 C   0  0  0  0  0  0  0  0  0  0  0  0
    9.7119    5.4725   15.0193 C   0  0  0  0  0  0  0  0  0  0  0  0
    9.8382    7.8304   16.4594 C   0  0  0  0  0  0  0  0  0  0  0  0
   10.8945    7.4273   15.7079 C   0  0  0  0  0  0  0  0  0  0  0  0
    9.7949    6.5162   23.4264 C   0  0  0  0  0  0  0  0  0  0  0  0
    6.6238    7.9809   23.4585 C   0  0  0  0  0  0  0  0  0  0  0  0
    8.7198    7.2289   23.7740 C   0  0  0  0  0  0  0  0  0  0  0  0
   11.4829    5.9980   21.7590 C   0  0  0  0  0  0  0  0  0  0  0  0
  1  5  1  0
  1 13  1  0
  2 20  1  0
  2 28  1  0
  2 29  1  0
  3 19  4  0
  3 25  4  0
  4 23  4  0
  4 27  1  0
  4 30  4  0
  5 17  1  0
  6  8  2  0
  6 29  1  0
  7 24  4  0
  7 26  4  0
  8 28  1  0
  9 13  1  0
 10 18  1  0
 10 21  4  0
 10 30  4  0
 11 17  2  0
 12 18  1  0
 13 15  1  0
 14 24  1  0
 15 25  1  0
 16 28  1  0
 17 20  1  0
 19 24  4  0
 20 23  1  0
 21 22  4  0
 22 23  4  0
 25 26  4  0
 27 29  1  0
M  END
$$$$

 Created by Python create_sdf_string function

 30 48  0  0  0  0  0  0  0  0999 V2000
    7.7246    9.7899   18.6466 C   0  0  0  0  0  0  0  0  0  0  0  0
    7.9702    7.5757   23.4795 C   0  0  0  0  0  0  0  0  0  0  0  0
    8.5099    7.0189   16.6491 Cl  0  0  0  0  0  0  0  0  0  0  0  0
   10.8802    6.5246   22.4800 C   0  0  0  0  0  0  0  0  0  0  0  0
    8.6532    9.3858   19.3946 N   0  0  0  0  0  0  0  0  0  0  0  0
    7.8757    7.5803   25.2866 C   0  0  0  0  0  0  0  0  0  0  0  0
    6.3513    7.5156   25.4887 N   0  0  0  0  0  0  0  0  0  0  0  0
    9.2133   11.0034   16.3081 N   0  0  0  0  0  0  0  0  0  0  0  0
   12.1386    6.5858   21.1348 C   0  0  0  0  0  0  0  0  0  0  0  0
    6.7002    9.0791   20.8047 O   0  0  0  0  0  0  0  0  0  0  0  0
    9.7024    9.9274   17.5037 P   0  0  0  0  0  0  0  0  0  0  0  0
    9.6966    3.9770   13.9769 O   0  0  0  0  0  0  0  0  0  0  0  0
   10.2980    8.7404   17.4112 N   0  0  0  0  0  0  0  0  0  0  0  0
    5.4244    7.9493   22.8796 O   0  0  0  0  0  0  0  0  0  0  0  0
    7.2397    8.6548   21.0636 I   0  0  0  0  0  0  0  0  0  0  0  0
    8.5199    5.6224   16.4464 C   0  0  0  0  0  0  0  0  0  0  0  0
    8.1947    8.3216   21.6161 N   0  0  0  0  0  0  0  0  0  0  0  0
   10.2765    7.4335   20.1929 C   0  0  0  0  0  0  0  0  0  0  0  0
    9.8918    7.6793   21.1526 C   0  0  0  0  0  0  0  0  0  0  0  0
   10.1303    7.8561   16.6659 C   0  0  0  0  0  0  0  0  0  0  0  0
   11.0001    7.8513   15.1402 C   0  0  0  0  0  0  0  0  0  0  0  0
    9.4244    6.3875   23.3431 C   0  0  0  0  0  0  0  0  0  0  0  0
    6.4022    7.5839   22.6264 C   0  0  0  0  0  0  0  0  0  0  0  0
   10.3142    5.9046   14.8775 He  0  0  0  0  0  0  0  0  0  0  0  0
   13.2032    6.0046   18.3331 He  0  0  0  0  0  0  0  0  0  0  0  0
   13.0079    5.3291   19.9006 He  0  0  0  0  0  0  0  0  0  0  0  0
   11.5273    6.5866   19.5603 He  0  0  0  0  0  0  0  0  0  0  0  0
    9.1732    5.2078   14.7971 He  0  0  0  0  0  0  0  0  0  0  0  0
    8.7817    7.5037   23.7164 He  0  0  0  0  0  0  0  0  0  0  0  0
   11.4482    5.8850   21.3922 He  0  0  0  0  0  0  0  0  0  0  0  0
  1  5  1  0
  1 21  2  0
  2  3  1  0
  2  9  4  0
  2 14  2  0
  2 17  1  0
  2 19  1  0
  2 23  3  0
  3  7  3  0
  3  8  3  0
  3 14  3  0
  3 20  4  0
  4  8  3  0
  4  9  4  0
  4 19  4  0
  4 23  4  0
  5  7  4  0
  5  9  4  0
  5 19  2  0
  6  7  2  0
  6 18  4  0
  6 19  3  0
  7 12  1  0
  7 14  4  0
  7 15  3  0
  7 23  1  0
  8 15  3  0
  9 15  1  0
  9 19  2  0
  9 23  3  0
 10 21  3  0
 11 13  1  0
 12 22  4  0
 12 23  1  0
 13 15  3  0
 13 17  3  0
 13 20  1  0
 14 18  3  0
 14 23  1  0
 15 17  1  0
 15 18  4  0
 16 20  2  0
 17 18  3  0
 17 19  1  0
 18 19  4  0
 19 21  4  0
 20 21  4  0
 21 22  4  0
M  END
$$$$

 Created by Python create_sdf_string function

 30 33  0  0  0  0  0  0  0  0999 V2000
    8.2021    9.6831   18.4423 C   0  0  0  0  0  0  0  0  0  0  0  0
    7.8460    7.6757   22.8809 C   0  0  0  0  0  0  0  0  0  0  0  0
    8.7344    6.9246   16.6614 C   0  0  0  0  0  0  0  0  0  0  0  0
   10.3876    6.6567   22.2903 C   0  0  0  0  0  0  0  0  0  0  0  0
    8.4183    9.3621   19.7909 N   0  0  0  0  0  0  0  0  0  0  0  0
    7.9170    7.2877   25.1420 C   0  0  0  0  0  0  0  0  0  0  0  0
   10.5516    6.1960   14.7673 C   0  0  0  0  0  0  0  0  0  0  0  0
    6.5914    7.5405   24.9178 N   0  0  0  0  0  0  0  0  0  0  0  0
    9.2915   10.7527   16.5250 O   0  0  0  0  0  0  0  0  0  0  0  0
   11.9525    6.1358   20.5217 C   0  0  0  0  0  0  0  0  0  0  0  0
    6.5946    9.0914   20.7610 O   0  0  0  0  0  0  0  0  0  0  0  0
   13.2809    5.9242   18.5621 C   0  0  0  0  0  0  0  0  0  0  0  0
    9.3026    9.8330   17.3150 C   0  0  0  0  0  0  0  0  0  0  0  0
    9.3476    4.1620   14.3202 O   0  0  0  0  0  0  0  0  0  0  0  0
   10.1706    8.8419   17.1719 N   0  0  0  0  0  0  0  0  0  0  0  0
    5.4575    7.7863   22.9197 O   0  0  0  0  0  0  0  0  0  0  0  0
    7.7527    8.7957   20.7657 C   0  0  0  0  0  0  0  0  0  0  0  0
   13.1386    5.4606   19.9824 O   0  0  0  0  0  0  0  0  0  0  0  0
    8.5798    5.7325   16.0112 C   0  0  0  0  0  0  0  0  0  0  0  0
    8.4277    8.0076   21.6810 N   0  0  0  0  0  0  0  0  0  0  0  0
   11.3613    6.8968   19.6703 C   0  0  0  0  0  0  0  0  0  0  0  0
   10.3004    7.4920   20.1254 C   0  0  0  0  0  0  0  0  0  0  0  0
    9.7075    7.3636   21.3129 C   0  0  0  0  0  0  0  0  0  0  0  0
    9.5002    5.3364   15.0175 C   0  0  0  0  0  0  0  0  0  0  0  0
    9.8651    7.7385   16.4121 C   0  0  0  0  0  0  0  0  0  0  0  0
   10.7299    7.3796   15.4148 C   0  0  0  0  0  0  0  0  0  0  0  0
    9.9109    6.7244   23.6359 N   0  0  0  0  0  0  0  0  0  0  0  0
    6.4897    7.7246   23.4411 C   0  0  0  0  0  0  0  0  0  0  0  0
    8.6610    7.1891   23.9578 C   0  0  0  0  0  0  0  0  0  0  0  0
   11.5667    6.0274   21.8114 C   0  0  0  0  0  0  0  0  0  0  0  0
  1  5  1  0
  1 13  1  0
  2 20  1  0
  2 28  1  0
  2 29  1  0
  3 19  4  0
  3 25  4  0
  4 23  4  0
  4 27  1  0
  4 30  4  0
  5 17  1  0
  6  8  2  0
  6 29  1  0
  7 24  4  0
  7 26  4  0
  8 28  1  0
  9 13  2  0
 10 18  1  0
 10 21  4  0
 10 30  4  0
 11 17  2  0
 12 18  1  0
 13 15  1  0
 14 24  1  0
 15 25  1  0
 16 28  1  0
 17 20  1  0
 19 24  4  0
 20 23  1  0
 21 22  4  0
 22 23  4  0
 25 26  4  0
 27 29  1  0
M  END
$$$$

 Created by Python create_sdf_string function

 30 51  0  0  0  0  0  0  0  0999 V2000
    8.1487    9.9139   18.5057 C   0  0  0  0  0  0  0  0  0  0  0  0
    8.4384    7.8998   23.3687 Cl  0  0  0  0  0  0  0  0  0  0  0  0
    8.8345    6.5838   16.5696 C   0  0  0  0  0  0  0  0  0  0  0  0
   10.0527    6.7413   22.2296 C   0  0  0  0  0  0  0  0  0  0  0  0
    8.9802    9.5532   19.9410 N   0  0  0  0  0  0  0  0  0  0  0  0
    7.9949    7.4556   24.9359 C   0  0  0  0  0  0  0  0  0  0  0  0
   10.2624    6.0608   14.7977 C   0  0  0  0  0  0  0  0  0  0  0  0
    6.4813    7.7969   24.9780 N   0  0  0  0  0  0  0  0  0  0  0  0
    8.9739   10.7569   16.7566 O   0  0  0  0  0  0  0  0  0  0  0  0
    6.7470    8.7687   20.9172 Cl  0  0  0  0  0  0  0  0  0  0  0  0
   13.5175    6.1416   18.4900 C   0  0  0  0  0  0  0  0  0  0  0  0
    9.3714    9.6705   17.8392 C   0  0  0  0  0  0  0  0  0  0  0  0
    9.0412    4.3076   14.1200 O   0  0  0  0  0  0  0  0  0  0  0  0
   10.4158    8.9272   17.5101 N   0  0  0  0  0  0  0  0  0  0  0  0
    5.1214    7.4363   22.7098 O   0  0  0  0  0  0  0  0  0  0  0  0
    8.4227    6.1062   15.5847 C   0  0  0  0  0  0  0  0  0  0  0  0
    8.0113    7.9139   21.6854 N   0  0  0  0  0  0  0  0  0  0  0  0
   11.7019    6.8044   20.0516 C   0  0  0  0  0  0  0  0  0  0  0  0
    9.8665    8.0665   19.6878 C   0  0  0  0  0  0  0  0  0  0  0  0
   10.1007    6.7165   21.1211 C   0  0  0  0  0  0  0  0  0  0  0  0
    9.7961    5.5370   15.1605 C   0  0  0  0  0  0  0  0  0  0  0  0
    9.9083    7.7095   16.1138 C   0  0  0  0  0  0  0  0  0  0  0  0
   11.0149    7.2310   15.1974 F   0  0  0  0  0  0  0  0  0  0  0  0
    9.8972    6.7081   23.9643 N   0  0  0  0  0  0  0  0  0  0  0  0
    6.2894    7.7156   23.3042 C   0  0  0  0  0  0  0  0  0  0  0  0
    8.9169    6.8596   23.8460 C   0  0  0  0  0  0  0  0  0  0  0  0
   11.8998    5.9900   21.4192 F   0  0  0  0  0  0  0  0  0  0  0  0
   11.8569    6.1910   19.8965 He  0  0  0  0  0  0  0  0  0  0  0  0
    7.8121    8.5563   20.4913 He  0  0  0  0  0  0  0  0  0  0  0  0
   13.8056    6.0639   19.8851 He  0  0  0  0  0  0  0  0  0  0  0  0
  1  5  1  0
  1  9  3  0
  1 12  1  0
  2  3  2  0
  2  7  2  0
  2 25  1  0
  2 26  1  0
  3  4  2  0
  3 16  4  0
  3 20  1  0
  3 24  1  0
  4  8  3  0
  4 10  4  0
  4 14  4  0
  4 20  4  0
  4 23  2  0
  4 24  1  0
  4 27  2  0
  5  7  3  0
  6  8  2  0
  6  9  2  0
  6 17  1  0
  6 26  4  0
  6 27  3  0
  7 23  4  0
  8 14  1  0
  8 25  1  0
  9 12  2  0
  9 26  4  0
 10 18  3  0
 11 20  2  0
 11 21  4  0
 11 22  2  0
 11 24  2  0
 12 14  1  0
 13 14  4  0
 13 20  4  0
 13 21  1  0
 13 24  3  0
 14 16  1  0
 14 22  1  0
 15 22  4  0
 16 24  2  0
 16 26  4  0
 17 20  1  0
 18 22  1  0
 19 23  3  0
 20 22  2  0
 22 23  4  0
 22 26  1  0
 24 26  1  0
M  END
$$$$

 Created by Python create_sdf_string function

 30 33  0  0  0  0  0  0  0  0999 V2000
    8.4367    9.8179   18.7127 C   0  0  0  0  0  0  0  0  0  0  0  0
    7.9327    7.5438   22.8949 C   0  0  0  0  0  0  0  0  0  0  0  0
    8.6911    7.0521   16.4893 C   0  0  0  0  0  0  0  0  0  0  0  0
   10.4696    6.6543   22.1597 C   0  0  0  0  0  0  0  0  0  0  0  0
    8.5268    9.2493   19.8689 N   0  0  0  0  0  0  0  0  0  0  0  0
    8.0686    7.2335   25.1037 C   0  0  0  0  0  0  0  0  0  0  0  0
   10.5820    6.1651   14.6951 C   0  0  0  0  0  0  0  0  0  0  0  0
    6.6744    7.6487   24.8564 N   0  0  0  0  0  0  0  0  0  0  0  0
    9.1030   10.6022   16.6401 O   0  0  0  0  0  0  0  0  0  0  0  0
   12.0877    6.3805   20.4177 C   0  0  0  0  0  0  0  0  0  0  0  0
    6.7421    8.9226   20.7777 O   0  0  0  0  0  0  0  0  0  0  0  0
   13.5944    6.1997   18.5031 C   0  0  0  0  0  0  0  0  0  0  0  0
    9.2825    9.7669   17.4272 C   0  0  0  0  0  0  0  0  0  0  0  0
    9.1455    4.3678   14.0949 O   0  0  0  0  0  0  0  0  0  0  0  0
   10.1903    8.8224   17.1278 N   0  0  0  0  0  0  0  0  0  0  0  0
    5.4714    7.6017   22.9162 O   0  0  0  0  0  0  0  0  0  0  0  0
    7.8355    8.6751   20.7562 C   0  0  0  0  0  0  0  0  0  0  0  0
   13.4066    5.9318   20.0009 O   0  0  0  0  0  0  0  0  0  0  0  0
    8.4717    5.8592   15.7981 C   0  0  0  0  0  0  0  0  0  0  0  0
    8.4461    7.8366   21.7123 C   0  0  0  0  0  0  0  0  0  0  0  0
   11.3731    7.0107   19.5412 C   0  0  0  0  0  0  0  0  0  0  0  0
   10.3234    7.7127   20.0009 C   0  0  0  0  0  0  0  0  0  0  0  0
    9.8025    7.4035   21.2690 C   0  0  0  0  0  0  0  0  0  0  0  0
    9.4132    5.4464   14.8584 C   0  0  0  0  0  0  0  0  0  0  0  0
    9.9064    7.7496   16.3292 C   0  0  0  0  0  0  0  0  0  0  0  0
   10.8420    7.2888   15.4596 C   0  0  0  0  0  0  0  0  0  0  0  0
    9.9833    6.5446   23.5238 N   0  0  0  0  0  0  0  0  0  0  0  0
    6.5185    7.6765   23.4760 C   0  0  0  0  0  0  0  0  0  0  0  0
    8.7706    7.1066   23.8582 C   0  0  0  0  0  0  0  0  0  0  0  0
   11.6929    6.0901   21.6967 C   0  0  0  0  0  0  0  0  0  0  0  0
  1  5  1  0
  1 13  1  0
  2 20  1  0
  2 28  1  0
  2 29  1  0
  3 19  4  0
  3 25  4  0
  4 23  4  0
  4 27  1  0
  4 30  4  0
  5 17  1  0
  6  8  2  0
  6 29  1  0
  7 24  4  0
  7 26  4  0
  8 28  1  0
  9 13  2  0
 10 18  1  0
 10 21  4  0
 10 30  4  0
 11 17  2  0
 12 18  1  0
 13 15  1  0
 14 24  1  0
 15 25  1  0
 16 28  2  0
 17 20  1  0
 19 24  4  0
 20 23  1  0
 21 22  4  0
 22 23  4  0
 25 26  4  0
 27 29  1  0
M  END
$$$$

 Created by Python create_sdf_string function

 30 53  0  0  0  0  0  0  0  0999 V2000
    7.7449    7.4478   23.0299 C   0  0  0  0  0  0  0  0  0  0  0  0
    8.3401    7.2409   16.3518 C   0  0  0  0  0  0  0  0  0  0  0  0
   10.5422    6.6168   22.1316 C   0  0  0  0  0  0  0  0  0  0  0  0
    8.2826    9.7803   19.8087 N   0  0  0  0  0  0  0  0  0  0  0  0
    7.8343    7.0847   24.8957 F   0  0  0  0  0  0  0  0  0  0  0  0
   10.6862    6.2503   14.8552 C   0  0  0  0  0  0  0  0  0  0  0  0
    6.7177    7.4095   25.3105 N   0  0  0  0  0  0  0  0  0  0  0  0
   11.9669    6.4305   20.8758 C   0  0  0  0  0  0  0  0  0  0  0  0
   13.3732    5.8962   18.2933 Br  0  0  0  0  0  0  0  0  0  0  0  0
    9.2475    9.6890   17.4313 C   0  0  0  0  0  0  0  0  0  0  0  0
    9.1311    4.8328   13.8824 O   0  0  0  0  0  0  0  0  0  0  0  0
   10.1035    8.4247   16.9307 N   0  0  0  0  0  0  0  0  0  0  0  0
    5.6268    8.0032   22.7234 O   0  0  0  0  0  0  0  0  0  0  0  0
    7.6814    8.5708   20.8527 P   0  0  0  0  0  0  0  0  0  0  0  0
   13.4999    5.8746   19.7636 O   0  0  0  0  0  0  0  0  0  0  0  0
    8.4865    5.4571   15.6461 C   0  0  0  0  0  0  0  0  0  0  0  0
    8.6585    7.5927   21.4186 C   0  0  0  0  0  0  0  0  0  0  0  0
   11.5753    6.7954   19.5063 P   0  0  0  0  0  0  0  0  0  0  0  0
    9.9400    7.4360   21.4498 C   0  0  0  0  0  0  0  0  0  0  0  0
    9.0609    5.4574   14.4029 C   0  0  0  0  0  0  0  0  0  0  0  0
   10.1077    7.7173   16.7823 C   0  0  0  0  0  0  0  0  0  0  0  0
    9.9626    6.2668   23.7194 N   0  0  0  0  0  0  0  0  0  0  0  0
    6.5965    7.7091   23.6012 C   0  0  0  0  0  0  0  0  0  0  0  0
    8.6644    7.3284   24.1498 C   0  0  0  0  0  0  0  0  0  0  0  0
   11.6832    6.0058   21.8888 C   0  0  0  0  0  0  0  0  0  0  0  0
    8.5308    9.6386   18.9818 He  0  0  0  0  0  0  0  0  0  0  0  0
    9.0816   10.6546   16.5019 He  0  0  0  0  0  0  0  0  0  0  0  0
    6.5527    9.1375   20.9955 He  0  0  0  0  0  0  0  0  0  0  0  0
   10.6673    7.8616   20.1509 He  0  0  0  0  0  0  0  0  0  0  0  0
   10.7497    7.0288   14.9843 He  0  0  0  0  0  0  0  0  0  0  0  0
  1  3  2  0
  1 14  4  0
  1 23  1  0
  1 24  1  0
  2 19  4  0
  3 10  1  0
  3 14  1  0
  3 22  1  0
  3 24  3  0
  3 25  4  0
  4 18  2  0
  4 20  3  0
  4 24  3  0
  4 25  4  0
  5  7  2  0
  5 13  2  0
  5 24  1  0
  5 25  3  0
  6 20  4  0
  6 23  1  0
  7 10  2  0
  7 12  4  0
  7 15  2  0
  7 23  1  0
  8 12  2  0
  8 13  1  0
  8 15  1  0
  8 18  3  0
  9 15  1  0
  9 20  2  0
 10 12  1  0
 10 16  3  0
 10 17  4  0
 10 21  3  0
 10 22  2  0
 10 25  4  0
 11 20  1  0
 11 25  1  0
 12 13  1  0
 12 16  2  0
 12 21  1  0
 12 22  3  0
 12 23  3  0
 13 17  1  0
 13 21  3  0
 13 23  2  0
 14 17  1  0
 14 19  1  0
 14 23  1  0
 16 20  4  0
 17 19  1  0
 18 23  3  0
 22 24  1  0
M  END
$$$$

 Created by Python create_sdf_string function

 30 33  0  0  0  0  0  0  0  0999 V2000
    8.5612    9.6921   18.7004 N   0  0  0  0  0  0  0  0  0  0  0  0
    7.9256    7.5650   22.8973 C   0  0  0  0  0  0  0  0  0  0  0  0
    8.6135    6.9462   16.4008 C   0  0  0  0  0  0  0  0  0  0  0  0
   10.5070    6.6256   22.2688 C   0  0  0  0  0  0  0  0  0  0  0  0
    8.4102    9.5412   19.8974 N   0  0  0  0  0  0  0  0  0  0  0  0
    8.1294    6.9823   25.0673 N   0  0  0  0  0  0  0  0  0  0  0  0
   10.5073    6.1207   14.5781 C   0  0  0  0  0  0  0  0  0  0  0  0
    6.7273    7.4269   24.8525 N   0  0  0  0  0  0  0  0  0  0  0  0
    8.9714   10.5455   16.5865 O   0  0  0  0  0  0  0  0  0  0  0  0
   12.1873    6.2806   20.5085 C   0  0  0  0  0  0  0  0  0  0  0  0
    6.5612    9.1038   20.8980 O   0  0  0  0  0  0  0  0  0  0  0  0
   13.4471    5.9222   18.5581 C   0  0  0  0  0  0  0  0  0  0  0  0
    9.1326    9.6162   17.4725 C   0  0  0  0  0  0  0  0  0  0  0  0
    9.0130    4.4309   13.8123 O   0  0  0  0  0  0  0  0  0  0  0  0
   10.0994    8.7401   17.1013 N   0  0  0  0  0  0  0  0  0  0  0  0
    5.5319    7.9052   23.0177 O   0  0  0  0  0  0  0  0  0  0  0  0
    7.7132    8.8133   20.8798 C   0  0  0  0  0  0  0  0  0  0  0  0
   13.3361    5.7320   20.0029 O   0  0  0  0  0  0  0  0  0  0  0  0
    8.3637    5.8540   15.5808 C   0  0  0  0  0  0  0  0  0  0  0  0
    8.5100    7.8950   21.6880 C   0  0  0  0  0  0  0  0  0  0  0  0
   11.5198    7.1105   19.6696 C   0  0  0  0  0  0  0  0  0  0  0  0
   10.4285    7.6980   20.1046 C   0  0  0  0  0  0  0  0  0  0  0  0
    9.8707    7.3850   21.3148 C   0  0  0  0  0  0  0  0  0  0  0  0
    9.3097    5.4765   14.6421 C   0  0  0  0  0  0  0  0  0  0  0  0
    9.8106    7.6297   16.2835 C   0  0  0  0  0  0  0  0  0  0  0  0
   10.8035    7.2287   15.4216 C   0  0  0  0  0  0  0  0  0  0  0  0
    9.9869    6.5177   23.5901 N   0  0  0  0  0  0  0  0  0  0  0  0
    6.5950    7.6929   23.5096 C   0  0  0  0  0  0  0  0  0  0  0  0
    8.7965    7.0493   23.8886 C   0  0  0  0  0  0  0  0  0  0  0  0
   11.7160    6.0708   21.7999 C   0  0  0  0  0  0  0  0  0  0  0  0
  1  5  1  0
  1 13  1  0
  2 20  2  0
  2 28  1  0
  2 29  1  0
  3 19  4  0
  3 25  4  0
  4 23  4  0
  4 27  1  0
  4 30  4  0
  5 17  1  0
  6  8  2  0
  6 29  1  0
  7 24  4  0
  7 26  4  0
  8 28  1  0
  9 13  1  0
 10 18  1  0
 10 21  4  0
 10 30  4  0
 11 17  2  0
 12 18  1  0
 13 15  1  0
 14 24  1  0
 15 25  1  0
 16 28  2  0
 17 20  1  0
 19 24  4  0
 20 23  1  0
 21 22  4  0
 22 23  4  0
 25 26  4  0
 27 29  1  0
M  END
$$$$

 Created by Python create_sdf_string function

 30 56  0  0  0  0  0  0  0  0999 V2000
    8.3556    9.6976   17.9998 N   0  0  0  0  0  0  0  0  0  0  0  0
    7.9722    7.6999   22.6673 C   0  0  0  0  0  0  0  0  0  0  0  0
    8.8120    7.1953   16.2918 C   0  0  0  0  0  0  0  0  0  0  0  0
   10.3328    6.8873   22.1508 C   0  0  0  0  0  0  0  0  0  0  0  0
    8.4061    9.5466   19.5818 P   0  0  0  0  0  0  0  0  0  0  0  0
    8.1992    6.9014   25.4426 N   0  0  0  0  0  0  0  0  0  0  0  0
   10.5357    6.3935   14.6679 C   0  0  0  0  0  0  0  0  0  0  0  0
    7.0269    7.4407   24.8551 N   0  0  0  0  0  0  0  0  0  0  0  0
    8.8449   10.4278   16.2343 F   0  0  0  0  0  0  0  0  0  0  0  0
   12.0931    6.2115   20.5255 C   0  0  0  0  0  0  0  0  0  0  0  0
   13.6619    5.6712   18.5992 C   0  0  0  0  0  0  0  0  0  0  0  0
    8.3115    9.5993   17.6324 C   0  0  0  0  0  0  0  0  0  0  0  0
    9.2552    4.0669   13.4519 O   0  0  0  0  0  0  0  0  0  0  0  0
    5.4921    8.2169   22.7369 O   0  0  0  0  0  0  0  0  0  0  0  0
    7.3287    8.5851   20.8273 C   0  0  0  0  0  0  0  0  0  0  0  0
   13.2439    5.7247   19.3268 O   0  0  0  0  0  0  0  0  0  0  0  0
    8.5683    6.0229   15.2910 C   0  0  0  0  0  0  0  0  0  0  0  0
    8.4735    8.1350   21.5858 C   0  0  0  0  0  0  0  0  0  0  0  0
   11.8452    7.1473   19.4438 C   0  0  0  0  0  0  0  0  0  0  0  0
   10.4633    7.8947   19.6980 C   0  0  0  0  0  0  0  0  0  0  0  0
   10.2689    7.3226   21.2573 C   0  0  0  0  0  0  0  0  0  0  0  0
    9.3546    5.4901   14.5794 C   0  0  0  0  0  0  0  0  0  0  0  0
    9.7477    7.9641   16.5039 C   0  0  0  0  0  0  0  0  0  0  0  0
   10.8256    7.3191   15.0029 Se  0  0  0  0  0  0  0  0  0  0  0  0
    9.8653    6.6511   23.7564 N   0  0  0  0  0  0  0  0  0  0  0  0
    6.5014    7.8530   24.0809 C   0  0  0  0  0  0  0  0  0  0  0  0
    8.7703    7.0156   23.4344 C   0  0  0  0  0  0  0  0  0  0  0  0
   12.1719    6.2154   21.4912 C   0  0  0  0  0  0  0  0  0  0  0  0
    6.5223    8.6534   20.8541 He  0  0  0  0  0  0  0  0  0  0  0  0
   10.5232    8.6858   16.9310 He  0  0  0  0  0  0  0  0  0  0  0  0
  1  5  1  0
  1 12  1  0
  1 15  3  0
  1 28  2  0
  2 11  1  0
  2 15  3  0
  2 18  2  0
  2 25  2  0
  2 27  1  0
  3  5  2  0
  3 10  2  0
  3 17  4  0
  3 18  4  0
  3 23  4  0
  4  8  1  0
  4 20  2  0
  4 21  4  0
  4 23  4  0
  4 25  1  0
  4 28  4  0
  5 15  1  0
  5 21  2  0
  5 23  4  0
  6  8  2  0
  6 19  2  0
  6 22  1  0
  6 27  1  0
  7 10  4  0
  7 21  2  0
  7 22  4  0
  7 24  4  0
  8 13  2  0
  8 17  3  0
  8 25  4  0
  8 26  1  0
  8 27  2  0
  9 12  1  0
  9 21  4  0
 10 14  4  0
 10 16  1  0
 10 19  1  0
 10 28  4  0
 13 22  1  0
 13 28  4  0
 14 26  2  0
 15 17  2  0
 15 18  1  0
 16 20  4  0
 17 22  4  0
 19 21  4  0
 20 24  2  0
 20 26  2  0
 22 23  3  0
 22 24  2  0
 23 24  4  0
 25 27  1  0
M  END
$$$$

 Created by Python create_sdf_string function

 30 33  0  0  0  0  0  0  0  0999 V2000
    8.1360    9.6018   18.3517 N   0  0  0  0  0  0  0  0  0  0  0  0
    7.9741    7.6858   22.8398 C   0  0  0  0  0  0  0  0  0  0  0  0
    8.6249    7.0281   16.1465 C   0  0  0  0  0  0  0  0  0  0  0  0
   10.5491    6.7867   22.0501 C   0  0  0  0  0  0  0  0  0  0  0  0
    8.3436    9.5810   19.7728 N   0  0  0  0  0  0  0  0  0  0  0  0
    8.3002    6.8672   24.9843 N   0  0  0  0  0  0  0  0  0  0  0  0
   10.6124    6.2088   14.4224 C   0  0  0  0  0  0  0  0  0  0  0  0
    6.9315    7.4254   24.9349 N   0  0  0  0  0  0  0  0  0  0  0  0
    8.6147   10.3766   16.1958 O   0  0  0  0  0  0  0  0  0  0  0  0
   12.1978    6.3268   20.3505 C   0  0  0  0  0  0  0  0  0  0  0  0
    6.5343    8.6920   20.6216 O   0  0  0  0  0  0  0  0  0  0  0  0
   13.6786    5.8645   18.6427 C   0  0  0  0  0  0  0  0  0  0  0  0
    8.8388    9.6631   17.2510 C   0  0  0  0  0  0  0  0  0  0  0  0
    9.2195    4.3144   13.6383 O   0  0  0  0  0  0  0  0  0  0  0  0
   10.0624    8.9270   16.8639 C   0  0  0  0  0  0  0  0  0  0  0  0
    5.6753    8.1454   23.2396 O   0  0  0  0  0  0  0  0  0  0  0  0
    7.6645    8.7395   20.6535 C   0  0  0  0  0  0  0  0  0  0  0  0
   13.2985    5.5652   19.9334 O   0  0  0  0  0  0  0  0  0  0  0  0
    8.4666    5.8637   15.3583 C   0  0  0  0  0  0  0  0  0  0  0  0
    8.5083    7.9900   21.6225 C   0  0  0  0  0  0  0  0  0  0  0  0
   11.5900    7.1757   19.5096 C   0  0  0  0  0  0  0  0  0  0  0  0
   10.4254    7.8357   19.9451 C   0  0  0  0  0  0  0  0  0  0  0  0
    9.8708    7.5492   21.1694 C   0  0  0  0  0  0  0  0  0  0  0  0
    9.4472    5.4893   14.4894 C   0  0  0  0  0  0  0  0  0  0  0  0
    9.8209    7.7692   16.0494 C   0  0  0  0  0  0  0  0  0  0  0  0
   10.8225    7.3355   15.2276 C   0  0  0  0  0  0  0  0  0  0  0  0
   10.0553    6.6128   23.3374 N   0  0  0  0  0  0  0  0  0  0  0  0
    6.6880    7.8163   23.6458 C   0  0  0  0  0  0  0  0  0  0  0  0
    8.8390    7.0484   23.6831 C   0  0  0  0  0  0  0  0  0  0  0  0
   11.7339    6.1798   21.6301 C   0  0  0  0  0  0  0  0  0  0  0  0
  1  5  1  0
  1 13  1  0
  2 20  2  0
  2 28  1  0
  2 29  1  0
  3 19  4  0
  3 25  4  0
  4 23  4  0
  4 27  1  0
  4 30  4  0
  5 17  1  0
  6  8  2  0
  6 29  1  0
  7 24  4  0
  7 26  4  0
  8 28  1  0
  9 13  1  0
 10 18  1  0
 10 21  4  0
 10 30  4  0
 11 17  2  0
 12 18  1  0
 13 15  1  0
 14 24  1  0
 15 25  1  0
 16 28  2  0
 17 20  1  0
 19 24  4  0
 20 23  1  0
 21 22  4  0
 22 23  4  0
 25 26  4  0
 27 29  1  0
M  END
$$$$

 Created by Python create_sdf_string function

 30 42  0  0  0  0  0  0  0  0999 V2000
    8.5453    9.1064   18.2870 N   0  0  0  0  0  0  0  0  0  0  0  0
    9.0355    7.0270   16.0249 C   0  0  0  0  0  0  0  0  0  0  0  0
    8.6453    9.6510   19.7740 N   0  0  0  0  0  0  0  0  0  0  0  0
    8.5256    6.9990   25.1939 N   0  0  0  0  0  0  0  0  0  0  0  0
   10.4305    6.5907   14.5883 C   0  0  0  0  0  0  0  0  0  0  0  0
    6.7993    7.3533   24.4958 N   0  0  0  0  0  0  0  0  0  0  0  0
    8.6994   10.2151   16.4690 O   0  0  0  0  0  0  0  0  0  0  0  0
   11.9716    5.8797   20.1782 Br  0  0  0  0  0  0  0  0  0  0  0  0
    6.2889    8.2960   21.2354 O   0  0  0  0  0  0  0  0  0  0  0  0
   13.8783    5.6010   18.5029 C   0  0  0  0  0  0  0  0  0  0  0  0
    8.6636    9.6952   17.1127 C   0  0  0  0  0  0  0  0  0  0  0  0
    9.2656    4.1899   13.7829 O   0  0  0  0  0  0  0  0  0  0  0  0
    9.8647    9.1351   16.5667 C   0  0  0  0  0  0  0  0  0  0  0  0
    5.9306    8.2867   23.3036 O   0  0  0  0  0  0  0  0  0  0  0  0
    7.3034    8.8216   20.2653 C   0  0  0  0  0  0  0  0  0  0  0  0
   13.3132    5.0952   19.5323 O   0  0  0  0  0  0  0  0  0  0  0  0
    8.4161    5.7366   15.3218 C   0  0  0  0  0  0  0  0  0  0  0  0
    8.5473    8.1903   21.8139 C   0  0  0  0  0  0  0  0  0  0  0  0
   11.8078    7.0623   19.4645 C   0  0  0  0  0  0  0  0  0  0  0  0
    9.9338    7.4183   21.5963 C   0  0  0  0  0  0  0  0  0  0  0  0
    9.2029    4.9744   14.5426 Cl  0  0  0  0  0  0  0  0  0  0  0  0
    9.6767    8.0099   15.5357 C   0  0  0  0  0  0  0  0  0  0  0  0
   11.1067    7.4178   15.2260 C   0  0  0  0  0  0  0  0  0  0  0  0
    8.7033    7.3359   23.6271 C   0  0  0  0  0  0  0  0  0  0  0  0
   11.7846    5.6546   21.5168 Cl  0  0  0  0  0  0  0  0  0  0  0  0
    8.3526    7.6396   22.9875 He  0  0  0  0  0  0  0  0  0  0  0  0
   10.1161    6.3988   22.1719 He  0  0  0  0  0  0  0  0  0  0  0  0
   10.4816    7.5555   20.1995 He  0  0  0  0  0  0  0  0  0  0  0  0
    9.8990    6.8857   23.1918 He  0  0  0  0  0  0  0  0  0  0  0  0
    7.1066    7.9444   23.6708 He  0  0  0  0  0  0  0  0  0  0  0  0
  1  3  1  0
  1 11  1  0
  1 23  2  0
  2 12  4  0
  2 17  4  0
  3  9  4  0
  3 20  1  0
  4  6  2  0
  4 17  2  0
  5  6  1  0
  5 21  4  0
  5 23  4  0
  6 13  4  0
  6 14  4  0
  7  9  3  0
  7 11  1  0
  8 15  1  0
  8 16  1  0
  8 18  2  0
  8 19  4  0
  8 24  4  0
  8 25  4  0
  9 10  1  0
  9 15  2  0
 10 11  3  0
 10 16  1  0
 10 22  1  0
 11 13  3  0
 13 16  2  0
 13 22  1  0
 13 23  3  0
 13 25  3  0
 14 23  4  0
 15 16  2  0
 15 18  1  0
 15 19  3  0
 16 24  3  0
 17 21  4  0
 18 20  1  0
 20 23  3  0
 21 24  1  0
 22 23  4  0
M  END
$$$$

 Created by Python create_sdf_string function

 30 33  0  0  0  0  0  0  0  0999 V2000
    8.3656    9.2300   18.3791 N   0  0  0  0  0  0  0  0  0  0  0  0
    8.1139    7.7090   22.9199 C   0  0  0  0  0  0  0  0  0  0  0  0
    8.6305    6.9994   16.0439 C   0  0  0  0  0  0  0  0  0  0  0  0
   10.4784    6.5774   22.0513 C   0  0  0  0  0  0  0  0  0  0  0  0
    8.2871    9.4829   19.6646 N   0  0  0  0  0  0  0  0  0  0  0  0
    8.4482    6.9772   25.0616 N   0  0  0  0  0  0  0  0  0  0  0  0
   10.5989    6.0987   14.3840 C   0  0  0  0  0  0  0  0  0  0  0  0
    6.9725    7.3213   24.8257 N   0  0  0  0  0  0  0  0  0  0  0  0
    8.2730   10.3864   16.4901 O   0  0  0  0  0  0  0  0  0  0  0  0
   12.0530    6.0320   20.2796 C   0  0  0  0  0  0  0  0  0  0  0  0
    6.5295    8.5548   20.6952 O   0  0  0  0  0  0  0  0  0  0  0  0
   13.7105    5.8152   18.6360 C   0  0  0  0  0  0  0  0  0  0  0  0
    8.8582    9.6064   17.2015 C   0  0  0  0  0  0  0  0  0  0  0  0
    9.2585    4.1698   13.7511 O   0  0  0  0  0  0  0  0  0  0  0  0
    9.9720    9.0211   16.5420 C   0  0  0  0  0  0  0  0  0  0  0  0
    5.9087    8.4862   23.2643 O   0  0  0  0  0  0  0  0  0  0  0  0
    7.7080    8.6839   20.6711 C   0  0  0  0  0  0  0  0  0  0  0  0
   13.1109    5.2609   19.8181 O   0  0  0  0  0  0  0  0  0  0  0  0
    8.4899    5.7821   15.3522 C   0  0  0  0  0  0  0  0  0  0  0  0
    8.5835    7.9895   21.6729 C   0  0  0  0  0  0  0  0  0  0  0  0
   11.5852    7.0082   19.5058 C   0  0  0  0  0  0  0  0  0  0  0  0
   10.4563    7.7514   19.9573 C   0  0  0  0  0  0  0  0  0  0  0  0
    9.8665    7.4480   21.2047 C   0  0  0  0  0  0  0  0  0  0  0  0
    9.4621    5.3472   14.5062 C   0  0  0  0  0  0  0  0  0  0  0  0
    9.7789    7.8014   15.8486 C   0  0  0  0  0  0  0  0  0  0  0  0
   10.7624    7.3432   15.0574 C   0  0  0  0  0  0  0  0  0  0  0  0
   10.0328    6.4741   23.3604 N   0  0  0  0  0  0  0  0  0  0  0  0
    6.8355    7.8959   23.6198 C   0  0  0  0  0  0  0  0  0  0  0  0
    8.9475    7.0789   23.8219 C   0  0  0  0  0  0  0  0  0  0  0  0
   11.5291    5.8171   21.5388 C   0  0  0  0  0  0  0  0  0  0  0  0
  1  5  1  0
  1 13  1  0
  2 20  2  0
  2 28  1  0
  2 29  1  0
  3 19  4  0
  3 25  4  0
  4 23  4  0
  4 27  1  0
  4 30  4  0
  5 17  1  0
  6  8  2  0
  6 29  1  0
  7 24  4  0
  7 26  4  0
  8 28  1  0
  9 13  1  0
 10 18  1  0
 10 21  4  0
 10 30  4  0
 11 17  2  0
 12 18  1  0
 13 15  1  0
 14 24  1  0
 15 25  1  0
 16 28  2  0
 17 20  1  0
 19 24  4  0
 20 23  1  0
 21 22  4  0
 22 23  4  0
 25 26  4  0
 27 29  1  0
M  END
$$$$

 Created by Python create_sdf_string function

 30 37  0  0  0  0  0  0  0  0999 V2000
    8.6866    9.0389   18.2068 N   0  0  0  0  0  0  0  0  0  0  0  0
    7.9529    7.7085   23.1302 O   0  0  0  0  0  0  0  0  0  0  0  0
    8.1093    7.3031   16.0867 C   0  0  0  0  0  0  0  0  0  0  0  0
   10.3321    6.5971   22.4396 C   0  0  0  0  0  0  0  0  0  0  0  0
    8.6205    9.2215   19.8585 N   0  0  0  0  0  0  0  0  0  0  0  0
    8.5436    7.4973   24.6717 N   0  0  0  0  0  0  0  0  0  0  0  0
   10.6279    6.2452   14.1066 C   0  0  0  0  0  0  0  0  0  0  0  0
    7.2358    6.8947   24.5358 N   0  0  0  0  0  0  0  0  0  0  0  0
    8.2085   10.6165   16.6412 O   0  0  0  0  0  0  0  0  0  0  0  0
    6.7336    8.6853   20.7689 O   0  0  0  0  0  0  0  0  0  0  0  0
   14.0935    5.8096   18.4922 C   0  0  0  0  0  0  0  0  0  0  0  0
    8.5468    9.7563   17.5590 C   0  0  0  0  0  0  0  0  0  0  0  0
    9.4472    4.2775   14.0900 Br  0  0  0  0  0  0  0  0  0  0  0  0
    9.7052    8.7745   16.3800 C   0  0  0  0  0  0  0  0  0  0  0  0
    6.2245    8.5834   23.4390 O   0  0  0  0  0  0  0  0  0  0  0  0
    7.3593    8.8379   20.9377 C   0  0  0  0  0  0  0  0  0  0  0  0
   13.0670    5.2457   19.7456 O   0  0  0  0  0  0  0  0  0  0  0  0
    8.3758    5.6347   15.9519 N   0  0  0  0  0  0  0  0  0  0  0  0
    8.6354    8.1530   21.8723 C   0  0  0  0  0  0  0  0  0  0  0  0
   11.5228    6.9750   19.2887 C   0  0  0  0  0  0  0  0  0  0  0  0
   10.5778    7.5848   20.2875 S   0  0  0  0  0  0  0  0  0  0  0  0
    9.2647    5.4734   14.8742 C   0  0  0  0  0  0  0  0  0  0  0  0
   10.0156    6.2131   23.3735 N   0  0  0  0  0  0  0  0  0  0  0  0
    6.9478    7.8699   23.2982 C   0  0  0  0  0  0  0  0  0  0  0  0
   11.4185    5.8795   21.5745 C   0  0  0  0  0  0  0  0  0  0  0  0
   12.1844    5.7845   20.2983 He  0  0  0  0  0  0  0  0  0  0  0  0
    9.8418    7.6047   21.4085 He  0  0  0  0  0  0  0  0  0  0  0  0
    9.9601    7.8192   15.7932 He  0  0  0  0  0  0  0  0  0  0  0  0
   10.9038    7.4535   15.1485 He  0  0  0  0  0  0  0  0  0  0  0  0
    9.1203    6.9526   23.8902 He  0  0  0  0  0  0  0  0  0  0  0  0
  1  5  1  0
  1 13  4  0
  1 20  3  0
  1 21  2  0
  2  8  4  0
  2 13  3  0
  2 19  2  0
  2 21  4  0
  2 22  2  0
  2 24  1  0
  3 18  4  0
  4 14  4  0
  4 23  2  0
  4 25  3  0
  5  6  3  0
  5  9  1  0
  5 16  1  0
  6  8  2  0
  6 16  3  0
  7 22  4  0
  7 24  2  0
  8 19  4  0
  8 24  3  0
  9 11  3  0
  9 25  3  0
 10 16  1  0
 11 12  1  0
 11 23  1  0
 12 14  1  0
 13 17  1  0
 13 22  1  0
 15 24  2  0
 18 22  4  0
 20 21  4  0
 20 25  1  0
 21 23  4  0
 23 25  3  0
M  END
$$$$

 Created by Python create_sdf_string function

 30 33  0  0  0  0  0  0  0  0999 V2000
    8.3176    9.1325   18.4903 N   0  0  0  0  0  0  0  0  0  0  0  0
    8.1969    7.6875   22.9711 C   0  0  0  0  0  0  0  0  0  0  0  0
    8.5191    7.0291   16.1779 C   0  0  0  0  0  0  0  0  0  0  0  0
   10.5182    6.5587   22.0548 C   0  0  0  0  0  0  0  0  0  0  0  0
    8.3827    9.5202   19.7912 N   0  0  0  0  0  0  0  0  0  0  0  0
    8.4782    6.9317   25.0380 N   0  0  0  0  0  0  0  0  0  0  0  0
   10.5372    6.2117   14.4738 C   0  0  0  0  0  0  0  0  0  0  0  0
    7.0139    7.1871   24.7795 N   0  0  0  0  0  0  0  0  0  0  0  0
    8.0810   10.5693   16.8171 O   0  0  0  0  0  0  0  0  0  0  0  0
   12.0809    6.0067   20.3139 C   0  0  0  0  0  0  0  0  0  0  0  0
    6.5997    8.7087   20.7428 O   0  0  0  0  0  0  0  0  0  0  0  0
   13.8325    5.8259   18.7392 C   0  0  0  0  0  0  0  0  0  0  0  0
    8.7319    9.6594   17.2738 C   0  0  0  0  0  0  0  0  0  0  0  0
    9.3033    4.0296   14.0209 Br  0  0  0  0  0  0  0  0  0  0  0  0
    9.7875    9.1385   16.5027 N   0  0  0  0  0  0  0  0  0  0  0  0
    6.0291    8.5626   23.3561 O   0  0  0  0  0  0  0  0  0  0  0  0
    7.7933    8.8119   20.7983 C   0  0  0  0  0  0  0  0  0  0  0  0
   13.1400    5.2560   19.8792 O   0  0  0  0  0  0  0  0  0  0  0  0
    8.4025    5.7854   15.5723 C   0  0  0  0  0  0  0  0  0  0  0  0
    8.6479    8.0403   21.7343 C   0  0  0  0  0  0  0  0  0  0  0  0
   11.5780    6.9757   19.5220 C   0  0  0  0  0  0  0  0  0  0  0  0
   10.5132    7.7750   20.0012 C   0  0  0  0  0  0  0  0  0  0  0  0
    9.9013    7.4686   21.2290 C   0  0  0  0  0  0  0  0  0  0  0  0
    9.4383    5.4205   14.7326 C   0  0  0  0  0  0  0  0  0  0  0  0
    9.6178    7.8467   15.8773 C   0  0  0  0  0  0  0  0  0  0  0  0
   10.6038    7.4721   15.0637 C   0  0  0  0  0  0  0  0  0  0  0  0
   10.1220    6.4760   23.3687 N   0  0  0  0  0  0  0  0  0  0  0  0
    6.9035    7.8827   23.6422 C   0  0  0  0  0  0  0  0  0  0  0  0
    9.0219    7.0204   23.8241 C   0  0  0  0  0  0  0  0  0  0  0  0
   11.5477    5.8274   21.5618 C   0  0  0  0  0  0  0  0  0  0  0  0
  1  5  1  0
  1 13  1  0
  2 20  2  0
  2 28  1  0
  2 29  1  0
  3 19  4  0
  3 25  4  0
  4 23  4  0
  4 27  2  0
  4 30  4  0
  5 17  1  0
  6  8  2  0
  6 29  1  0
  7 24  4  0
  7 26  4  0
  8 28  1  0
  9 13  1  0
 10 18  1  0
 10 21  4  0
 10 30  4  0
 11 17  1  0
 12 18  1  0
 13 15  1  0
 14 24  1  0
 15 25  1  0
 16 28  2  0
 17 20  1  0
 19 24  4  0
 20 23  1  0
 21 22  4  0
 22 23  4  0
 25 26  4  0
 27 29  1  0
M  END
$$$$

 Created by Python create_sdf_string function

 30 47  0  0  0  0  0  0  0  0999 V2000
    8.1666    9.4026   18.4159 N   0  0  0  0  0  0  0  0  0  0  0  0
    8.4545    6.8726   16.0837 C   0  0  0  0  0  0  0  0  0  0  0  0
   10.5116    6.5730   22.2177 C   0  0  0  0  0  0  0  0  0  0  0  0
    8.2929    9.5048   20.2506 N   0  0  0  0  0  0  0  0  0  0  0  0
    8.1788    7.1587   25.0276 N   0  0  0  0  0  0  0  0  0  0  0  0
   10.5252    6.2569   14.0422 C   0  0  0  0  0  0  0  0  0  0  0  0
    6.6037    7.3641   25.0519 S   0  0  0  0  0  0  0  0  0  0  0  0
    7.7805   10.5930   16.6040 O   0  0  0  0  0  0  0  0  0  0  0  0
   11.9115    6.0006   20.6042 C   0  0  0  0  0  0  0  0  0  0  0  0
    6.3884    8.8604   20.5009 O   0  0  0  0  0  0  0  0  0  0  0  0
   13.8316    5.6008   18.6665 C   0  0  0  0  0  0  0  0  0  0  0  0
    8.9722    9.8313   17.2582 C   0  0  0  0  0  0  0  0  0  0  0  0
    9.7760    9.3890   16.4861 C   0  0  0  0  0  0  0  0  0  0  0  0
    5.9378    8.3074   23.1404 O   0  0  0  0  0  0  0  0  0  0  0  0
   12.7749    5.2094   20.0888 O   0  0  0  0  0  0  0  0  0  0  0  0
    8.6433    5.5470   15.5603 C   0  0  0  0  0  0  0  0  0  0  0  0
    8.9431    7.9052   21.0598 C   0  0  0  0  0  0  0  0  0  0  0  0
   11.6079    6.9903   19.3404 C   0  0  0  0  0  0  0  0  0  0  0  0
   10.5171    7.8036   19.9564 C   0  0  0  0  0  0  0  0  0  0  0  0
    9.9779    7.3647   21.2662 C   0  0  0  0  0  0  0  0  0  0  0  0
    9.7210    5.0224   14.6332 C   0  0  0  0  0  0  0  0  0  0  0  0
    9.3563    8.0030   15.7029 C   0  0  0  0  0  0  0  0  0  0  0  0
   10.5267    7.3693   15.0378 C   0  0  0  0  0  0  0  0  0  0  0  0
    9.9892    6.4935   23.6163 N   0  0  0  0  0  0  0  0  0  0  0  0
    6.9309    7.8061   23.6888 O   0  0  0  0  0  0  0  0  0  0  0  0
    9.3068    6.8753   23.5896 C   0  0  0  0  0  0  0  0  0  0  0  0
   10.9378    5.6229   21.4911 C   0  0  0  0  0  0  0  0  0  0  0  0
    8.0722    7.7065   22.7738 He  0  0  0  0  0  0  0  0  0  0  0  0
    9.4393    3.9256   13.8960 He  0  0  0  0  0  0  0  0  0  0  0  0
    7.6822    8.3731   20.7556 He  0  0  0  0  0  0  0  0  0  0  0  0
  1  4  1  0
  1  8  3  0
  1 10  1  0
  1 17  1  0
  1 22  1  0
  1 26  4  0
  2 16  4  0
  2 22  4  0
  2 25  1  0
  3  5  2  0
  3 20  4  0
  3 24  2  0
  3 27  4  0
  4 20  4  0
  4 27  4  0
  5  7  2  0
  5 17  2  0
  6 11  4  0
  6 21  4  0
  6 23  4  0
  6 26  1  0
  7 25  1  0
  8 17  2  0
  9 18  4  0
  9 24  1  0
  9 27  4  0
 10 12  2  0
 10 24  4  0
 11 15  1  0
 12 13  1  0
 12 14  1  0
 12 16  3  0
 12 21  1  0
 13 21  4  0
 13 22  1  0
 13 27  2  0
 14 25  2  0
 15 20  4  0
 15 21  3  0
 16 20  2  0
 16 21  4  0
 17 20  1  0
 19 20  1  0
 21 26  4  0
 22 23  4  0
 24 26  3  0
 24 27  2  0
M  END
$$$$

 Created by Python create_sdf_string function

 30 33  0  0  0  0  0  0  0  0999 V2000
    8.2721    9.3074   18.4689 N   0  0  0  0  0  0  0  0  0  0  0  0
    8.0795    7.6172   22.8650 C   0  0  0  0  0  0  0  0  0  0  0  0
    8.5624    6.9125   16.1674 C   0  0  0  0  0  0  0  0  0  0  0  0
   10.4046    6.5173   22.0426 C   0  0  0  0  0  0  0  0  0  0  0  0
    8.3332    9.5674   19.7961 N   0  0  0  0  0  0  0  0  0  0  0  0
    8.3491    6.9183   25.0310 N   0  0  0  0  0  0  0  0  0  0  0  0
   10.5151    6.2297   14.2890 C   0  0  0  0  0  0  0  0  0  0  0  0
    6.9288    7.4626   24.8490 N   0  0  0  0  0  0  0  0  0  0  0  0
    7.8611   10.5353   16.6176 O   0  0  0  0  0  0  0  0  0  0  0  0
   11.9518    5.9458   20.3719 C   0  0  0  0  0  0  0  0  0  0  0  0
    6.4881    8.6213   20.5706 O   0  0  0  0  0  0  0  0  0  0  0  0
   13.6892    5.6049   18.8660 C   0  0  0  0  0  0  0  0  0  0  0  0
    8.6373    9.6835   17.2010 C   0  0  0  0  0  0  0  0  0  0  0  0
    9.5152    4.0770   13.9680 O   0  0  0  0  0  0  0  0  0  0  0  0
    9.6794    9.1444   16.4369 C   0  0  0  0  0  0  0  0  0  0  0  0
    5.8551    8.3488   23.1073 O   0  0  0  0  0  0  0  0  0  0  0  0
    7.7043    8.6547   20.6448 C   0  0  0  0  0  0  0  0  0  0  0  0
   12.9901    5.1015   19.9623 O   0  0  0  0  0  0  0  0  0  0  0  0
    8.5687    5.6530   15.5433 C   0  0  0  0  0  0  0  0  0  0  0  0
    8.5289    7.9460   21.6246 C   0  0  0  0  0  0  0  0  0  0  0  0
   11.5766    6.9694   19.5461 C   0  0  0  0  0  0  0  0  0  0  0  0
   10.4954    7.7526   20.0263 C   0  0  0  0  0  0  0  0  0  0  0  0
    9.8195    7.4124   21.1814 C   0  0  0  0  0  0  0  0  0  0  0  0
    9.5392    5.3102   14.5955 C   0  0  0  0  0  0  0  0  0  0  0  0
    9.5684    7.8523   15.8025 C   0  0  0  0  0  0  0  0  0  0  0  0
   10.5070    7.5209   14.8867 C   0  0  0  0  0  0  0  0  0  0  0  0
   10.0373    6.4630   23.3545 N   0  0  0  0  0  0  0  0  0  0  0  0
    6.8027    7.8928   23.4687 C   0  0  0  0  0  0  0  0  0  0  0  0
    8.9340    6.9761   23.7668 C   0  0  0  0  0  0  0  0  0  0  0  0
   11.4352    5.7619   21.6058 C   0  0  0  0  0  0  0  0  0  0  0  0
  1  5  1  0
  1 13  1  0
  2 20  2  0
  2 28  1  0
  2 29  1  0
  3 19  4  0
  3 25  4  0
  4 23  4  0
  4 27  2  0
  4 30  4  0
  5 17  1  0
  6  8  2  0
  6 29  1  0
  7 24  4  0
  7 26  4  0
  8 28  1  0
  9 13  1  0
 10 18  1  0
 10 21  4  0
 10 30  4  0
 11 17  1  0
 12 18  1  0
 13 15  1  0
 14 24  1  0
 15 25  1  0
 16 28  2  0
 17 20  1  0
 19 24  4  0
 20 23  1  0
 21 22  4  0
 22 23  4  0
 25 26  4  0
 27 29  2  0
M  END
$$$$

 Created by Python create_sdf_string function

 30 60  0  0  0  0  0  0  0  0999 V2000
    8.1269    9.0164   18.2290 C   0  0  0  0  0  0  0  0  0  0  0  0
    8.0895    7.5624   22.9242 C   0  0  0  0  0  0  0  0  0  0  0  0
    8.5654    7.1815   16.0080 C   0  0  0  0  0  0  0  0  0  0  0  0
   10.1245    6.4553   22.1799 C   0  0  0  0  0  0  0  0  0  0  0  0
    8.3855    9.7168   19.6502 N   0  0  0  0  0  0  0  0  0  0  0  0
    8.6860    7.2223   24.8915 N   0  0  0  0  0  0  0  0  0  0  0  0
   10.4735    6.0031   14.0510 C   0  0  0  0  0  0  0  0  0  0  0  0
    7.3766    7.2533   25.1518 N   0  0  0  0  0  0  0  0  0  0  0  0
    8.2641   10.4431   16.5787 O   0  0  0  0  0  0  0  0  0  0  0  0
   12.3869    5.8812   20.4612 C   0  0  0  0  0  0  0  0  0  0  0  0
    6.4772    8.1679   20.4375 O   0  0  0  0  0  0  0  0  0  0  0  0
   13.6596    5.3445   18.8250 C   0  0  0  0  0  0  0  0  0  0  0  0
    8.3650   10.0086   17.2906 C   0  0  0  0  0  0  0  0  0  0  0  0
    9.6714    4.4459   13.7726 O   0  0  0  0  0  0  0  0  0  0  0  0
    9.2937    9.3376   16.7976 O   0  0  0  0  0  0  0  0  0  0  0  0
    5.4316    8.2521   23.0622 O   0  0  0  0  0  0  0  0  0  0  0  0
    7.8062    8.9734   20.8683 C   0  0  0  0  0  0  0  0  0  0  0  0
   13.2711    5.3026   20.0489 O   0  0  0  0  0  0  0  0  0  0  0  0
    9.1183    5.2678   15.6412 C   0  0  0  0  0  0  0  0  0  0  0  0
   11.6123    7.3782   19.4939 C   0  0  0  0  0  0  0  0  0  0  0  0
   10.3359    7.6329   20.2237 C   0  0  0  0  0  0  0  0  0  0  0  0
    9.7963    7.2755   21.5288 C   0  0  0  0  0  0  0  0  0  0  0  0
    9.7686    5.3635   14.4743 Cl  0  0  0  0  0  0  0  0  0  0  0  0
    9.9971    6.5120   23.0890 N   0  0  0  0  0  0  0  0  0  0  0  0
    6.8191    7.8971   23.4446 C   0  0  0  0  0  0  0  0  0  0  0  0
    9.0626    7.0354   23.9149 F   0  0  0  0  0  0  0  0  0  0  0  0
   11.5463    5.6804   21.5042 C   0  0  0  0  0  0  0  0  0  0  0  0
    8.6039    8.1051   21.3238 He  0  0  0  0  0  0  0  0  0  0  0  0
    9.7114    7.9099   16.1055 He  0  0  0  0  0  0  0  0  0  0  0  0
   10.7131    7.7692   14.8687 He  0  0  0  0  0  0  0  0  0  0  0  0
  1  5  1  0
  1 13  1  0
  1 14  1  0
  1 16  4  0
  1 24  3  0
  2 21  1  0
  2 25  1  0
  2 26  1  0
  3 15  1  0
  3 17  2  0
  3 19  4  0
  4 10  3  0
  4 22  4  0
  4 24  2  0
  4 27  4  0
  5 12  2  0
  5 17  1  0
  6  8  2  0
  6 11  2  0
  6 15  3  0
  7 17  4  0
  7 23  4  0
  8  9  2  0
  8 12  1  0
  8 14  1  0
  8 16  3  0
  8 25  1  0
  9 13  1  0
  9 19  2  0
  9 22  2  0
  9 23  3  0
 10 14  2  0
 10 18  1  0
 10 20  4  0
 10 27  4  0
 11 17  1  0
 11 24  3  0
 12 18  1  0
 12 26  4  0
 13 15  1  0
 13 24  4  0
 14 23  1  0
 14 25  1  0
 15 23  2  0
 16 17  3  0
 16 21  2  0
 16 25  2  0
 16 27  2  0
 17 21  3  0
 18 23  4  0
 19 20  1  0
 19 21  3  0
 19 23  4  0
 20 21  4  0
 20 24  2  0
 20 25  4  0
 21 22  4  0
 21 26  2  0
 24 26  2  0
 26 27  3  0
M  END
$$$$

 Created by Python create_sdf_string function

 30 33  0  0  0  0  0  0  0  0999 V2000
    7.9590    9.1636   18.3384 C   0  0  0  0  0  0  0  0  0  0  0  0
    8.1251    7.6613   22.8717 C   0  0  0  0  0  0  0  0  0  0  0  0
    8.7523    6.8183   16.2297 C   0  0  0  0  0  0  0  0  0  0  0  0
   10.4729    6.5463   22.0472 C   0  0  0  0  0  0  0  0  0  0  0  0
    8.2532    9.5258   19.7192 N   0  0  0  0  0  0  0  0  0  0  0  0
    8.5004    7.0116   25.0194 N   0  0  0  0  0  0  0  0  0  0  0  0
   10.6082    6.4660   14.2596 C   0  0  0  0  0  0  0  0  0  0  0  0
    7.1222    7.5285   24.9139 N   0  0  0  0  0  0  0  0  0  0  0  0
    8.0471   10.6055   16.5313 O   0  0  0  0  0  0  0  0  0  0  0  0
   12.1178    6.0739   20.3909 C   0  0  0  0  0  0  0  0  0  0  0  0
    6.4894    8.3560   20.5487 O   0  0  0  0  0  0  0  0  0  0  0  0
   13.6702    5.6263   18.7874 C   0  0  0  0  0  0  0  0  0  0  0  0
    8.5953    9.6652   17.1329 C   0  0  0  0  0  0  0  0  0  0  0  0
    9.7140    4.2985   13.8441 O   0  0  0  0  0  0  0  0  0  0  0  0
    9.5496    9.0606   16.5235 N   0  0  0  0  0  0  0  0  0  0  0  0
    5.8309    8.1836   23.2057 O   0  0  0  0  0  0  0  0  0  0  0  0
    7.7092    8.7512   20.7349 C   0  0  0  0  0  0  0  0  0  0  0  0
   13.2412    5.3306   20.0606 O   0  0  0  0  0  0  0  0  0  0  0  0
    8.7969    5.6404   15.5318 C   0  0  0  0  0  0  0  0  0  0  0  0
    8.5519    7.9546   21.6525 C   0  0  0  0  0  0  0  0  0  0  0  0
   11.6313    7.0616   19.5778 C   0  0  0  0  0  0  0  0  0  0  0  0
   10.4891    7.7704   19.9901 C   0  0  0  0  0  0  0  0  0  0  0  0
    9.8456    7.4436   21.1700 C   0  0  0  0  0  0  0  0  0  0  0  0
    9.7149    5.4805   14.5498 C   0  0  0  0  0  0  0  0  0  0  0  0
    9.5879    7.8569   15.8859 C   0  0  0  0  0  0  0  0  0  0  0  0
   10.5388    7.6940   14.9464 C   0  0  0  0  0  0  0  0  0  0  0  0
   10.0205    6.4005   23.3154 N   0  0  0  0  0  0  0  0  0  0  0  0
    6.8668    7.8658   23.5879 C   0  0  0  0  0  0  0  0  0  0  0  0
    8.9712    6.9886   23.7626 C   0  0  0  0  0  0  0  0  0  0  0  0
   11.5364    5.8357   21.6023 C   0  0  0  0  0  0  0  0  0  0  0  0
  1  5  1  0
  1 13  1  0
  2 20  2  0
  2 28  1  0
  2 29  1  0
  3 19  4  0
  3 25  4  0
  4 23  4  0
  4 27  2  0
  4 30  4  0
  5 17  1  0
  6  8  2  0
  6 29  1  0
  7 24  4  0
  7 26  4  0
  8 28  1  0
  9 13  1  0
 10 18  1  0
 10 21  4  0
 10 30  4  0
 11 17  1  0
 12 18  1  0
 13 15  1  0
 14 24  1  0
 15 25  1  0
 16 28  2  0
 17 20  1  0
 19 24  4  0
 20 23  1  0
 21 22  4  0
 22 23  4  0
 25 26  4  0
 27 29  2  0
M  END
$$$$

 Created by Python create_sdf_string function

 30 44  0  0  0  0  0  0  0  0999 V2000
    8.2831    7.9984   22.8229 C   0  0  0  0  0  0  0  0  0  0  0  0
    8.8493    6.6097   16.1180 C   0  0  0  0  0  0  0  0  0  0  0  0
   10.7597    6.5256   21.9938 C   0  0  0  0  0  0  0  0  0  0  0  0
    8.2923    9.4462   19.5028 N   0  0  0  0  0  0  0  0  0  0  0  0
    8.4901    7.0164   25.0939 Cl  0  0  0  0  0  0  0  0  0  0  0  0
   10.6018    6.3892   13.9485 C   0  0  0  0  0  0  0  0  0  0  0  0
    7.0230    7.5283   25.0042 N   0  0  0  0  0  0  0  0  0  0  0  0
    7.8825   10.4151   16.1631 O   0  0  0  0  0  0  0  0  0  0  0  0
   12.1285    5.8560   20.4087 C   0  0  0  0  0  0  0  0  0  0  0  0
    6.4139    8.2724   20.5869 O   0  0  0  0  0  0  0  0  0  0  0  0
   13.7312    5.6261   18.9566 C   0  0  0  0  0  0  0  0  0  0  0  0
   10.1093    4.3498   14.0396 O   0  0  0  0  0  0  0  0  0  0  0  0
    9.7043    8.8529   16.6747 N   0  0  0  0  0  0  0  0  0  0  0  0
    5.8091    8.1780   23.0087 O   0  0  0  0  0  0  0  0  0  0  0  0
    7.8261    9.1192   20.6707 C   0  0  0  0  0  0  0  0  0  0  0  0
   13.4558    5.4185   19.9841 F   0  0  0  0  0  0  0  0  0  0  0  0
    8.4929    7.8927   21.6814 C   0  0  0  0  0  0  0  0  0  0  0  0
   11.5843    7.1215   19.7950 C   0  0  0  0  0  0  0  0  0  0  0  0
   10.4796    7.5150   19.8055 C   0  0  0  0  0  0  0  0  0  0  0  0
    9.6963    7.4887   21.1204 C   0  0  0  0  0  0  0  0  0  0  0  0
    9.7827    5.2868   14.4767 P   0  0  0  0  0  0  0  0  0  0  0  0
    9.5714    8.0941   15.6088 C   0  0  0  0  0  0  0  0  0  0  0  0
   10.2752    7.6707   14.9023 N   0  0  0  0  0  0  0  0  0  0  0  0
   10.0251    6.3202   23.2352 N   0  0  0  0  0  0  0  0  0  0  0  0
    6.6118    7.7832   23.9140 C   0  0  0  0  0  0  0  0  0  0  0  0
    9.1073    7.0747   23.6230 C   0  0  0  0  0  0  0  0  0  0  0  0
   11.4485    5.6964   21.6269 C   0  0  0  0  0  0  0  0  0  0  0  0
    7.9959    9.3998   18.4326 He  0  0  0  0  0  0  0  0  0  0  0  0
    8.3632    9.2516   17.3404 He  0  0  0  0  0  0  0  0  0  0  0  0
    8.7184    5.2663   15.6042 He  0  0  0  0  0  0  0  0  0  0  0  0
  1 25  1  0
  1 26  1  0
  2 22  4  0
  3 19  3  0
  3 20  3  0
  3 24  2  0
  3 25  4  0
  3 27  4  0
  4 11  4  0
  4 14  3  0
  4 15  1  0
  4 18  1  0
  4 27  4  0
  5  7  2  0
  5 24  1  0
  5 26  1  0
  6  7  3  0
  6 15  3  0
  6 21  4  0
  6 23  4  0
  7 11  1  0
  7 17  4  0
  7 18  1  0
  7 25  1  0
  8 22  4  0
  9 16  1  0
  9 18  4  0
  9 27  4  0
 10 12  3  0
 10 15  1  0
 10 22  1  0
 11 12  1  0
 11 16  1  0
 11 23  4  0
 11 27  2  0
 12 17  3  0
 12 21  1  0
 14 25  2  0
 15 17  1  0
 17 20  1  0
 18 19  4  0
 22 23  4  0
 23 26  3  0
 24 26  2  0
M  END
$$$$

 Created by Python create_sdf_string function

 30 33  0  0  0  0  0  0  0  0999 V2000
    7.8382    9.3500   18.3794 C   0  0  0  0  0  0  0  0  0  0  0  0
    8.1430    7.7431   22.9055 C   0  0  0  0  0  0  0  0  0  0  0  0
    8.7174    6.6868   16.1922 C   0  0  0  0  0  0  0  0  0  0  0  0
   10.4754    6.5525   22.0039 C   0  0  0  0  0  0  0  0  0  0  0  0
    8.3268    9.5021   19.6630 N   0  0  0  0  0  0  0  0  0  0  0  0
    8.4624    6.9740   25.1115 C   0  0  0  0  0  0  0  0  0  0  0  0
   10.5183    6.4436   14.1214 C   0  0  0  0  0  0  0  0  0  0  0  0
    7.0853    7.5239   24.9291 N   0  0  0  0  0  0  0  0  0  0  0  0
    7.9140   10.2592   16.2550 O   0  0  0  0  0  0  0  0  0  0  0  0
   12.1567    6.0667   20.4065 C   0  0  0  0  0  0  0  0  0  0  0  0
    6.5101    8.4309   20.5667 O   0  0  0  0  0  0  0  0  0  0  0  0
   13.8361    5.7530   18.8444 C   0  0  0  0  0  0  0  0  0  0  0  0
    8.4628    9.5041   17.0939 C   0  0  0  0  0  0  0  0  0  0  0  0
    9.9839    4.1927   13.9326 O   0  0  0  0  0  0  0  0  0  0  0  0
    9.5810    8.8472   16.6461 N   0  0  0  0  0  0  0  0  0  0  0  0
    5.8071    8.2225   23.1916 O   0  0  0  0  0  0  0  0  0  0  0  0
    7.7444    8.8491   20.7197 C   0  0  0  0  0  0  0  0  0  0  0  0
   13.2994    5.3705   20.0949 O   0  0  0  0  0  0  0  0  0  0  0  0
    8.8598    5.4499   15.5307 C   0  0  0  0  0  0  0  0  0  0  0  0
    8.5947    8.0446   21.6299 C   0  0  0  0  0  0  0  0  0  0  0  0
   11.5952    6.9524   19.5319 C   0  0  0  0  0  0  0  0  0  0  0  0
   10.4307    7.6641   19.8979 C   0  0  0  0  0  0  0  0  0  0  0  0
    9.8471    7.4168   21.1323 C   0  0  0  0  0  0  0  0  0  0  0  0
    9.8026    5.3653   14.5248 C   0  0  0  0  0  0  0  0  0  0  0  0
    9.5498    7.7196   15.8267 C   0  0  0  0  0  0  0  0  0  0  0  0
   10.3934    7.6721   14.7792 N   0  0  0  0  0  0  0  0  0  0  0  0
   10.0469    6.4975   23.3064 N   0  0  0  0  0  0  0  0  0  0  0  0
    6.8753    7.9209   23.6338 C   0  0  0  0  0  0  0  0  0  0  0  0
    8.9918    7.0451   23.7479 C   0  0  0  0  0  0  0  0  0  0  0  0
   11.5746    5.8554   21.6163 C   0  0  0  0  0  0  0  0  0  0  0  0
  1  5  1  0
  1 13  1  0
  2 20  1  0
  2 28  1  0
  2 29  1  0
  3 19  4  0
  3 25  4  0
  4 23  4  0
  4 27  1  0
  4 30  4  0
  5 17  1  0
  6  8  2  0
  6 29  1  0
  7 24  4  0
  7 26  4  0
  8 28  1  0
  9 13  2  0
 10 18  1  0
 10 21  4  0
 10 30  4  0
 11 17  1  0
 12 18  1  0
 13 15  1  0
 14 24  1  0
 15 25  1  0
 16 28  2  0
 17 20  1  0
 19 24  4  0
 20 23  1  0
 21 22  4  0
 22 23  4  0
 25 26  4  0
 27 29  2  0
M  END
$$$$

 Created by Python create_sdf_string function

 30 59  0  0  0  0  0  0  0  0999 V2000
    7.7847    9.4909   18.4000 C   0  0  0  0  0  0  0  0  0  0  0  0
    7.9229    8.0277   22.7940 C   0  0  0  0  0  0  0  0  0  0  0  0
    8.6521    6.6532   16.2974 C   0  0  0  0  0  0  0  0  0  0  0  0
   10.7594    6.2121   22.0330 C   0  0  0  0  0  0  0  0  0  0  0  0
    8.4431    9.2919   19.4392 N   0  0  0  0  0  0  0  0  0  0  0  0
    8.7226    6.6775   24.9840 C   0  0  0  0  0  0  0  0  0  0  0  0
   10.4990    6.4300   14.1993 C   0  0  0  0  0  0  0  0  0  0  0  0
    6.7947    7.5756   24.8154 N   0  0  0  0  0  0  0  0  0  0  0  0
    8.0869   10.0635   16.4345 O   0  0  0  0  0  0  0  0  0  0  0  0
   12.1649    6.2150   20.5818 C   0  0  0  0  0  0  0  0  0  0  0  0
    6.5387    8.3666   20.9303 O   0  0  0  0  0  0  0  0  0  0  0  0
   13.5680    5.6112   19.1235 C   0  0  0  0  0  0  0  0  0  0  0  0
    8.3853    9.5626   17.1547 C   0  0  0  0  0  0  0  0  0  0  0  0
    9.9925    4.1066   13.7392 O   0  0  0  0  0  0  0  0  0  0  0  0
    9.5113    8.6979   16.4749 N   0  0  0  0  0  0  0  0  0  0  0  0
    5.9393    8.4720   23.1582 O   0  0  0  0  0  0  0  0  0  0  0  0
    7.6562    9.2118   20.9079 C   0  0  0  0  0  0  0  0  0  0  0  0
   13.0498    5.0965   20.3016 O   0  0  0  0  0  0  0  0  0  0  0  0
    8.4582    5.7556   15.8430 C   0  0  0  0  0  0  0  0  0  0  0  0
    8.5982    8.0408   21.7559 C   0  0  0  0  0  0  0  0  0  0  0  0
   11.6122    6.8776   19.3823 C   0  0  0  0  0  0  0  0  0  0  0  0
   10.2873    7.6420   20.0667 C   0  0  0  0  0  0  0  0  0  0  0  0
    9.7271    7.2856   20.9050 Cl  0  0  0  0  0  0  0  0  0  0  0  0
    9.6954    5.0811   14.3804 C   0  0  0  0  0  0  0  0  0  0  0  0
    9.5920    7.8543   15.9649 C   0  0  0  0  0  0  0  0  0  0  0  0
   10.1122    7.8540   15.1284 N   0  0  0  0  0  0  0  0  0  0  0  0
    9.7331    6.7321   23.0550 N   0  0  0  0  0  0  0  0  0  0  0  0
    6.9485    7.8879   23.5768 C   0  0  0  0  0  0  0  0  0  0  0  0
    9.0542    7.3079   23.7548 C   0  0  0  0  0  0  0  0  0  0  0  0
   11.5861    5.8482   21.5775 C   0  0  0  0  0  0  0  0  0  0  0  0
  1  5  1  0
  1 13  1  0
  1 18  3  0
  1 19  4  0
  1 23  2  0
  2  9  2  0
  2 28  1  0
  2 29  1  0
  3 19  4  0
  3 22  1  0
  3 25  4  0
  4 23  4  0
  4 30  4  0
  5 17  1  0
  6  8  2  0
  6 29  1  0
  7 10  1  0
  7 17  3  0
  7 23  3  0
  7 24  4  0
  7 25  4  0
  7 26  4  0
  8 11  1  0
  8 14  1  0
  8 20  4  0
  8 25  3  0
  8 27  4  0
  8 28  1  0
  9 13  2  0
  9 19  3  0
  9 24  4  0
 10 18  1  0
 10 20  3  0
 10 21  4  0
 10 30  4  0
 11 17  1  0
 11 24  4  0
 11 27  2  0
 12 18  1  0
 13 17  2  0
 14 21  4  0
 14 24  1  0
 14 27  2  0
 15 16  4  0
 15 18  4  0
 15 23  4  0
 15 25  1  0
 16 27  4  0
 16 28  2  0
 17 20  1  0
 19 20  2  0
 19 24  4  0
 20 23  1  0
 20 24  4  0
 21 22  4  0
 25 26  4  0
 26 28  4  0
 26 29  2  0
 27 29  2  0
M  END
$$$$

 Created by Python create_sdf_string function

 30 33  0  0  0  0  0  0  0  0999 V2000
    7.7097    9.4330   18.4308 C   0  0  0  0  0  0  0  0  0  0  0  0
    8.1237    7.7913   22.9168 C   0  0  0  0  0  0  0  0  0  0  0  0
    8.5751    6.6739   16.2828 C   0  0  0  0  0  0  0  0  0  0  0  0
   10.4813    6.6291   22.0198 C   0  0  0  0  0  0  0  0  0  0  0  0
    8.3330    9.4690   19.6497 N   0  0  0  0  0  0  0  0  0  0  0  0
    8.4159    6.9112   25.0449 C   0  0  0  0  0  0  0  0  0  0  0  0
   10.4230    6.4161   14.2481 C   0  0  0  0  0  0  0  0  0  0  0  0
    6.9834    7.5061   24.8617 N   0  0  0  0  0  0  0  0  0  0  0  0
    7.9528   10.2712   16.2684 O   0  0  0  0  0  0  0  0  0  0  0  0
   12.0761    6.0326   20.4233 C   0  0  0  0  0  0  0  0  0  0  0  0
    6.5306    8.5496   20.7389 O   0  0  0  0  0  0  0  0  0  0  0  0
   13.7867    5.6469   18.9883 C   0  0  0  0  0  0  0  0  0  0  0  0
    8.3985    9.5437   17.0716 C   0  0  0  0  0  0  0  0  0  0  0  0
    9.8085    4.1860   13.8499 O   0  0  0  0  0  0  0  0  0  0  0  0
    9.4786    8.7945   16.7616 N   0  0  0  0  0  0  0  0  0  0  0  0
    5.8639    8.5461   23.2504 O   0  0  0  0  0  0  0  0  0  0  0  0
    7.7544    8.9076   20.7492 C   0  0  0  0  0  0  0  0  0  0  0  0
   13.2215    5.3017   20.1517 O   0  0  0  0  0  0  0  0  0  0  0  0
    8.7045    5.4396   15.5746 C   0  0  0  0  0  0  0  0  0  0  0  0
    8.5972    8.1002   21.6420 C   0  0  0  0  0  0  0  0  0  0  0  0
   11.5565    6.9038   19.5328 C   0  0  0  0  0  0  0  0  0  0  0  0
   10.3625    7.6212   19.8773 C   0  0  0  0  0  0  0  0  0  0  0  0
    9.8348    7.4657   21.1320 C   0  0  0  0  0  0  0  0  0  0  0  0
    9.6465    5.3675   14.5648 C   0  0  0  0  0  0  0  0  0  0  0  0
    9.4431    7.6934   15.9557 C   0  0  0  0  0  0  0  0  0  0  0  0
   10.3451    7.6126   14.9599 N   0  0  0  0  0  0  0  0  0  0  0  0
   10.0224    6.4973   23.3085 N   0  0  0  0  0  0  0  0  0  0  0  0
    6.8811    8.0537   23.6115 C   0  0  0  0  0  0  0  0  0  0  0  0
    8.9524    7.0367   23.7332 C   0  0  0  0  0  0  0  0  0  0  0  0
   11.5540    5.8738   21.6424 C   0  0  0  0  0  0  0  0  0  0  0  0
  1  5  1  0
  1 13  1  0
  2 20  2  0
  2 28  1  0
  2 29  1  0
  3 19  4  0
  3 25  4  0
  4 23  4  0
  4 27  1  0
  4 30  4  0
  5 17  1  0
  6  8  2  0
  6 29  1  0
  7 24  4  0
  7 26  4  0
  8 28  1  0
  9 13  2  0
 10 18  1  0
 10 21  4  0
 10 30  4  0
 11 17  1  0
 12 18  1  0
 13 15  1  0
 14 24  1  0
 15 25  1  0
 16 28  2  0
 17 20  1  0
 19 24  4  0
 20 23  1  0
 21 22  4  0
 22 23  4  0
 25 26  4  0
 27 29  2  0
M  END
$$$$

 Created by Python create_sdf_string function

 30 34  0  0  0  0  0  0  0  0999 V2000
    7.7419    9.4151   18.3262 C   0  0  0  0  0  0  0  0  0  0  0  0
    8.5265    6.7032   15.6031 C   0  0  0  0  0  0  0  0  0  0  0  0
   10.5409    6.5262   22.2206 C   0  0  0  0  0  0  0  0  0  0  0  0
    8.6057    9.3392   19.7424 N   0  0  0  0  0  0  0  0  0  0  0  0
    8.2464    6.8030   25.2814 C   0  0  0  0  0  0  0  0  0  0  0  0
   10.5272    6.2423   14.2267 C   0  0  0  0  0  0  0  0  0  0  0  0
    7.9571   10.2923   16.0099 O   0  0  0  0  0  0  0  0  0  0  0  0
   11.9793    5.7952   20.2416 C   0  0  0  0  0  0  0  0  0  0  0  0
    6.5342    8.3298   20.7029 O   0  0  0  0  0  0  0  0  0  0  0  0
   13.6029    5.6412   18.8494 C   0  0  0  0  0  0  0  0  0  0  0  0
    8.4153    9.7007   16.8648 C   0  0  0  0  0  0  0  0  0  0  0  0
    9.8307    4.2820   13.5496 O   0  0  0  0  0  0  0  0  0  0  0  0
    9.6299    8.9453   16.5111 N   0  0  0  0  0  0  0  0  0  0  0  0
    5.7545    8.6724   23.3762 O   0  0  0  0  0  0  0  0  0  0  0  0
    7.5664    8.9558   20.5445 C   0  0  0  0  0  0  0  0  0  0  0  0
   12.8694    5.7145   20.3444 O   0  0  0  0  0  0  0  0  0  0  0  0
    8.8894    5.1829   15.4244 C   0  0  0  0  0  0  0  0  0  0  0  0
    8.5475    8.1431   21.7318 C   0  0  0  0  0  0  0  0  0  0  0  0
   11.4950    6.6421   19.5329 C   0  0  0  0  0  0  0  0  0  0  0  0
   10.1434    7.8032   19.5306 C   0  0  0  0  0  0  0  0  0  0  0  0
    9.7842    5.2631   14.6966 C   0  0  0  0  0  0  0  0  0  0  0  0
    9.5984    7.8861   16.1269 N   0  0  0  0  0  0  0  0  0  0  0  0
   10.3271    7.8287   14.9490 N   0  0  0  0  0  0  0  0  0  0  0  0
    6.9219    8.1981   23.9443 C   0  0  0  0  0  0  0  0  0  0  0  0
    9.0193    6.9924   23.7925 C   0  0  0  0  0  0  0  0  0  0  0  0
    8.0013    7.5348   22.8003 He  0  0  0  0  0  0  0  0  0  0  0  0
    7.0940    7.6429   24.8047 He  0  0  0  0  0  0  0  0  0  0  0  0
   10.0247    7.6345   20.9016 He  0  0  0  0  0  0  0  0  0  0  0  0
   10.2368    6.6368   23.4410 He  0  0  0  0  0  0  0  0  0  0  0  0
   11.6894    5.9329   21.6381 He  0  0  0  0  0  0  0  0  0  0  0  0
  1  4  3  0
  1 11  1  0
  2  5  4  0
  2 15  1  0
  2 17  4  0
  4 15  1  0
  4 21  4  0
  5 10  3  0
  5 19  2  0
  5 25  1  0
  6 21  4  0
  6 22  4  0
  6 23  4  0
  7 11  2  0
  8 16  1  0
  8 19  4  0
  9 15  2  0
 10 16  1  0
 10 17  3  0
 10 23  3  0
 11 12  4  0
 11 13  1  0
 11 19  1  0
 11 22  1  0
 12 21  1  0
 13 22  1  0
 14 20  4  0
 14 24  2  0
 15 18  1  0
 15 19  4  0
 17 21  1  0
 18 22  3  0
 19 20  4  0
 22 23  4  0
M  END
$$$$

 Created by Python create_sdf_string function

 30 33  0  0  0  0  0  0  0  0999 V2000
    7.8044    9.4616   18.3312 C   0  0  0  0  0  0  0  0  0  0  0  0
    8.1335    7.7720   22.9385 C   0  0  0  0  0  0  0  0  0  0  0  0
    8.5457    6.7246   16.0472 C   0  0  0  0  0  0  0  0  0  0  0  0
   10.4916    6.6801   22.0288 C   0  0  0  0  0  0  0  0  0  0  0  0
    8.2907    9.3910   19.6173 N   0  0  0  0  0  0  0  0  0  0  0  0
    8.3051    6.8856   25.0734 C   0  0  0  0  0  0  0  0  0  0  0  0
   10.6015    6.3953   14.2734 C   0  0  0  0  0  0  0  0  0  0  0  0
    7.0709    7.5934   24.9928 N   0  0  0  0  0  0  0  0  0  0  0  0
    7.9255   10.2247   16.0957 O   0  0  0  0  0  0  0  0  0  0  0  0
   12.0391    6.0884   20.3655 C   0  0  0  0  0  0  0  0  0  0  0  0
    6.5567    8.4886   20.6526 O   0  0  0  0  0  0  0  0  0  0  0  0
   13.6855    5.6439   18.8701 C   0  0  0  0  0  0  0  0  0  0  0  0
    8.4225    9.5370   16.9692 C   0  0  0  0  0  0  0  0  0  0  0  0
    9.8906    4.2200   13.7686 O   0  0  0  0  0  0  0  0  0  0  0  0
    9.5131    8.8184   16.6234 N   0  0  0  0  0  0  0  0  0  0  0  0
    5.9369    8.6746   23.3727 O   0  0  0  0  0  0  0  0  0  0  0  0
    7.7011    8.6821   20.6252 C   0  0  0  0  0  0  0  0  0  0  0  0
   13.1696    5.4030   20.0935 O   0  0  0  0  0  0  0  0  0  0  0  0
    8.6837    5.5082   15.3935 C   0  0  0  0  0  0  0  0  0  0  0  0
    8.5794    8.1270   21.6600 C   0  0  0  0  0  0  0  0  0  0  0  0
   11.4020    6.8035   19.4020 C   0  0  0  0  0  0  0  0  0  0  0  0
   10.2493    7.5389   19.7913 C   0  0  0  0  0  0  0  0  0  0  0  0
    9.8053    7.4581   21.1183 C   0  0  0  0  0  0  0  0  0  0  0  0
    9.7389    5.3630   14.4579 C   0  0  0  0  0  0  0  0  0  0  0  0
    9.4656    7.7274   15.8027 C   0  0  0  0  0  0  0  0  0  0  0  0
   10.4743    7.6003   14.9473 N   0  0  0  0  0  0  0  0  0  0  0  0
   10.0639    6.5889   23.3654 N   0  0  0  0  0  0  0  0  0  0  0  0
    6.8974    8.0840   23.6889 C   0  0  0  0  0  0  0  0  0  0  0  0
    8.9376    6.9886   23.7917 C   0  0  0  0  0  0  0  0  0  0  0  0
   11.5920    6.0060   21.6519 C   0  0  0  0  0  0  0  0  0  0  0  0
  1  5  1  0
  1 13  1  0
  2 20  2  0
  2 28  1  0
  2 29  1  0
  3 19  4  0
  3 25  4  0
  4 23  4  0
  4 27  1  0
  4 30  4  0
  5 17  1  0
  6  8  2  0
  6 29  1  0
  7 24  4  0
  7 26  4  0
  8 28  1  0
  9 13  2  0
 10 18  1  0
 10 21  4  0
 10 30  4  0
 11 17  2  0
 12 18  1  0
 13 15  1  0
 14 24  1  0
 15 25  1  0
 16 28  2  0
 17 20  1  0
 19 24  4  0
 20 23  1  0
 21 22  4  0
 22 23  4  0
 25 26  4  0
 27 29  2  0
M  END
$$$$

 Created by Python create_sdf_string function

 30 57  0  0  0  0  0  0  0  0999 V2000
    8.4894    6.6249   16.0194 C   0  0  0  0  0  0  0  0  0  0  0  0
   10.2930    6.4761   22.3035 C   0  0  0  0  0  0  0  0  0  0  0  0
    8.0922    9.4478   19.3035 N   0  0  0  0  0  0  0  0  0  0  0  0
    8.3462    6.8355   25.2916 C   0  0  0  0  0  0  0  0  0  0  0  0
   10.8451    6.2991   14.4605 C   0  0  0  0  0  0  0  0  0  0  0  0
    7.2739    7.3525   25.0025 N   0  0  0  0  0  0  0  0  0  0  0  0
    8.0059    9.9939   16.2778 O   0  0  0  0  0  0  0  0  0  0  0  0
   12.0843    6.2453   20.2826 C   0  0  0  0  0  0  0  0  0  0  0  0
    6.6713    8.7749   20.7835 O   0  0  0  0  0  0  0  0  0  0  0  0
   13.6349    5.5719   18.9979 C   0  0  0  0  0  0  0  0  0  0  0  0
    8.6311    9.8824   16.9952 C   0  0  0  0  0  0  0  0  0  0  0  0
    9.7488    4.0420   13.9798 O   0  0  0  0  0  0  0  0  0  0  0  0
    9.5432    8.8047   16.7412 N   0  0  0  0  0  0  0  0  0  0  0  0
    6.2384    8.9526   23.0648 P   0  0  0  0  0  0  0  0  0  0  0  0
    7.7648    8.5412   20.4051 C   0  0  0  0  0  0  0  0  0  0  0  0
   13.4584    5.5590   19.8439 O   0  0  0  0  0  0  0  0  0  0  0  0
    8.7273    5.5449   15.4517 C   0  0  0  0  0  0  0  0  0  0  0  0
    8.9206    7.8644   21.6286 C   0  0  0  0  0  0  0  0  0  0  0  0
   11.1917    6.7936   19.2416 C   0  0  0  0  0  0  0  0  0  0  0  0
    9.8925    7.4887   20.0203 C   0  0  0  0  0  0  0  0  0  0  0  0
    9.7247    7.3401   20.9480 C   0  0  0  0  0  0  0  0  0  0  0  0
    9.6418    5.5067   14.6512 C   0  0  0  0  0  0  0  0  0  0  0  0
    9.6124    7.6886   15.9551 C   0  0  0  0  0  0  0  0  0  0  0  0
   10.4292    7.6296   14.7846 N   0  0  0  0  0  0  0  0  0  0  0  0
   10.2885    6.7609   23.6860 N   0  0  0  0  0  0  0  0  0  0  0  0
    6.7376    8.3729   23.8902 C   0  0  0  0  0  0  0  0  0  0  0  0
    9.1308    6.9312   23.8609 C   0  0  0  0  0  0  0  0  0  0  0  0
   11.7700    5.9430   21.7658 C   0  0  0  0  0  0  0  0  0  0  0  0
    7.9918    9.3448   18.2098 He  0  0  0  0  0  0  0  0  0  0  0  0
    8.1133    7.6900   22.8792 He  0  0  0  0  0  0  0  0  0  0  0  0
  1 17  4  0
  1 23  4  0
  2 21  4  0
  2 25  1  0
  2 27  1  0
  2 28  4  0
  3  5  2  0
  3 15  1  0
  3 27  1  0
  3 28  3  0
  4  6  2  0
  4 20  2  0
  4 27  1  0
  5 22  4  0
  5 24  4  0
  6 17  4  0
  6 20  1  0
  6 26  1  0
  7 11  2  0
  7 23  3  0
  7 28  3  0
  8 16  1  0
  8 17  3  0
  8 18  4  0
  8 19  4  0
  8 22  2  0
  8 23  1  0
  9 15  2  0
 10 11  1  0
 10 16  1  0
 10 23  2  0
 10 26  4  0
 11 13  1  0
 11 24  2  0
 12 16  4  0
 12 21  4  0
 12 22  1  0
 12 28  4  0
 13 15  2  0
 13 17  2  0
 13 23  1  0
 13 25  1  0
 13 27  2  0
 14 26  2  0
 15 18  4  0
 15 28  1  0
 17 22  1  0
 18 21  1  0
 19 20  4  0
 19 24  4  0
 20 21  4  0
 20 28  1  0
 22 24  1  0
 23 24  4  0
 23 26  2  0
 23 28  4  0
 25 27  2  0
M  END
$$$$

 Created by Python create_sdf_string function

 30 33  0  0  0  0  0  0  0  0999 V2000
    7.9035    9.4387   18.2976 C   0  0  0  0  0  0  0  0  0  0  0  0
    8.1794    7.7689   22.9367 C   0  0  0  0  0  0  0  0  0  0  0  0
    8.5314    6.7604   16.1112 C   0  0  0  0  0  0  0  0  0  0  0  0
   10.5163    6.6670   22.0668 C   0  0  0  0  0  0  0  0  0  0  0  0
    8.2676    9.3464   19.5534 N   0  0  0  0  0  0  0  0  0  0  0  0
    8.3755    6.9074   25.0834 C   0  0  0  0  0  0  0  0  0  0  0  0
   10.6337    6.3014   14.3805 C   0  0  0  0  0  0  0  0  0  0  0  0
    7.1163    7.5896   24.9488 N   0  0  0  0  0  0  0  0  0  0  0  0
    7.9584   10.1727   16.1092 O   0  0  0  0  0  0  0  0  0  0  0  0
   12.0762    6.1366   20.3656 C   0  0  0  0  0  0  0  0  0  0  0  0
    6.5525    8.7016   20.7036 O   0  0  0  0  0  0  0  0  0  0  0  0
   13.7094    5.7220   18.7994 C   0  0  0  0  0  0  0  0  0  0  0  0
    8.4385    9.5334   16.9535 C   0  0  0  0  0  0  0  0  0  0  0  0
    9.8609    4.1592   13.9578 O   0  0  0  0  0  0  0  0  0  0  0  0
    9.6183    8.8360   16.6450 N   0  0  0  0  0  0  0  0  0  0  0  0
    6.1386    8.9255   23.3864 O   0  0  0  0  0  0  0  0  0  0  0  0
    7.6643    8.6915   20.6429 C   0  0  0  0  0  0  0  0  0  0  0  0
   13.3118    5.5620   20.0746 O   0  0  0  0  0  0  0  0  0  0  0  0
    8.6235    5.5070   15.4559 C   0  0  0  0  0  0  0  0  0  0  0  0
    8.5098    7.9530   21.6466 C   0  0  0  0  0  0  0  0  0  0  0  0
   11.3601    6.7553   19.3821 C   0  0  0  0  0  0  0  0  0  0  0  0
   10.1308    7.3400   19.7960 C   0  0  0  0  0  0  0  0  0  0  0  0
    9.7397    7.3293   21.1276 C   0  0  0  0  0  0  0  0  0  0  0  0
    9.7208    5.3254   14.6039 C   0  0  0  0  0  0  0  0  0  0  0  0
    9.5470    7.6880   15.8744 C   0  0  0  0  0  0  0  0  0  0  0  0
   10.5618    7.5176   15.0159 N   0  0  0  0  0  0  0  0  0  0  0  0
   10.1246    6.5288   23.3805 N   0  0  0  0  0  0  0  0  0  0  0  0
    7.0059    8.1608   23.7188 C   0  0  0  0  0  0  0  0  0  0  0  0
    9.0163    7.0330   23.8219 C   0  0  0  0  0  0  0  0  0  0  0  0
   11.6628    6.0789   21.6644 C   0  0  0  0  0  0  0  0  0  0  0  0
  1  5  1  0
  1 13  1  0
  2 20  2  0
  2 28  1  0
  2 29  1  0
  3 19  4  0
  3 25  4  0
  4 23  4  0
  4 27  1  0
  4 30  4  0
  5 17  1  0
  6  8  2  0
  6 29  1  0
  7 24  4  0
  7 26  4  0
  8 28  1  0
  9 13  2  0
 10 18  1  0
 10 21  4  0
 10 30  4  0
 11 17  2  0
 12 18  1  0
 13 15  1  0
 14 24  1  0
 15 25  1  0
 16 28  2  0
 17 20  1  0
 19 24  4  0
 20 23  1  0
 21 22  4  0
 22 23  4  0
 25 26  4  0
 27 29  2  0
M  END
$$$$

 Created by Python create_sdf_string function

 30 40  0  0  0  0  0  0  0  0999 V2000
    7.8293    9.7233   18.4679 C   0  0  0  0  0  0  0  0  0  0  0  0
    7.8469    7.7802   22.9023 C   0  0  0  0  0  0  0  0  0  0  0  0
    8.6198    6.9761   16.0278 C   0  0  0  0  0  0  0  0  0  0  0  0
   10.1782    6.7961   22.1274 C   0  0  0  0  0  0  0  0  0  0  0  0
    8.4394    7.1672   25.1095 C   0  0  0  0  0  0  0  0  0  0  0  0
   10.4390    6.3490   14.2906 C   0  0  0  0  0  0  0  0  0  0  0  0
    7.0257    7.6532   25.1104 N   0  0  0  0  0  0  0  0  0  0  0  0
    7.7996   10.4203   16.1245 O   0  0  0  0  0  0  0  0  0  0  0  0
    6.7234    8.6320   20.9342 O   0  0  0  0  0  0  0  0  0  0  0  0
   13.7126    5.8966   18.8815 C   0  0  0  0  0  0  0  0  0  0  0  0
    8.5593    9.4789   17.0134 C   0  0  0  0  0  0  0  0  0  0  0  0
    9.3882    8.8998   16.5930 N   0  0  0  0  0  0  0  0  0  0  0  0
    6.1295    9.0513   23.5332 O   0  0  0  0  0  0  0  0  0  0  0  0
    7.3463    8.7361   20.7162 C   0  0  0  0  0  0  0  0  0  0  0  0
   13.1767    5.7532   20.0276 O   0  0  0  0  0  0  0  0  0  0  0  0
    8.5304    5.5211   15.3256 C   0  0  0  0  0  0  0  0  0  0  0  0
    8.5151    8.0498   21.3140 C   0  0  0  0  0  0  0  0  0  0  0  0
   11.4141    6.6536   19.3127 C   0  0  0  0  0  0  0  0  0  0  0  0
   10.3291    7.2600   19.6345 C   0  0  0  0  0  0  0  0  0  0  0  0
    9.6962    7.2736   21.2611 C   0  0  0  0  0  0  0  0  0  0  0  0
    9.6796    5.2689   14.7865 C   0  0  0  0  0  0  0  0  0  0  0  0
   10.5553    7.7352   15.0134 N   0  0  0  0  0  0  0  0  0  0  0  0
   10.1412    6.5587   23.4259 N   0  0  0  0  0  0  0  0  0  0  0  0
    6.9169    8.0558   23.8513 C   0  0  0  0  0  0  0  0  0  0  0  0
    9.1461    7.1776   23.9192 C   0  0  0  0  0  0  0  0  0  0  0  0
   11.8909    6.0088   21.6512 C   0  0  0  0  0  0  0  0  0  0  0  0
    8.0484    9.5180   19.5963 He  0  0  0  0  0  0  0  0  0  0  0  0
   12.0274    6.3024   20.5337 He  0  0  0  0  0  0  0  0  0  0  0  0
    9.4389    3.9686   13.7340 He  0  0  0  0  0  0  0  0  0  0  0  0
    9.5251    7.7480   16.0738 He  0  0  0  0  0  0  0  0  0  0  0  0
  1 11  1  0
  1 15  4  0
  1 18  1  0
  1 20  3  0
  1 25  1  0
  2 17  2  0
  2 20  3  0
  2 24  1  0
  2 25  1  0
  3 12  4  0
  3 15  1  0
  3 16  4  0
  3 21  4  0
  4 20  4  0
  4 23  1  0
  4 24  1  0
  4 26  4  0
  5  7  2  0
  5 25  1  0
  6 21  4  0
  6 22  4  0
  7 24  1  0
  7 25  2  0
  8 10  4  0
  8 11  2  0
  9 26  4  0
 10 15  1  0
 10 26  3  0
 11 12  1  0
 11 14  3  0
 13 20  3  0
 15 24  4  0
 16 21  4  0
 16 22  4  0
 17 20  1  0
 18 19  4  0
 18 26  4  0
 19 20  4  0
 22 26  4  0
 23 25  2  0
M  END
$$$$

 Created by Python create_sdf_string function

 30 33  0  0  0  0  0  0  0  0999 V2000
    7.7703    9.6554   18.4223 C   0  0  0  0  0  0  0  0  0  0  0  0
    8.0890    7.8021   22.8907 C   0  0  0  0  0  0  0  0  0  0  0  0
    8.4590    6.8684   16.1535 C   0  0  0  0  0  0  0  0  0  0  0  0
   10.5046    6.6996   22.0433 C   0  0  0  0  0  0  0  0  0  0  0  0
    8.2208    9.4531   19.6232 O   0  0  0  0  0  0  0  0  0  0  0  0
    8.4264    7.1136   25.0696 C   0  0  0  0  0  0  0  0  0  0  0  0
   10.5229    6.3274   14.3937 C   0  0  0  0  0  0  0  0  0  0  0  0
    7.1295    7.6903   25.0133 N   0  0  0  0  0  0  0  0  0  0  0  0
    7.8674   10.3499   16.1805 O   0  0  0  0  0  0  0  0  0  0  0  0
   12.1054    6.1930   20.3782 C   0  0  0  0  0  0  0  0  0  0  0  0
    6.4360    8.6897   20.8275 O   0  0  0  0  0  0  0  0  0  0  0  0
   13.7713    5.9386   18.8348 C   0  0  0  0  0  0  0  0  0  0  0  0
    8.3815    9.6296   17.0231 C   0  0  0  0  0  0  0  0  0  0  0  0
    9.5706    4.1236   13.8272 Cl  0  0  0  0  0  0  0  0  0  0  0  0
    9.4550    8.9053   16.7059 N   0  0  0  0  0  0  0  0  0  0  0  0
    6.0594    8.9489   23.5013 O   0  0  0  0  0  0  0  0  0  0  0  0
    7.5991    8.7517   20.6594 C   0  0  0  0  0  0  0  0  0  0  0  0
   13.3394    5.6730   20.1230 O   0  0  0  0  0  0  0  0  0  0  0  0
    8.5085    5.6290   15.4663 C   0  0  0  0  0  0  0  0  0  0  0  0
    8.4542    7.9768   21.5739 C   0  0  0  0  0  0  0  0  0  0  0  0
   11.3591    6.7742   19.3764 C   0  0  0  0  0  0  0  0  0  0  0  0
   10.1067    7.3243   19.7615 C   0  0  0  0  0  0  0  0  0  0  0  0
    9.7060    7.3310   21.0860 C   0  0  0  0  0  0  0  0  0  0  0  0
    9.5342    5.4192   14.5793 C   0  0  0  0  0  0  0  0  0  0  0  0
    9.4433    7.7761   15.9177 C   0  0  0  0  0  0  0  0  0  0  0  0
   10.4906    7.5505   15.0721 N   0  0  0  0  0  0  0  0  0  0  0  0
   10.0951    6.6561   23.3463 N   0  0  0  0  0  0  0  0  0  0  0  0
    6.9594    8.2222   23.7353 C   0  0  0  0  0  0  0  0  0  0  0  0
    8.9616    7.1297   23.7371 C   0  0  0  0  0  0  0  0  0  0  0  0
   11.6707    6.1405   21.6636 C   0  0  0  0  0  0  0  0  0  0  0  0
  1  5  1  0
  1 13  1  0
  2 20  2  0
  2 28  1  0
  2 29  1  0
  3 19  4  0
  3 25  4  0
  4 23  4  0
  4 27  1  0
  4 30  4  0
  5 17  1  0
  6  8  2  0
  6 29  1  0
  7 24  4  0
  7 26  4  0
  8 28  1  0
  9 13  2  0
 10 18  1  0
 10 21  4  0
 10 30  4  0
 11 17  2  0
 12 18  1  0
 13 15  1  0
 14 24  1  0
 15 25  1  0
 16 28  2  0
 17 20  1  0
 19 24  4  0
 20 23  1  0
 21 22  4  0
 22 23  4  0
 25 26  4  0
 27 29  2  0
M  END
$$$$

 Created by Python create_sdf_string function

 30 48  0  0  0  0  0  0  0  0999 V2000
    7.7674    9.8513   18.5492 C   0  0  0  0  0  0  0  0  0  0  0  0
    8.1111    7.5725   22.6870 C   0  0  0  0  0  0  0  0  0  0  0  0
    8.5470    7.1018   16.0628 C   0  0  0  0  0  0  0  0  0  0  0  0
   10.6042    6.5552   22.0662 C   0  0  0  0  0  0  0  0  0  0  0  0
    8.2932    9.5138   19.3095 O   0  0  0  0  0  0  0  0  0  0  0  0
    8.4763    6.9236   25.1096 C   0  0  0  0  0  0  0  0  0  0  0  0
   10.3715    6.4814   14.2259 C   0  0  0  0  0  0  0  0  0  0  0  0
    7.1838    7.6998   25.1933 N   0  0  0  0  0  0  0  0  0  0  0  0
    7.7927   10.2391   16.1070 O   0  0  0  0  0  0  0  0  0  0  0  0
   12.2308    6.2489   20.5532 C   0  0  0  0  0  0  0  0  0  0  0  0
    6.5125    8.6715   20.9170 O   0  0  0  0  0  0  0  0  0  0  0  0
   13.8872    5.9754   18.6259 C   0  0  0  0  0  0  0  0  0  0  0  0
    8.4061    9.7469   17.0056 O   0  0  0  0  0  0  0  0  0  0  0  0
    9.5117    3.9168   13.9334 Cl  0  0  0  0  0  0  0  0  0  0  0  0
    9.3940    9.1484   16.8063 N   0  0  0  0  0  0  0  0  0  0  0  0
    5.9942    8.7152   23.5893 O   0  0  0  0  0  0  0  0  0  0  0  0
    7.5826    8.8637   20.6543 C   0  0  0  0  0  0  0  0  0  0  0  0
   13.2843    5.7089   19.9725 O   0  0  0  0  0  0  0  0  0  0  0  0
    8.7964    5.6098   15.4148 C   0  0  0  0  0  0  0  0  0  0  0  0
    8.4926    7.9836   21.4946 N   0  0  0  0  0  0  0  0  0  0  0  0
   11.3442    7.0057   19.3813 C   0  0  0  0  0  0  0  0  0  0  0  0
   10.1472    7.2960   19.7436 C   0  0  0  0  0  0  0  0  0  0  0  0
    9.7938    7.3416   20.9114 C   0  0  0  0  0  0  0  0  0  0  0  0
    9.7052    5.5406   14.4933 C   0  0  0  0  0  0  0  0  0  0  0  0
    9.3163    7.6264   15.9933 Br  0  0  0  0  0  0  0  0  0  0  0  0
   10.5310    7.3376   14.7237 N   0  0  0  0  0  0  0  0  0  0  0  0
   10.0303    6.4035   23.3007 N   0  0  0  0  0  0  0  0  0  0  0  0
    8.8802    7.1840   23.6190 C   0  0  0  0  0  0  0  0  0  0  0  0
   11.6418    6.0704   21.7402 C   0  0  0  0  0  0  0  0  0  0  0  0
    6.8428    8.2804   23.7132 He  0  0  0  0  0  0  0  0  0  0  0  0
  1  5  1  0
  1 13  1  0
  2 13  1  0
  2 20  2  0
  2 21  4  0
  2 28  1  0
  3  8  4  0
  3 12  1  0
  3 19  4  0
  3 25  4  0
  4  7  2  0
  4 23  4  0
  4 27  1  0
  4 29  4  0
  5  9  3  0
  5 17  1  0
  6  8  2  0
  6 26  3  0
  6 28  1  0
  7 13  2  0
  7 24  4  0
  7 26  4  0
  8 11  3  0
  8 14  3  0
 10 16  4  0
 10 18  1  0
 10 21  4  0
 10 22  3  0
 10 29  4  0
 11 17  2  0
 12 17  1  0
 12 18  1  0
 13 15  1  0
 14 24  1  0
 14 25  3  0
 14 27  1  0
 15 18  2  0
 15 25  2  0
 15 26  2  0
 17 20  1  0
 18 24  1  0
 18 29  3  0
 19 24  4  0
 21 22  4  0
 21 23  4  0
 22 23  4  0
 25 26  4  0
 27 28  2  0
M  END
$$$$

 Created by Python create_sdf_string function

 30 33  0  0  0  0  0  0  0  0999 V2000
    7.7941    9.8452   18.4357 C   0  0  0  0  0  0  0  0  0  0  0  0
    8.0942    7.7317   22.8141 C   0  0  0  0  0  0  0  0  0  0  0  0
    8.5040    6.9054   16.1773 C   0  0  0  0  0  0  0  0  0  0  0  0
   10.5177    6.6290   21.9835 C   0  0  0  0  0  0  0  0  0  0  0  0
    8.3280    9.3956   19.5534 O   0  0  0  0  0  0  0  0  0  0  0  0
    8.4761    6.9694   25.0060 C   0  0  0  0  0  0  0  0  0  0  0  0
   10.4764    6.4296   14.2904 C   0  0  0  0  0  0  0  0  0  0  0  0
    7.2509    7.6866   24.9906 N   0  0  0  0  0  0  0  0  0  0  0  0
    7.7898   10.2217   16.0942 O   0  0  0  0  0  0  0  0  0  0  0  0
   12.1651    6.2484   20.3251 C   0  0  0  0  0  0  0  0  0  0  0  0
    6.5066    8.7758   20.7972 O   0  0  0  0  0  0  0  0  0  0  0  0
   13.8725    5.9947   18.7509 C   0  0  0  0  0  0  0  0  0  0  0  0
    8.3509    9.6686   17.0218 C   0  0  0  0  0  0  0  0  0  0  0  0
    9.6346    4.0344   13.8064 Cl  0  0  0  0  0  0  0  0  0  0  0  0
    9.4494    8.9466   16.7243 N   0  0  0  0  0  0  0  0  0  0  0  0
    5.9901    8.7389   23.5086 O   0  0  0  0  0  0  0  0  0  0  0  0
    7.6777    8.7218   20.6376 C   0  0  0  0  0  0  0  0  0  0  0  0
   13.3891    5.7387   20.0296 O   0  0  0  0  0  0  0  0  0  0  0  0
    8.5630    5.6668   15.4812 C   0  0  0  0  0  0  0  0  0  0  0  0
    8.5063    7.9418   21.5206 C   0  0  0  0  0  0  0  0  0  0  0  0
   11.4277    6.8824   19.3685 C   0  0  0  0  0  0  0  0  0  0  0  0
   10.1731    7.4138   19.7445 C   0  0  0  0  0  0  0  0  0  0  0  0
    9.7531    7.3185   21.0450 C   0  0  0  0  0  0  0  0  0  0  0  0
    9.5610    5.4601   14.5594 C   0  0  0  0  0  0  0  0  0  0  0  0
    9.4502    7.8341   15.8920 C   0  0  0  0  0  0  0  0  0  0  0  0
   10.4219    7.6490   14.9753 N   0  0  0  0  0  0  0  0  0  0  0  0
   10.0498    6.5156   23.2588 N   0  0  0  0  0  0  0  0  0  0  0  0
    6.9682    8.1342   23.7108 C   0  0  0  0  0  0  0  0  0  0  0  0
    8.9656    7.0033   23.6489 C   0  0  0  0  0  0  0  0  0  0  0  0
   11.7273    6.1041   21.6165 C   0  0  0  0  0  0  0  0  0  0  0  0
  1  5  1  0
  1 13  1  0
  2 20  2  0
  2 28  1  0
  2 29  1  0
  3 19  4  0
  3 25  4  0
  4 23  4  0
  4 27  1  0
  4 30  4  0
  5 17  1  0
  6  8  2  0
  6 29  1  0
  7 24  4  0
  7 26  4  0
  8 28  1  0
  9 13  2  0
 10 18  1  0
 10 21  4  0
 10 30  4  0
 11 17  2  0
 12 18  1  0
 13 15  1  0
 14 24  1  0
 15 25  1  0
 16 28  2  0
 17 20  1  0
 19 24  4  0
 20 23  1  0
 21 22  4  0
 22 23  4  0
 25 26  4  0
 27 29  2  0
M  END
$$$$

 Created by Python create_sdf_string function

 30 55  0  0  0  0  0  0  0  0999 V2000
    7.7963    9.8613   18.7746 C   0  0  0  0  0  0  0  0  0  0  0  0
    7.9513    7.6241   22.9332 C   0  0  0  0  0  0  0  0  0  0  0  0
    8.6765    6.8454   15.9384 C   0  0  0  0  0  0  0  0  0  0  0  0
   10.6999    6.7691   22.0789 C   0  0  0  0  0  0  0  0  0  0  0  0
    8.2306    9.3283   19.4823 O   0  0  0  0  0  0  0  0  0  0  0  0
    8.5140    6.8520   24.9739 C   0  0  0  0  0  0  0  0  0  0  0  0
   10.2420    6.4774   14.1923 C   0  0  0  0  0  0  0  0  0  0  0  0
    7.1277    7.6899   25.0414 C   0  0  0  0  0  0  0  0  0  0  0  0
    7.7311   10.2709   15.9549 O   0  0  0  0  0  0  0  0  0  0  0  0
   12.1293    6.3323   20.4510 C   0  0  0  0  0  0  0  0  0  0  0  0
    6.7403    8.8909   20.7328 N   0  0  0  0  0  0  0  0  0  0  0  0
   13.8734    5.8408   18.6840 C   0  0  0  0  0  0  0  0  0  0  0  0
    8.5684    9.5896   16.7430 C   0  0  0  0  0  0  0  0  0  0  0  0
    9.5914    4.0818   13.8928 Cl  0  0  0  0  0  0  0  0  0  0  0  0
    9.5272    8.8686   16.7939 N   0  0  0  0  0  0  0  0  0  0  0  0
    5.7397    8.5098   23.6067 O   0  0  0  0  0  0  0  0  0  0  0  0
    7.5856    8.5009   20.7576 C   0  0  0  0  0  0  0  0  0  0  0  0
   13.5649    5.8110   19.9863 O   0  0  0  0  0  0  0  0  0  0  0  0
    8.6579    5.6104   15.7071 C   0  0  0  0  0  0  0  0  0  0  0  0
    8.4775    7.8255   21.3805 C   0  0  0  0  0  0  0  0  0  0  0  0
   11.1828    6.8685   19.4312 C   0  0  0  0  0  0  0  0  0  0  0  0
   10.3017    7.5618   19.8555 C   0  0  0  0  0  0  0  0  0  0  0  0
    9.9281    7.2408   21.1396 C   0  0  0  0  0  0  0  0  0  0  0  0
    9.5535    5.5322   14.4269 C   0  0  0  0  0  0  0  0  0  0  0  0
    9.5519    7.8390   15.8334 C   0  0  0  0  0  0  0  0  0  0  0  0
   10.5430    7.4105   15.1297 N   0  0  0  0  0  0  0  0  0  0  0  0
    9.9806    6.6008   23.0972 N   0  0  0  0  0  0  0  0  0  0  0  0
    6.8528    8.1115   23.5405 C   0  0  0  0  0  0  0  0  0  0  0  0
    9.0009    6.9220   23.5556 C   0  0  0  0  0  0  0  0  0  0  0  0
   11.8479    6.0183   21.7937 C   0  0  0  0  0  0  0  0  0  0  0  0
  1  5  1  0
  1  9  4  0
  1 11  3  0
  2 20  2  0
  2 26  4  0
  2 28  1  0
  2 29  1  0
  3 16  2  0
  3 19  4  0
  3 25  4  0
  4 23  4  0
  4 27  1  0
  4 30  4  0
  5 17  1  0
  5 21  1  0
  5 26  2  0
  6  8  2  0
  6 23  1  0
  6 29  1  0
  7 24  4  0
  7 26  4  0
  8 12  4  0
  8 18  1  0
  8 22  2  0
  8 24  3  0
  8 28  1  0
  9 13  2  0
  9 26  2  0
  9 29  3  0
  9 30  2  0
 10 18  1  0
 10 21  4  0
 10 22  3  0
 10 26  4  0
 10 30  4  0
 11 16  4  0
 11 17  2  0
 11 30  4  0
 12 16  3  0
 12 18  1  0
 13 15  1  0
 14 24  1  0
 14 27  3  0
 15 25  1  0
 16 28  4  0
 17 20  1  0
 19 24  4  0
 20 23  1  0
 20 27  4  0
 21 22  4  0
 22 23  1  0
 23 25  2  0
 25 26  4  0
 26 29  1  0
 27 29  3  0
M  END
$$$$

 Created by Python create_sdf_string function

 30 33  0  0  0  0  0  0  0  0999 V2000
    7.8811    9.8603   18.4378 C   0  0  0  0  0  0  0  0  0  0  0  0
    8.0675    7.6418   22.8120 C   0  0  0  0  0  0  0  0  0  0  0  0
    8.5401    6.8651   16.2217 C   0  0  0  0  0  0  0  0  0  0  0  0
   10.5790    6.6584   22.0059 C   0  0  0  0  0  0  0  0  0  0  0  0
    8.2927    9.2493   19.5420 O   0  0  0  0  0  0  0  0  0  0  0  0
    8.4512    6.8949   24.9756 C   0  0  0  0  0  0  0  0  0  0  0  0
   10.4443    6.3933   14.2833 C   0  0  0  0  0  0  0  0  0  0  0  0
    7.1871    7.6193   25.0161 C   0  0  0  0  0  0  0  0  0  0  0  0
    7.8141   10.2049   16.0594 O   0  0  0  0  0  0  0  0  0  0  0  0
   12.2257    6.2798   20.3472 C   0  0  0  0  0  0  0  0  0  0  0  0
    6.5565    8.9092   20.7835 O   0  0  0  0  0  0  0  0  0  0  0  0
   13.8703    5.8855   18.7143 C   0  0  0  0  0  0  0  0  0  0  0  0
    8.3846    9.6650   16.9797 C   0  0  0  0  0  0  0  0  0  0  0  0
    9.5696    4.1140   13.7899 Cl  0  0  0  0  0  0  0  0  0  0  0  0
    9.4766    8.9240   16.7354 N   0  0  0  0  0  0  0  0  0  0  0  0
    5.8066    8.5451   23.4229 O   0  0  0  0  0  0  0  0  0  0  0  0
    7.6806    8.7125   20.6034 C   0  0  0  0  0  0  0  0  0  0  0  0
   13.4666    5.7618   20.0296 O   0  0  0  0  0  0  0  0  0  0  0  0
    8.5658    5.6263   15.5164 C   0  0  0  0  0  0  0  0  0  0  0  0
    8.5032    7.8792   21.5283 C   0  0  0  0  0  0  0  0  0  0  0  0
   11.4910    6.9080   19.4138 C   0  0  0  0  0  0  0  0  0  0  0  0
   10.2441    7.4723   19.7785 C   0  0  0  0  0  0  0  0  0  0  0  0
    9.7827    7.3423   21.0836 C   0  0  0  0  0  0  0  0  0  0  0  0
    9.5346    5.4486   14.5721 C   0  0  0  0  0  0  0  0  0  0  0  0
    9.4807    7.7935   15.9445 C   0  0  0  0  0  0  0  0  0  0  0  0
   10.4241    7.6037   14.9986 N   0  0  0  0  0  0  0  0  0  0  0  0
   10.0995    6.5308   23.2968 N   0  0  0  0  0  0  0  0  0  0  0  0
    6.9010    8.0296   23.6107 C   0  0  0  0  0  0  0  0  0  0  0  0
    8.9739    6.9506   23.6331 C   0  0  0  0  0  0  0  0  0  0  0  0
   11.7798    6.1620   21.6476 C   0  0  0  0  0  0  0  0  0  0  0  0
  1  5  1  0
  1 13  1  0
  2 20  2  0
  2 28  1  0
  2 29  1  0
  3 19  4  0
  3 25  4  0
  4 23  4  0
  4 27  1  0
  4 30  4  0
  5 17  1  0
  6  8  2  0
  6 29  1  0
  7 24  4  0
  7 26  4  0
  8 28  1  0
  9 13  2  0
 10 18  1  0
 10 21  4  0
 10 30  4  0
 11 17  2  0
 12 18  1  0
 13 15  1  0
 14 24  1  0
 15 25  1  0
 16 28  2  0
 17 20  1  0
 19 24  4  0
 20 23  1  0
 21 22  4  0
 22 23  4  0
 25 26  4  0
 27 29  2  0
M  END
$$$$

 Created by Python create_sdf_string function

 30 50  0  0  0  0  0  0  0  0999 V2000
    8.2194    9.8288   18.4183 C   0  0  0  0  0  0  0  0  0  0  0  0
    8.1722    7.6277   22.7128 C   0  0  0  0  0  0  0  0  0  0  0  0
    8.5249    6.9237   16.2161 C   0  0  0  0  0  0  0  0  0  0  0  0
   10.6492    6.3625   21.9972 C   0  0  0  0  0  0  0  0  0  0  0  0
    8.4997    9.2983   19.5365 O   0  0  0  0  0  0  0  0  0  0  0  0
    8.7175    6.8055   24.9932 C   0  0  0  0  0  0  0  0  0  0  0  0
   10.5407    6.5641   14.2964 C   0  0  0  0  0  0  0  0  0  0  0  0
    7.0879    7.7046   24.8398 C   0  0  0  0  0  0  0  0  0  0  0  0
    7.7694   10.1397   16.1590 O   0  0  0  0  0  0  0  0  0  0  0  0
   12.1609    6.3566   20.2473 C   0  0  0  0  0  0  0  0  0  0  0  0
    6.3727    8.7432   20.8547 O   0  0  0  0  0  0  0  0  0  0  0  0
   13.9007    5.6532   18.7593 C   0  0  0  0  0  0  0  0  0  0  0  0
    8.4390    9.8088   16.9195 C   0  0  0  0  0  0  0  0  0  0  0  0
    9.4748    4.0313   13.9015 Cl  0  0  0  0  0  0  0  0  0  0  0  0
    9.4032    8.8164   16.7046 N   0  0  0  0  0  0  0  0  0  0  0  0
    5.7261    8.6663   23.3162 O   0  0  0  0  0  0  0  0  0  0  0  0
    7.7421    8.6396   20.7905 C   0  0  0  0  0  0  0  0  0  0  0  0
   13.3967    6.0047   20.1514 O   0  0  0  0  0  0  0  0  0  0  0  0
    8.3215    5.5536   15.3217 C   0  0  0  0  0  0  0  0  0  0  0  0
    8.1960    7.9123   21.7748 C   0  0  0  0  0  0  0  0  0  0  0  0
   11.5159    6.9893   19.1995 C   0  0  0  0  0  0  0  0  0  0  0  0
   10.4274    7.4410   19.8036 C   0  0  0  0  0  0  0  0  0  0  0  0
    9.7318    7.3232   21.0822 C   0  0  0  0  0  0  0  0  0  0  0  0
    9.5415    5.5009   14.4500 C   0  0  0  0  0  0  0  0  0  0  0  0
    9.6730    7.8750   15.9214 C   0  0  0  0  0  0  0  0  0  0  0  0
   10.4270    7.4391   14.9492 N   0  0  0  0  0  0  0  0  0  0  0  0
    9.7823    6.5141   23.3102 N   0  0  0  0  0  0  0  0  0  0  0  0
    6.6734    8.0038   23.7439 C   0  0  0  0  0  0  0  0  0  0  0  0
    9.0976    6.9606   23.6418 C   0  0  0  0  0  0  0  0  0  0  0  0
   11.7626    6.0254   21.6624 C   0  0  0  0  0  0  0  0  0  0  0  0
  1  5  1  0
  1  6  4  0
  1 13  1  0
  1 14  3  0
  1 19  2  0
  1 20  3  0
  2 20  2  0
  2 28  1  0
  2 29  3  0
  3 19  4  0
  3 22  3  0
  3 25  4  0
  4  6  2  0
  4 23  4  0
  4 26  3  0
  4 27  1  0
  5 17  1  0
  5 21  3  0
  5 29  3  0
  6  8  2  0
  6 16  3  0
  6 29  1  0
  7 16  3  0
  7 24  4  0
  7 26  4  0
  8 28  1  0
  9 13  2  0
 10 12  3  0
 10 18  1  0
 10 21  4  0
 10 30  4  0
 11 17  2  0
 11 20  4  0
 12 15  4  0
 12 18  1  0
 13 15  1  0
 14 24  1  0
 15 25  1  0
 16 28  2  0
 17 20  1  0
 18 24  1  0
 19 24  4  0
 20 23  3  0
 21 22  4  0
 22 23  4  0
 22 26  2  0
 22 29  1  0
 23 26  3  0
 25 26  4  0
 27 29  2  0
M  END
$$$$

 Created by Python create_sdf_string function

 30 33  0  0  0  0  0  0  0  0999 V2000
    8.1076    9.8784   18.5238 C   0  0  0  0  0  0  0  0  0  0  0  0
    8.0662    7.6512   22.8375 C   0  0  0  0  0  0  0  0  0  0  0  0
    8.4342    6.9109   16.1413 C   0  0  0  0  0  0  0  0  0  0  0  0
   10.5030    6.6096   21.9522 C   0  0  0  0  0  0  0  0  0  0  0  0
    8.4389    9.2837   19.6395 O   0  0  0  0  0  0  0  0  0  0  0  0
    8.4527    6.9319   25.0060 C   0  0  0  0  0  0  0  0  0  0  0  0
   10.4575    6.3724   14.3195 C   0  0  0  0  0  0  0  0  0  0  0  0
    7.1269    7.6081   24.9863 C   0  0  0  0  0  0  0  0  0  0  0  0
    7.7897   10.1689   16.1591 O   0  0  0  0  0  0  0  0  0  0  0  0
   12.2174    6.2983   20.3262 C   0  0  0  0  0  0  0  0  0  0  0  0
    6.5011    8.8087   20.7392 O   0  0  0  0  0  0  0  0  0  0  0  0
   13.8908    5.7709   18.8370 C   0  0  0  0  0  0  0  0  0  0  0  0
    8.4320    9.6567   17.0202 C   0  0  0  0  0  0  0  0  0  0  0  0
    9.5208    4.0855   13.7411 Cl  0  0  0  0  0  0  0  0  0  0  0  0
    9.5233    8.9055   16.7145 N   0  0  0  0  0  0  0  0  0  0  0  0
    5.8404    8.5697   23.3734 O   0  0  0  0  0  0  0  0  0  0  0  0
    7.6743    8.7196   20.6261 C   0  0  0  0  0  0  0  0  0  0  0  0
   13.4713    5.8349   20.0974 O   0  0  0  0  0  0  0  0  0  0  0  0
    8.4520    5.6795   15.4189 C   0  0  0  0  0  0  0  0  0  0  0  0
    8.4782    7.8929   21.5655 C   0  0  0  0  0  0  0  0  0  0  0  0
   11.5259    6.9721   19.3638 C   0  0  0  0  0  0  0  0  0  0  0  0
   10.2531    7.4984   19.7246 C   0  0  0  0  0  0  0  0  0  0  0  0
    9.7641    7.3427   21.0392 C   0  0  0  0  0  0  0  0  0  0  0  0
    9.4818    5.4683   14.5348 C   0  0  0  0  0  0  0  0  0  0  0  0
    9.4653    7.7912   15.9254 C   0  0  0  0  0  0  0  0  0  0  0  0
   10.4716    7.5726   15.0391 N   0  0  0  0  0  0  0  0  0  0  0  0
   10.0316    6.4226   23.2396 N   0  0  0  0  0  0  0  0  0  0  0  0
    6.8720    8.0438   23.6328 C   0  0  0  0  0  0  0  0  0  0  0  0
    8.9456    6.9448   23.6597 C   0  0  0  0  0  0  0  0  0  0  0  0
   11.7068    6.0793   21.5771 C   0  0  0  0  0  0  0  0  0  0  0  0
  1  5  1  0
  1 13  1  0
  2 20  2  0
  2 28  1  0
  2 29  1  0
  3 19  4  0
  3 25  4  0
  4 23  4  0
  4 27  1  0
  4 30  4  0
  5 17  1  0
  6  8  2  0
  6 29  1  0
  7 24  4  0
  7 26  4  0
  8 28  1  0
  9 13  2  0
 10 18  1  0
 10 21  4  0
 10 30  4  0
 11 17  2  0
 12 18  1  0
 13 15  1  0
 14 24  1  0
 15 25  1  0
 16 28  2  0
 17 20  1  0
 19 24  4  0
 20 23  1  0
 21 22  4  0
 22 23  4  0
 25 26  4  0
 27 29  2  0
M  END
$$$$

 Created by Python create_sdf_string function

 30 41  0  0  0  0  0  0  0  0999 V2000
    8.3103    9.9033   18.3658 C   0  0  0  0  0  0  0  0  0  0  0  0
    7.8060    7.6641   22.6495 C   0  0  0  0  0  0  0  0  0  0  0  0
    8.3971    6.8915   15.9654 C   0  0  0  0  0  0  0  0  0  0  0  0
   10.4418    6.7565   22.1617 C   0  0  0  0  0  0  0  0  0  0  0  0
    8.2611    9.0648   19.7839 O   0  0  0  0  0  0  0  0  0  0  0  0
    8.5428    6.9467   24.9216 C   0  0  0  0  0  0  0  0  0  0  0  0
   10.4865    6.4299   14.3789 C   0  0  0  0  0  0  0  0  0  0  0  0
    7.1449    7.6393   25.0525 C   0  0  0  0  0  0  0  0  0  0  0  0
    7.8027   10.1626   16.1755 O   0  0  0  0  0  0  0  0  0  0  0  0
   12.4424    6.2993   20.3011 C   0  0  0  0  0  0  0  0  0  0  0  0
    6.5949    8.7733   20.7986 O   0  0  0  0  0  0  0  0  0  0  0  0
    8.5191    9.4019   16.7932 C   0  0  0  0  0  0  0  0  0  0  0  0
    9.3905    4.0608   13.8086 Cl  0  0  0  0  0  0  0  0  0  0  0  0
    9.3149    9.2281   16.8566 N   0  0  0  0  0  0  0  0  0  0  0  0
    5.7731    8.6696   23.2740 O   0  0  0  0  0  0  0  0  0  0  0  0
    7.8397    8.6320   20.7619 C   0  0  0  0  0  0  0  0  0  0  0  0
   13.4399    5.7332   20.1468 O   0  0  0  0  0  0  0  0  0  0  0  0
    8.5991    5.7380   15.3500 C   0  0  0  0  0  0  0  0  0  0  0  0
    8.4017    7.9025   21.5530 C   0  0  0  0  0  0  0  0  0  0  0  0
   11.6208    7.0268   19.3724 C   0  0  0  0  0  0  0  0  0  0  0  0
   10.3041    7.6435   19.8313 C   0  0  0  0  0  0  0  0  0  0  0  0
    9.6687    7.3630   21.1536 C   0  0  0  0  0  0  0  0  0  0  0  0
    9.3862    5.5705   14.5141 C   0  0  0  0  0  0  0  0  0  0  0  0
    9.3692    7.5710   16.0286 N   0  0  0  0  0  0  0  0  0  0  0  0
   10.4432    7.5798   14.9654 N   0  0  0  0  0  0  0  0  0  0  0  0
    9.9115    6.4488   23.0686 N   0  0  0  0  0  0  0  0  0  0  0  0
    6.8958    8.2146   23.6825 C   0  0  0  0  0  0  0  0  0  0  0  0
    8.8014    6.9666   23.5458 F   0  0  0  0  0  0  0  0  0  0  0  0
   11.7073    6.0329   21.5209 C   0  0  0  0  0  0  0  0  0  0  0  0
   13.6965    5.7747   18.6077 He  0  0  0  0  0  0  0  0  0  0  0  0
  1  4  2  0
  1  5  1  0
  1  8  1  0
  2 19  2  0
  2 27  1  0
  2 28  1  0
  3 17  1  0
  3 18  4  0
  3 24  4  0
  3 28  4  0
  4 11  2  0
  4 22  4  0
  4 26  1  0
  4 29  4  0
  5  8  2  0
  5 16  1  0
  6  8  2  0
  6 28  1  0
  7  9  1  0
  7 17  4  0
  7 23  4  0
  7 25  4  0
  8 16  1  0
  8 27  1  0
  9 12  2  0
  9 17  2  0
  9 22  4  0
 10 17  1  0
 10 20  4  0
 10 29  1  0
 12 14  1  0
 13 23  1  0
 14 24  1  0
 15 27  2  0
 16 19  1  0
 18 23  4  0
 19 22  1  0
 20 21  4  0
 21 25  2  0
 24 25  4  0
 27 28  2  0
M  END
$$$$

 Created by Python create_sdf_string function

 30 33  0  0  0  0  0  0  0  0999 V2000
    8.1884    9.9183   18.4844 C   0  0  0  0  0  0  0  0  0  0  0  0
    8.0271    7.6724   22.7757 C   0  0  0  0  0  0  0  0  0  0  0  0
    8.3872    6.9207   16.0948 C   0  0  0  0  0  0  0  0  0  0  0  0
   10.4979    6.6247   21.9447 C   0  0  0  0  0  0  0  0  0  0  0  0
    8.3490    9.2122   19.5765 O   0  0  0  0  0  0  0  0  0  0  0  0
    8.4264    6.9391   24.9478 C   0  0  0  0  0  0  0  0  0  0  0  0
   10.4595    6.3720   14.3566 C   0  0  0  0  0  0  0  0  0  0  0  0
    7.1631    7.6706   24.9811 C   0  0  0  0  0  0  0  0  0  0  0  0
    7.7386   10.1659   16.1667 O   0  0  0  0  0  0  0  0  0  0  0  0
   12.2415    6.2883   20.3708 C   0  0  0  0  0  0  0  0  0  0  0  0
    6.5338    8.8483   20.7655 O   0  0  0  0  0  0  0  0  0  0  0  0
   13.7577    5.8030   18.7220 C   0  0  0  0  0  0  0  0  0  0  0  0
    8.4204    9.6425   17.0050 C   0  0  0  0  0  0  0  0  0  0  0  0
    9.4720    4.1081   13.7082 Cl  0  0  0  0  0  0  0  0  0  0  0  0
    9.4725    8.8964   16.6609 N   0  0  0  0  0  0  0  0  0  0  0  0
    5.8453    8.6630   23.3656 O   0  0  0  0  0  0  0  0  0  0  0  0
    7.7050    8.7181   20.5841 C   0  0  0  0  0  0  0  0  0  0  0  0
   13.4507    5.7072   20.0766 O   0  0  0  0  0  0  0  0  0  0  0  0
    8.4059    5.7039   15.3793 C   0  0  0  0  0  0  0  0  0  0  0  0
    8.4811    7.9109   21.5230 C   0  0  0  0  0  0  0  0  0  0  0  0
   11.5923    7.0349   19.4375 C   0  0  0  0  0  0  0  0  0  0  0  0
   10.3484    7.6066   19.7690 C   0  0  0  0  0  0  0  0  0  0  0  0
    9.7942    7.3883   21.0399 C   0  0  0  0  0  0  0  0  0  0  0  0
    9.4601    5.4803   14.5315 C   0  0  0  0  0  0  0  0  0  0  0  0
    9.4235    7.7704   15.8924 C   0  0  0  0  0  0  0  0  0  0  0  0
   10.4637    7.5489   15.0646 N   0  0  0  0  0  0  0  0  0  0  0  0
    9.9575    6.4324   23.2048 N   0  0  0  0  0  0  0  0  0  0  0  0
    6.8626    8.0903   23.6140 C   0  0  0  0  0  0  0  0  0  0  0  0
    8.8924    6.9251   23.5807 C   0  0  0  0  0  0  0  0  0  0  0  0
   11.7014    6.1076   21.6271 C   0  0  0  0  0  0  0  0  0  0  0  0
  1  5  1  0
  1 13  1  0
  2 20  2  0
  2 28  1  0
  2 29  1  0
  3 19  4  0
  3 25  4  0
  4 23  4  0
  4 27  1  0
  4 30  4  0
  5 17  1  0
  6  8  2  0
  6 29  1  0
  7 24  4  0
  7 26  4  0
  8 28  1  0
  9 13  2  0
 10 18  1  0
 10 21  4  0
 10 30  4  0
 11 17  2  0
 12 18  1  0
 13 15  1  0
 14 24  1  0
 15 25  1  0
 16 28  2  0
 17 20  1  0
 19 24  4  0
 20 23  1  0
 21 22  4  0
 22 23  4  0
 25 26  4  0
 27 29  2  0
M  END
$$$$

 Created by Python create_sdf_string function

 30 42  0  0  0  0  0  0  0  0999 V2000
    8.2433    9.9233   18.5325 C   0  0  0  0  0  0  0  0  0  0  0  0
    8.0657    7.5101   22.8536 C   0  0  0  0  0  0  0  0  0  0  0  0
    8.4475    7.0643   16.1677 C   0  0  0  0  0  0  0  0  0  0  0  0
   10.6268    6.5970   21.8766 C   0  0  0  0  0  0  0  0  0  0  0  0
    8.4082    8.9641   19.4308 O   0  0  0  0  0  0  0  0  0  0  0  0
    8.5480    7.1848   25.0307 C   0  0  0  0  0  0  0  0  0  0  0  0
   10.3769    6.1957   14.3601 C   0  0  0  0  0  0  0  0  0  0  0  0
    7.2673    7.4637   25.1951 C   0  0  0  0  0  0  0  0  0  0  0  0
    7.8529   10.2841   16.0825 O   0  0  0  0  0  0  0  0  0  0  0  0
    6.6558    8.8783   20.8965 O   0  0  0  0  0  0  0  0  0  0  0  0
   13.7298    5.8753   18.7955 C   0  0  0  0  0  0  0  0  0  0  0  0
    8.4250    9.6901   16.7921 C   0  0  0  0  0  0  0  0  0  0  0  0
    9.5294    4.1551   13.8036 Cl  0  0  0  0  0  0  0  0  0  0  0  0
    9.5351    8.9862   16.7156 N   0  0  0  0  0  0  0  0  0  0  0  0
    5.8484    8.6950   23.4680 O   0  0  0  0  0  0  0  0  0  0  0  0
    7.7297    8.6198   20.6839 N   0  0  0  0  0  0  0  0  0  0  0  0
   13.4390    5.7232   20.1853 O   0  0  0  0  0  0  0  0  0  0  0  0
    8.3210    5.5971   15.2042 C   0  0  0  0  0  0  0  0  0  0  0  0
    8.6243    7.9496   21.4640 C   0  0  0  0  0  0  0  0  0  0  0  0
   11.4849    7.0310   19.4711 C   0  0  0  0  0  0  0  0  0  0  0  0
   10.2228    7.4960   19.8475 C   0  0  0  0  0  0  0  0  0  0  0  0
    9.6230    7.3086   20.9270 C   0  0  0  0  0  0  0  0  0  0  0  0
    9.6409    5.5275   14.5768 C   0  0  0  0  0  0  0  0  0  0  0  0
    9.3568    7.7648   15.8020 C   0  0  0  0  0  0  0  0  0  0  0  0
   10.4727    7.7887   15.1234 N   0  0  0  0  0  0  0  0  0  0  0  0
    9.8539    6.5536   23.1447 N   0  0  0  0  0  0  0  0  0  0  0  0
    6.8524    8.1536   23.6729 C   0  0  0  0  0  0  0  0  0  0  0  0
   11.7485    5.9682   21.5853 C   0  0  0  0  0  0  0  0  0  0  0  0
   12.1726    6.1695   20.3078 He  0  0  0  0  0  0  0  0  0  0  0  0
    8.9546    7.1300   23.6053 He  0  0  0  0  0  0  0  0  0  0  0  0
  1  5  1  0
  2 18  3  0
  2 19  2  0
  2 21  1  0
  2 27  1  0
  3 24  4  0
  4  5  1  0
  4 15  2  0
  4 22  4  0
  4 26  1  0
  4 28  4  0
  5 16  1  0
  6  7  3  0
  6  8  2  0
  6 20  3  0
  7 20  3  0
  7 23  4  0
  7 25  4  0
  8 20  4  0
  8 27  1  0
  9 12  2  0
 10 16  2  0
 10 20  2  0
 11 17  1  0
 12 14  1  0
 12 23  1  0
 12 24  4  0
 13 23  1  0
 14 24  2  0
 14 26  1  0
 15 24  2  0
 15 27  2  0
 16 19  1  0
 16 20  4  0
 16 25  1  0
 18 23  4  0
 19 22  1  0
 20 21  4  0
 21 22  3  0
 23 26  4  0
 24 25  4  0
 26 28  1  0
M  END
$$$$

 Created by Python create_sdf_string function

 30 33  0  0  0  0  0  0  0  0999 V2000
    8.1686    9.9214   18.4942 C   0  0  0  0  0  0  0  0  0  0  0  0
    8.0814    7.7098   22.8341 C   0  0  0  0  0  0  0  0  0  0  0  0
    8.3601    6.9756   16.0594 C   0  0  0  0  0  0  0  0  0  0  0  0
   10.5078    6.6147   21.9315 C   0  0  0  0  0  0  0  0  0  0  0  0
    8.3334    9.0060   19.4450 O   0  0  0  0  0  0  0  0  0  0  0  0
    8.5647    7.0589   24.9993 C   0  0  0  0  0  0  0  0  0  0  0  0
   10.4672    6.3512   14.3905 C   0  0  0  0  0  0  0  0  0  0  0  0
    7.2363    7.5920   25.0507 C   0  0  0  0  0  0  0  0  0  0  0  0
    7.8110   10.2647   16.1254 O   0  0  0  0  0  0  0  0  0  0  0  0
   12.1943    6.2329   20.3504 C   0  0  0  0  0  0  0  0  0  0  0  0
    6.6280    8.9600   20.7983 O   0  0  0  0  0  0  0  0  0  0  0  0
   13.8395    5.8951   18.7770 C   0  0  0  0  0  0  0  0  0  0  0  0
    8.4539    9.7106   16.9720 C   0  0  0  0  0  0  0  0  0  0  0  0
    9.5510    4.1196   13.7526 Cl  0  0  0  0  0  0  0  0  0  0  0  0
    9.5087    8.9260   16.6438 N   0  0  0  0  0  0  0  0  0  0  0  0
    5.8921    8.6336   23.4745 O   0  0  0  0  0  0  0  0  0  0  0  0
    7.7281    8.6931   20.5959 C   0  0  0  0  0  0  0  0  0  0  0  0
   13.4280    5.6854   20.0749 O   0  0  0  0  0  0  0  0  0  0  0  0
    8.3958    5.7235   15.3559 C   0  0  0  0  0  0  0  0  0  0  0  0
    8.4856    7.8792   21.5377 C   0  0  0  0  0  0  0  0  0  0  0  0
   11.5354    6.9221   19.4024 C   0  0  0  0  0  0  0  0  0  0  0  0
   10.2796    7.4975   19.7156 C   0  0  0  0  0  0  0  0  0  0  0  0
    9.7748    7.3450   21.0180 C   0  0  0  0  0  0  0  0  0  0  0  0
    9.4707    5.4739   14.5405 C   0  0  0  0  0  0  0  0  0  0  0  0
    9.4244    7.8163   15.8913 C   0  0  0  0  0  0  0  0  0  0  0  0
   10.4679    7.5732   15.0655 N   0  0  0  0  0  0  0  0  0  0  0  0
   10.0348    6.5192   23.2240 N   0  0  0  0  0  0  0  0  0  0  0  0
    6.9145    8.0539   23.6878 C   0  0  0  0  0  0  0  0  0  0  0  0
    9.0102    7.0492   23.6389 C   0  0  0  0  0  0  0  0  0  0  0  0
   11.6780    6.0469   21.5828 C   0  0  0  0  0  0  0  0  0  0  0  0
  1  5  1  0
  1 13  1  0
  2 20  2  0
  2 28  1  0
  2 29  1  0
  3 19  4  0
  3 25  4  0
  4 23  4  0
  4 27  1  0
  4 30  4  0
  5 17  1  0
  6  8  2  0
  6 29  1  0
  7 24  4  0
  7 26  4  0
  8 28  1  0
  9 13  2  0
 10 18  1  0
 10 21  4  0
 10 30  4  0
 11 17  2  0
 12 18  1  0
 13 15  1  0
 14 24  1  0
 15 25  1  0
 16 28  2  0
 17 20  1  0
 19 24  4  0
 20 23  1  0
 21 22  4  0
 22 23  4  0
 25 26  4  0
 27 29  2  0
M  END
$$$$

 Created by Python create_sdf_string function

 30 40  0  0  0  0  0  0  0  0999 V2000
    8.1934    9.9490   18.4069 C   0  0  0  0  0  0  0  0  0  0  0  0
    8.1455    7.6717   22.7460 C   0  0  0  0  0  0  0  0  0  0  0  0
    8.4317    6.9549   16.0284 C   0  0  0  0  0  0  0  0  0  0  0  0
   10.3631    6.8519   21.9432 C   0  0  0  0  0  0  0  0  0  0  0  0
    8.5851    7.1882   25.2020 C   0  0  0  0  0  0  0  0  0  0  0  0
   10.4346    6.3952   14.3966 C   0  0  0  0  0  0  0  0  0  0  0  0
    7.2014    7.4448   25.0875 C   0  0  0  0  0  0  0  0  0  0  0  0
    7.9071   10.1236   16.2126 O   0  0  0  0  0  0  0  0  0  0  0  0
   12.0515    6.2960   20.4101 C   0  0  0  0  0  0  0  0  0  0  0  0
    6.7035    8.9532   20.6529 O   0  0  0  0  0  0  0  0  0  0  0  0
   13.8652    5.9912   18.8940 C   0  0  0  0  0  0  0  0  0  0  0  0
    8.3955    9.6809   16.8519 C   0  0  0  0  0  0  0  0  0  0  0  0
    9.3969    3.9548   13.6798 Cl  0  0  0  0  0  0  0  0  0  0  0  0
    9.4962    8.8539   16.6957 N   0  0  0  0  0  0  0  0  0  0  0  0
    5.9709    8.6673   23.5112 O   0  0  0  0  0  0  0  0  0  0  0  0
    7.7729    8.6304   20.7573 C   0  0  0  0  0  0  0  0  0  0  0  0
   13.5296    5.6946   19.8794 O   0  0  0  0  0  0  0  0  0  0  0  0
    8.2667    5.5996   15.4454 C   0  0  0  0  0  0  0  0  0  0  0  0
    8.4026    7.7925   21.6464 C   0  0  0  0  0  0  0  0  0  0  0  0
   10.1885    7.6213   19.7271 C   0  0  0  0  0  0  0  0  0  0  0  0
    9.8144    7.3031   20.8578 C   0  0  0  0  0  0  0  0  0  0  0  0
    9.4242    5.4454   14.4345 C   0  0  0  0  0  0  0  0  0  0  0  0
    9.5193    7.6552   15.8573 P   0  0  0  0  0  0  0  0  0  0  0  0
   10.4152    7.7248   15.1481 N   0  0  0  0  0  0  0  0  0  0  0  0
   10.0278    6.4405   23.1475 N   0  0  0  0  0  0  0  0  0  0  0  0
    7.0394    8.1692   23.7761 C   0  0  0  0  0  0  0  0  0  0  0  0
    8.8852    6.7052   23.5496 C   0  0  0  0  0  0  0  0  0  0  0  0
   11.7734    5.8725   21.6959 C   0  0  0  0  0  0  0  0  0  0  0  0
    8.2316    8.7687   19.5859 He  0  0  0  0  0  0  0  0  0  0  0  0
   11.5367    6.8608   19.3490 He  0  0  0  0  0  0  0  0  0  0  0  0
  1 12  1  0
  1 14  1  0
  2  6  3  0
  2 19  2  0
  2 26  1  0
  2 27  1  0
  2 28  2  0
  3 18  4  0
  3 23  4  0
  4 28  4  0
  5  7  2  0
  5 21  3  0
  5 27  1  0
  6 22  4  0
  6 24  4  0
  7 11  2  0
  7 26  1  0
  8 10  4  0
  8 12  2  0
  8 24  2  0
  9 28  4  0
 10 16  2  0
 10 27  3  0
 10 28  3  0
 11 17  1  0
 12 14  1  0
 12 18  2  0
 12 23  1  0
 13 16  4  0
 13 22  1  0
 15 26  2  0
 16 19  1  0
 18 22  4  0
 18 23  1  0
 19 21  1  0
 19 23  1  0
 20 21  4  0
 21 26  2  0
 23 24  4  0
 25 27  2  0
M  END
$$$$

 Created by Python create_sdf_string function

 30 33  0  0  0  0  0  0  0  0999 V2000
    8.1359    9.8742   18.4781 C   0  0  0  0  0  0  0  0  0  0  0  0
    8.1069    7.6452   22.8441 C   0  0  0  0  0  0  0  0  0  0  0  0
    8.3507    6.8952   16.0899 C   0  0  0  0  0  0  0  0  0  0  0  0
   10.4970    6.5879   21.9145 C   0  0  0  0  0  0  0  0  0  0  0  0
    8.2588    8.9380   19.4481 O   0  0  0  0  0  0  0  0  0  0  0  0
    8.5450    6.9656   25.0546 C   0  0  0  0  0  0  0  0  0  0  0  0
   10.4171    6.3216   14.3589 C   0  0  0  0  0  0  0  0  0  0  0  0
    7.2315    7.5738   25.0715 C   0  0  0  0  0  0  0  0  0  0  0  0
    7.8197   10.1733   16.1447 O   0  0  0  0  0  0  0  0  0  0  0  0
   12.2021    6.2282   20.3123 C   0  0  0  0  0  0  0  0  0  0  0  0
    6.6385    8.9824   20.7768 O   0  0  0  0  0  0  0  0  0  0  0  0
   13.9506    6.0168   18.7904 C   0  0  0  0  0  0  0  0  0  0  0  0
    8.4276    9.6348   16.9893 C   0  0  0  0  0  0  0  0  0  0  0  0
    9.4285    4.0342   13.6527 Cl  0  0  0  0  0  0  0  0  0  0  0  0
    9.4975    8.8309   16.6892 N   0  0  0  0  0  0  0  0  0  0  0  0
    6.0237    8.6884   23.4551 O   0  0  0  0  0  0  0  0  0  0  0  0
    7.6979    8.6448   20.5928 C   0  0  0  0  0  0  0  0  0  0  0  0
   13.4473    5.6646   20.0158 O   0  0  0  0  0  0  0  0  0  0  0  0
    8.3584    5.6673   15.3637 C   0  0  0  0  0  0  0  0  0  0  0  0
    8.4853    7.8691   21.5558 C   0  0  0  0  0  0  0  0  0  0  0  0
   11.5532    6.9190   19.3615 C   0  0  0  0  0  0  0  0  0  0  0  0
   10.3134    7.4813   19.6924 C   0  0  0  0  0  0  0  0  0  0  0  0
    9.7762    7.3321   21.0085 C   0  0  0  0  0  0  0  0  0  0  0  0
    9.4071    5.4467   14.5249 C   0  0  0  0  0  0  0  0  0  0  0  0
    9.4008    7.7379   15.9066 C   0  0  0  0  0  0  0  0  0  0  0  0
   10.4273    7.5161   15.0730 N   0  0  0  0  0  0  0  0  0  0  0  0
   10.0499    6.4086   23.1890 N   0  0  0  0  0  0  0  0  0  0  0  0
    6.9754    8.0556   23.6695 C   0  0  0  0  0  0  0  0  0  0  0  0
    9.0230    6.9388   23.6882 C   0  0  0  0  0  0  0  0  0  0  0  0
   11.6941    6.0619   21.5704 C   0  0  0  0  0  0  0  0  0  0  0  0
  1  5  1  0
  1 13  1  0
  2 20  2  0
  2 28  1  0
  2 29  1  0
  3 19  4  0
  3 25  4  0
  4 23  4  0
  4 27  1  0
  4 30  4  0
  5 17  1  0
  6  8  2  0
  6 29  1  0
  7 24  4  0
  7 26  4  0
  8 28  1  0
  9 13  2  0
 10 18  1  0
 10 21  4  0
 10 30  4  0
 11 17  2  0
 12 18  1  0
 13 15  1  0
 14 24  1  0
 15 25  1  0
 16 28  2  0
 17 20  1  0
 19 24  4  0
 20 23  1  0
 21 22  4  0
 22 23  4  0
 25 26  4  0
 27 29  2  0
M  END
$$$$

 Created by Python create_sdf_string function

 30 44  0  0  0  0  0  0  0  0999 V2000
    8.3083    9.9139   18.4676 C   0  0  0  0  0  0  0  0  0  0  0  0
    8.1760    7.4925   22.8673 C   0  0  0  0  0  0  0  0  0  0  0  0
    8.1599    6.7956   16.0581 C   0  0  0  0  0  0  0  0  0  0  0  0
   10.4068    6.5490   21.9634 C   0  0  0  0  0  0  0  0  0  0  0  0
    8.2277    8.8272   19.4712 O   0  0  0  0  0  0  0  0  0  0  0  0
    8.5626    6.8284   25.0568 C   0  0  0  0  0  0  0  0  0  0  0  0
   10.3615    6.4022   14.2096 C   0  0  0  0  0  0  0  0  0  0  0  0
    7.2222    7.7225   25.0473 C   0  0  0  0  0  0  0  0  0  0  0  0
    7.8609   10.1308   16.0792 O   0  0  0  0  0  0  0  0  0  0  0  0
   12.1565    6.2329   20.3200 C   0  0  0  0  0  0  0  0  0  0  0  0
    6.7224    8.9191   20.7265 O   0  0  0  0  0  0  0  0  0  0  0  0
   13.8404    5.9884   18.8055 C   0  0  0  0  0  0  0  0  0  0  0  0
    8.3996    9.5221   17.1620 P   0  0  0  0  0  0  0  0  0  0  0  0
    9.4579    8.8219   16.5489 N   0  0  0  0  0  0  0  0  0  0  0  0
    6.0354    8.6501   23.4511 O   0  0  0  0  0  0  0  0  0  0  0  0
    7.7229    8.6618   20.5790 C   0  0  0  0  0  0  0  0  0  0  0  0
   13.5086    5.5648   19.9643 O   0  0  0  0  0  0  0  0  0  0  0  0
    8.3542    5.6661   15.3271 C   0  0  0  0  0  0  0  0  0  0  0  0
    8.5130    7.8883   21.5239 C   0  0  0  0  0  0  0  0  0  0  0  0
   11.5051    6.9310   19.3087 C   0  0  0  0  0  0  0  0  0  0  0  0
   10.2457    7.5199   19.6892 C   0  0  0  0  0  0  0  0  0  0  0  0
    9.8206    7.3162   21.0019 C   0  0  0  0  0  0  0  0  0  0  0  0
    9.3017    5.4632   14.6706 C   0  0  0  0  0  0  0  0  0  0  0  0
    9.4113    7.8033   15.8514 C   0  0  0  0  0  0  0  0  0  0  0  0
   10.3445    7.5816   15.0424 N   0  0  0  0  0  0  0  0  0  0  0  0
   10.0370    6.4192   23.1858 N   0  0  0  0  0  0  0  0  0  0  0  0
    7.0867    7.9007   23.7360 C   0  0  0  0  0  0  0  0  0  0  0  0
    9.0696    7.0422   23.6105 C   0  0  0  0  0  0  0  0  0  0  0  0
   11.7157    6.1441   21.5445 C   0  0  0  0  0  0  0  0  0  0  0  0
    9.5058    4.1442   13.7495 He  0  0  0  0  0  0  0  0  0  0  0  0
  1  5  1  0
  1 13  1  0
  2 16  1  0
  2 19  2  0
  2 23  1  0
  2 27  1  0
  2 28  1  0
  3 24  4  0
  4 16  2  0
  4 22  4  0
  4 26  1  0
  4 29  4  0
  5 10  3  0
  6  8  2  0
  7 11  1  0
  7 23  4  0
  7 25  4  0
  8 17  4  0
  8 24  3  0
  8 27  1  0
  9 13  2  0
 10 17  1  0
 10 18  4  0
 10 20  4  0
 10 29  4  0
 12 17  1  0
 12 29  1  0
 13 14  1  0
 14 24  1  0
 15 19  3  0
 15 25  4  0
 15 27  2  0
 16 19  1  0
 17 26  4  0
 18 23  4  0
 19 20  4  0
 19 22  1  0
 19 29  4  0
 20 21  4  0
 21 22  4  0
 21 24  2  0
 22 28  3  0
 24 25  4  0
 26 28  2  0
M  END
$$$$

 Created by Python create_sdf_string function

 30 33  0  0  0  0  0  0  0  0999 V2000
    8.2467    9.8800   18.4882 C   0  0  0  0  0  0  0  0  0  0  0  0
    8.1731    7.6361   22.8364 C   0  0  0  0  0  0  0  0  0  0  0  0
    8.2670    6.8581   16.0715 C   0  0  0  0  0  0  0  0  0  0  0  0
   10.5394    6.6077   21.9101 C   0  0  0  0  0  0  0  0  0  0  0  0
    8.2414    8.8620   19.3641 O   0  0  0  0  0  0  0  0  0  0  0  0
    8.5584    6.8810   25.0031 C   0  0  0  0  0  0  0  0  0  0  0  0
   10.3455    6.3240   14.3013 C   0  0  0  0  0  0  0  0  0  0  0  0
    7.2968    7.6104   25.0223 C   0  0  0  0  0  0  0  0  0  0  0  0
    7.7863   10.1665   16.1572 O   0  0  0  0  0  0  0  0  0  0  0  0
   12.2079    6.2138   20.2931 C   0  0  0  0  0  0  0  0  0  0  0  0
    6.6492    8.9637   20.7849 O   0  0  0  0  0  0  0  0  0  0  0  0
   13.9329    5.9789   18.7619 C   0  0  0  0  0  0  0  0  0  0  0  0
    8.4180    9.6064   16.9821 C   0  0  0  0  0  0  0  0  0  0  0  0
    9.4610    4.2035   13.7933 C   0  0  0  0  0  0  0  0  0  0  0  0
    9.4616    8.8029   16.6491 N   0  0  0  0  0  0  0  0  0  0  0  0
    6.0542    8.6020   23.3925 O   0  0  0  0  0  0  0  0  0  0  0  0
    7.7405    8.6625   20.5618 C   0  0  0  0  0  0  0  0  0  0  0  0
   13.4193    5.6401   20.0088 O   0  0  0  0  0  0  0  0  0  0  0  0
    8.3089    5.6229   15.3643 C   0  0  0  0  0  0  0  0  0  0  0  0
    8.5012    7.8497   21.5341 C   0  0  0  0  0  0  0  0  0  0  0  0
   11.5461    6.9114   19.3390 C   0  0  0  0  0  0  0  0  0  0  0  0
   10.2918    7.4746   19.6818 C   0  0  0  0  0  0  0  0  0  0  0  0
    9.7785    7.3194   20.9960 C   0  0  0  0  0  0  0  0  0  0  0  0
    9.3687    5.4223   14.5022 C   0  0  0  0  0  0  0  0  0  0  0  0
    9.3313    7.7257   15.8659 C   0  0  0  0  0  0  0  0  0  0  0  0
   10.3315    7.5177   14.9931 N   0  0  0  0  0  0  0  0  0  0  0  0
   10.1167    6.4342   23.2046 N   0  0  0  0  0  0  0  0  0  0  0  0
    7.0408    8.0435   23.6552 C   0  0  0  0  0  0  0  0  0  0  0  0
    9.0508    6.9025   23.6415 C   0  0  0  0  0  0  0  0  0  0  0  0
   11.7158    6.0562   21.5381 C   0  0  0  0  0  0  0  0  0  0  0  0
  1  5  1  0
  1 13  1  0
  2 20  2  0
  2 28  1  0
  2 29  1  0
  3 19  4  0
  3 25  4  0
  4 23  4  0
  4 27  1  0
  4 30  4  0
  5 17  1  0
  6  8  2  0
  6 29  1  0
  7 24  4  0
  7 26  4  0
  8 28  1  0
  9 13  2  0
 10 18  1  0
 10 21  4  0
 10 30  4  0
 11 17  2  0
 12 18  1  0
 13 15  1  0
 14 24  1  0
 15 25  1  0
 16 28  2  0
 17 20  1  0
 19 24  4  0
 20 23  1  0
 21 22  4  0
 22 23  4  0
 25 26  4  0
 27 29  2  0
M  END
$$$$

 Created by Python create_sdf_string function

 30 43  0  0  0  0  0  0  0  0999 V2000
    8.3221    9.8243   18.3208 C   0  0  0  0  0  0  0  0  0  0  0  0
   10.5931    6.7475   21.9089 C   0  0  0  0  0  0  0  0  0  0  0  0
    8.2387    8.9734   19.4484 O   0  0  0  0  0  0  0  0  0  0  0  0
    8.5136    6.9104   25.0456 C   0  0  0  0  0  0  0  0  0  0  0  0
   10.3772    6.3987   14.4629 C   0  0  0  0  0  0  0  0  0  0  0  0
    7.2536    7.5555   25.1618 C   0  0  0  0  0  0  0  0  0  0  0  0
    7.7124   10.1646   16.2171 O   0  0  0  0  0  0  0  0  0  0  0  0
   12.2550    6.2244   20.2969 C   0  0  0  0  0  0  0  0  0  0  0  0
    6.6346    8.8536   20.8017 O   0  0  0  0  0  0  0  0  0  0  0  0
   14.1469    5.9804   18.8225 C   0  0  0  0  0  0  0  0  0  0  0  0
    8.4919    9.6207   17.0539 C   0  0  0  0  0  0  0  0  0  0  0  0
    9.5868    4.1855   13.7061 C   0  0  0  0  0  0  0  0  0  0  0  0
    9.4548    8.7387   16.6782 N   0  0  0  0  0  0  0  0  0  0  0  0
    5.9571    8.7375   23.4305 O   0  0  0  0  0  0  0  0  0  0  0  0
    7.6386    8.6056   20.5140 C   0  0  0  0  0  0  0  0  0  0  0  0
   13.4854    5.6042   20.0933 O   0  0  0  0  0  0  0  0  0  0  0  0
    8.2987    5.5797   15.4624 C   0  0  0  0  0  0  0  0  0  0  0  0
    8.4722    7.9243   21.5551 C   0  0  0  0  0  0  0  0  0  0  0  0
   11.5876    6.9168   19.2628 C   0  0  0  0  0  0  0  0  0  0  0  0
   10.2771    7.4930   19.8579 C   0  0  0  0  0  0  0  0  0  0  0  0
    9.8170    7.3449   21.0206 C   0  0  0  0  0  0  0  0  0  0  0  0
    9.2025    5.4044   14.4551 C   0  0  0  0  0  0  0  0  0  0  0  0
    9.3773    7.7502   15.8851 C   0  0  0  0  0  0  0  0  0  0  0  0
   10.2229    7.5423   14.9093 N   0  0  0  0  0  0  0  0  0  0  0  0
   10.1925    6.4369   23.1645 N   0  0  0  0  0  0  0  0  0  0  0  0
    6.9988    8.0474   23.6296 F   0  0  0  0  0  0  0  0  0  0  0  0
    9.0318    6.9179   23.5452 C   0  0  0  0  0  0  0  0  0  0  0  0
   11.6264    6.0121   21.5898 C   0  0  0  0  0  0  0  0  0  0  0  0
    8.2267    7.4463   22.7349 He  0  0  0  0  0  0  0  0  0  0  0  0
    8.1852    6.9064   16.0445 He  0  0  0  0  0  0  0  0  0  0  0  0
  1  3  1  0
  1 11  1  0
  2 21  4  0
  2 25  1  0
  2 28  4  0
  3  7  2  0
  3 15  1  0
  4  6  2  0
  4 12  1  0
  4 25  4  0
  4 27  1  0
  5 22  4  0
  5 24  4  0
  6 26  1  0
  7 11  2  0
  7 24  4  0
  8 16  1  0
  8 19  4  0
  8 28  4  0
  9 10  1  0
  9 15  2  0
 10 16  1  0
 10 17  4  0
 11 13  1  0
 12 14  2  0
 12 16  2  0
 12 22  1  0
 13 23  1  0
 14 26  2  0
 14 27  1  0
 15 18  1  0
 15 24  2  0
 16 20  3  0
 16 22  3  0
 17 22  4  0
 17 28  4  0
 18 21  1  0
 19 20  4  0
 19 22  3  0
 20 21  4  0
 20 27  2  0
 23 24  4  0
 25 27  2  0
M  END
$$$$

 Created by Python create_sdf_string function

 30 33  0  0  0  0  0  0  0  0999 V2000
    8.2622    9.8513   18.4918 C   0  0  0  0  0  0  0  0  0  0  0  0
    8.1563    7.6435   22.7975 C   0  0  0  0  0  0  0  0  0  0  0  0
    8.2521    6.8731   16.0877 C   0  0  0  0  0  0  0  0  0  0  0  0
   10.5616    6.6233   21.9160 C   0  0  0  0  0  0  0  0  0  0  0  0
    8.2723    8.9811   19.4140 O   0  0  0  0  0  0  0  0  0  0  0  0
    8.5516    6.8681   24.9618 C   0  0  0  0  0  0  0  0  0  0  0  0
   10.3042    6.3459   14.3410 C   0  0  0  0  0  0  0  0  0  0  0  0
    7.2843    7.5521   25.0000 C   0  0  0  0  0  0  0  0  0  0  0  0
    7.7498   10.1777   16.2089 O   0  0  0  0  0  0  0  0  0  0  0  0
   12.2481    6.2093   20.3159 C   0  0  0  0  0  0  0  0  0  0  0  0
    6.5876    8.8762   20.7780 O   0  0  0  0  0  0  0  0  0  0  0  0
   14.1178    5.9816   18.8771 C   0  0  0  0  0  0  0  0  0  0  0  0
    8.4386    9.6198   17.0070 C   0  0  0  0  0  0  0  0  0  0  0  0
    9.4824    4.2027   13.7471 C   0  0  0  0  0  0  0  0  0  0  0  0
    9.4561    8.8100   16.6484 N   0  0  0  0  0  0  0  0  0  0  0  0
    6.0398    8.6663   23.3941 O   0  0  0  0  0  0  0  0  0  0  0  0
    7.6912    8.6487   20.5802 C   0  0  0  0  0  0  0  0  0  0  0  0
   13.4697    5.6418   20.0336 O   0  0  0  0  0  0  0  0  0  0  0  0
    8.2892    5.6325   15.3763 C   0  0  0  0  0  0  0  0  0  0  0  0
    8.5095    7.8691   21.5324 C   0  0  0  0  0  0  0  0  0  0  0  0
   11.5758    6.9103   19.3819 C   0  0  0  0  0  0  0  0  0  0  0  0
   10.3369    7.5000   19.7212 C   0  0  0  0  0  0  0  0  0  0  0  0
    9.8053    7.3479   21.0111 C   0  0  0  0  0  0  0  0  0  0  0  0
    9.3584    5.4261   14.5183 C   0  0  0  0  0  0  0  0  0  0  0  0
    9.3143    7.7303   15.8734 C   0  0  0  0  0  0  0  0  0  0  0  0
   10.3005    7.5170   14.9965 N   0  0  0  0  0  0  0  0  0  0  0  0
   10.1222    6.4790   23.2074 N   0  0  0  0  0  0  0  0  0  0  0  0
    7.0332    8.0250   23.6052 C   0  0  0  0  0  0  0  0  0  0  0  0
    9.0634    6.9275   23.6099 C   0  0  0  0  0  0  0  0  0  0  0  0
   11.7409    6.0657   21.5734 C   0  0  0  0  0  0  0  0  0  0  0  0
  1  5  1  0
  1 13  1  0
  2 20  2  0
  2 28  1  0
  2 29  1  0
  3 19  4  0
  3 25  4  0
  4 23  4  0
  4 27  1  0
  4 30  4  0
  5 17  1  0
  6  8  2  0
  6 29  1  0
  7 24  4  0
  7 26  4  0
  8 28  1  0
  9 13  2  0
 10 18  1  0
 10 21  4  0
 10 30  4  0
 11 17  2  0
 12 18  1  0
 13 15  1  0
 14 24  1  0
 15 25  1  0
 16 28  2  0
 17 20  1  0
 19 24  4  0
 20 23  1  0
 21 22  4  0
 22 23  4  0
 25 26  4  0
 27 29  2  0
M  END
$$$$

 Created by Python create_sdf_string function

 30 42  0  0  0  0  0  0  0  0999 V2000
    8.4343    9.7759   18.4747 C   0  0  0  0  0  0  0  0  0  0  0  0
    8.1395    7.5832   22.9460 C   0  0  0  0  0  0  0  0  0  0  0  0
   10.5389    6.6831   22.1270 C   0  0  0  0  0  0  0  0  0  0  0  0
    8.2795    9.0464   19.4144 O   0  0  0  0  0  0  0  0  0  0  0  0
    8.5078    6.7944   25.1256 C   0  0  0  0  0  0  0  0  0  0  0  0
   10.2607    6.3952   14.5708 C   0  0  0  0  0  0  0  0  0  0  0  0
    7.3577    7.5147   25.0842 C   0  0  0  0  0  0  0  0  0  0  0  0
    7.8626   10.1674   16.2758 O   0  0  0  0  0  0  0  0  0  0  0  0
   12.2547    6.1000   20.2688 C   0  0  0  0  0  0  0  0  0  0  0  0
    6.8316    8.8470   20.8037 O   0  0  0  0  0  0  0  0  0  0  0  0
   14.1059    5.9030   18.7980 C   0  0  0  0  0  0  0  0  0  0  0  0
    8.5864    9.5663   17.0594 C   0  0  0  0  0  0  0  0  0  0  0  0
    9.4229    4.1519   13.7086 C   0  0  0  0  0  0  0  0  0  0  0  0
    9.4752    8.8417   16.7243 N   0  0  0  0  0  0  0  0  0  0  0  0
    6.0115    8.5603   23.5180 O   0  0  0  0  0  0  0  0  0  0  0  0
    7.6608    8.7432   20.5367 C   0  0  0  0  0  0  0  0  0  0  0  0
   13.4078    5.6663   20.0025 O   0  0  0  0  0  0  0  0  0  0  0  0
    8.3413    5.5478   15.3845 C   0  0  0  0  0  0  0  0  0  0  0  0
    8.4681    7.8927   21.5518 C   0  0  0  0  0  0  0  0  0  0  0  0
   11.6003    6.9584   19.3928 C   0  0  0  0  0  0  0  0  0  0  0  0
   10.2921    7.3527   19.7862 C   0  0  0  0  0  0  0  0  0  0  0  0
    9.9851    7.4133   21.0477 C   0  0  0  0  0  0  0  0  0  0  0  0
    9.4351    5.4880   14.6205 C   0  0  0  0  0  0  0  0  0  0  0  0
    9.2909    7.6711   15.8308 C   0  0  0  0  0  0  0  0  0  0  0  0
   10.2714    7.4567   14.9699 N   0  0  0  0  0  0  0  0  0  0  0  0
    9.9696    6.4738   23.1091 N   0  0  0  0  0  0  0  0  0  0  0  0
    7.1151    8.0420   23.5077 C   0  0  0  0  0  0  0  0  0  0  0  0
    9.2222    6.8043   23.6262 C   0  0  0  0  0  0  0  0  0  0  0  0
   11.6476    6.1109   21.4751 C   0  0  0  0  0  0  0  0  0  0  0  0
    8.2922    6.8626   16.0985 He  0  0  0  0  0  0  0  0  0  0  0  0
  1  4  1  0
  1 12  1  0
  1 16  3  0
  2 19  2  0
  2 27  1  0
  2 28  1  0
  3  8  4  0
  3 22  4  0
  3 26  1  0
  3 29  4  0
  4 16  1  0
  5  7  2  0
  5 15  1  0
  5 18  4  0
  5 19  1  0
  5 28  1  0
  6 23  4  0
  6 25  4  0
  7 16  1  0
  7 27  1  0
  8 12  2  0
  9 17  1  0
  9 20  3  0
  9 29  4  0
 10 16  2  0
 10 20  4  0
 11 17  1  0
 12 13  2  0
 12 14  1  0
 13 18  2  0
 13 23  3  0
 14 23  1  0
 14 24  1  0
 15 27  2  0
 16 19  1  0
 18 23  4  0
 18 25  1  0
 19 22  1  0
 20 21  2  0
 21 22  1  0
 24 25  4  0
 26 28  2  0
M  END
$$$$

 Created by Python create_sdf_string function

 30 33  0  0  0  0  0  0  0  0999 V2000
    8.3911    9.8771   18.5353 C   0  0  0  0  0  0  0  0  0  0  0  0
    8.1830    7.6344   22.8616 C   0  0  0  0  0  0  0  0  0  0  0  0
    8.2870    6.8490   16.1095 C   0  0  0  0  0  0  0  0  0  0  0  0
   10.5969    6.6021   21.9412 C   0  0  0  0  0  0  0  0  0  0  0  0
    8.3623    8.9836   19.4259 O   0  0  0  0  0  0  0  0  0  0  0  0
    8.5529    6.7916   25.0078 C   0  0  0  0  0  0  0  0  0  0  0  0
   10.3388    6.3117   14.4110 C   0  0  0  0  0  0  0  0  0  0  0  0
    7.3213    7.5236   25.0511 C   0  0  0  0  0  0  0  0  0  0  0  0
    7.8473   10.1999   16.2660 O   0  0  0  0  0  0  0  0  0  0  0  0
   12.2497    6.1979   20.2992 C   0  0  0  0  0  0  0  0  0  0  0  0
    6.6964    8.9218   20.7929 O   0  0  0  0  0  0  0  0  0  0  0  0
   14.0920    5.9181   18.8330 C   0  0  0  0  0  0  0  0  0  0  0  0
    8.5221    9.6280   17.0553 C   0  0  0  0  0  0  0  0  0  0  0  0
    9.4197    4.2195   13.8012 C   0  0  0  0  0  0  0  0  0  0  0  0
    9.4988    8.7975   16.6694 N   0  0  0  0  0  0  0  0  0  0  0  0
    6.0401    8.5759   23.4571 O   0  0  0  0  0  0  0  0  0  0  0  0
    7.7818    8.6851   20.5928 C   0  0  0  0  0  0  0  0  0  0  0  0
   13.4400    5.6326   20.0006 O   0  0  0  0  0  0  0  0  0  0  0  0
    8.3110    5.6131   15.4236 C   0  0  0  0  0  0  0  0  0  0  0  0
    8.5712    7.8883   21.5711 C   0  0  0  0  0  0  0  0  0  0  0  0
   11.5498    6.8860   19.3721 C   0  0  0  0  0  0  0  0  0  0  0  0
   10.3261    7.4824   19.7262 C   0  0  0  0  0  0  0  0  0  0  0  0
    9.8324    7.3405   21.0408 C   0  0  0  0  0  0  0  0  0  0  0  0
    9.3739    5.4153   14.5691 C   0  0  0  0  0  0  0  0  0  0  0  0
    9.3437    7.7092   15.9102 C   0  0  0  0  0  0  0  0  0  0  0  0
   10.3324    7.4937   15.0473 N   0  0  0  0  0  0  0  0  0  0  0  0
   10.1383    6.4412   23.2204 N   0  0  0  0  0  0  0  0  0  0  0  0
    7.0547    8.0091   23.6732 C   0  0  0  0  0  0  0  0  0  0  0  0
    9.0824    6.8783   23.6521 C   0  0  0  0  0  0  0  0  0  0  0  0
   11.7693    6.0582   21.5592 C   0  0  0  0  0  0  0  0  0  0  0  0
  1  5  1  0
  1 13  1  0
  2 20  2  0
  2 28  1  0
  2 29  1  0
  3 19  4  0
  3 25  4  0
  4 23  4  0
  4 27  1  0
  4 30  4  0
  5 17  1  0
  6  8  2  0
  6 29  1  0
  7 24  4  0
  7 26  4  0
  8 28  1  0
  9 13  2  0
 10 18  1  0
 10 21  4  0
 10 30  4  0
 11 17  2  0
 12 18  1  0
 13 15  1  0
 14 24  1  0
 15 25  1  0
 16 28  2  0
 17 20  1  0
 19 24  4  0
 20 23  1  0
 21 22  4  0
 22 23  4  0
 25 26  4  0
 27 29  2  0
M  END
$$$$

 Created by Python create_sdf_string function

 30 43  0  0  0  0  0  0  0  0999 V2000
    8.3964    9.9782   18.4942 C   0  0  0  0  0  0  0  0  0  0  0  0
    8.2572    7.5860   22.7967 C   0  0  0  0  0  0  0  0  0  0  0  0
    8.2641    6.9516   16.1787 C   0  0  0  0  0  0  0  0  0  0  0  0
   10.6439    6.5077   21.9211 C   0  0  0  0  0  0  0  0  0  0  0  0
    8.3450    9.0366   19.4610 O   0  0  0  0  0  0  0  0  0  0  0  0
    8.5957    6.8218   25.0337 C   0  0  0  0  0  0  0  0  0  0  0  0
   10.2225    6.3196   14.4026 C   0  0  0  0  0  0  0  0  0  0  0  0
    7.3161    7.4466   25.0583 C   0  0  0  0  0  0  0  0  0  0  0  0
    7.8643   10.1912   16.1859 O   0  0  0  0  0  0  0  0  0  0  0  0
   12.3085    6.1652   20.2168 C   0  0  0  0  0  0  0  0  0  0  0  0
    6.6799    8.9892   20.7816 O   0  0  0  0  0  0  0  0  0  0  0  0
   14.0564    5.8814   18.8330 N   0  0  0  0  0  0  0  0  0  0  0  0
    8.4921    9.6791   17.0978 C   0  0  0  0  0  0  0  0  0  0  0  0
    9.4353    4.2693   13.8191 C   0  0  0  0  0  0  0  0  0  0  0  0
    9.4241    8.6276   16.6473 N   0  0  0  0  0  0  0  0  0  0  0  0
    6.0489    8.6035   23.5690 O   0  0  0  0  0  0  0  0  0  0  0  0
    7.7464    8.6861   20.4272 C   0  0  0  0  0  0  0  0  0  0  0  0
   13.4109    5.7021   19.9413 O   0  0  0  0  0  0  0  0  0  0  0  0
    8.3305    5.6414   15.4565 C   0  0  0  0  0  0  0  0  0  0  0  0
    8.5643    7.8321   21.6183 C   0  0  0  0  0  0  0  0  0  0  0  0
   11.6108    6.8592   19.4054 C   0  0  0  0  0  0  0  0  0  0  0  0
   10.3033    7.5656   19.6131 C   0  0  0  0  0  0  0  0  0  0  0  0
    9.7356    7.4104   21.1184 C   0  0  0  0  0  0  0  0  0  0  0  0
    9.3239    5.4376   14.6163 C   0  0  0  0  0  0  0  0  0  0  0  0
    9.3150    7.7332   15.9347 C   0  0  0  0  0  0  0  0  0  0  0  0
   10.2275    7.5272   15.0552 N   0  0  0  0  0  0  0  0  0  0  0  0
   10.1027    6.4873   23.2338 N   0  0  0  0  0  0  0  0  0  0  0  0
    7.0637    7.9584   23.6384 C   0  0  0  0  0  0  0  0  0  0  0  0
   11.7299    6.1604   21.5039 C   0  0  0  0  0  0  0  0  0  0  0  0
    9.2594    6.8941   23.7050 He  0  0  0  0  0  0  0  0  0  0  0  0
  1  5  1  0
  1 13  1  0
  2 20  2  0
  2 28  1  0
  3 19  4  0
  3 25  4  0
  4  8  2  0
  4 23  4  0
  4 27  1  0
  4 29  4  0
  5 10  2  0
  5 17  1  0
  5 19  3  0
  6 26  1  0
  7 24  4  0
  7 26  4  0
  8 28  1  0
  9 13  2  0
  9 19  4  0
 10 18  1  0
 10 21  4  0
 10 29  4  0
 11 17  2  0
 11 18  3  0
 12 13  2  0
 12 18  1  0
 12 19  4  0
 12 26  2  0
 12 29  1  0
 13 15  1  0
 13 19  3  0
 14 17  3  0
 14 24  1  0
 15 25  1  0
 16 28  2  0
 17 20  1  0
 19 24  4  0
 20 23  1  0
 20 24  2  0
 21 22  4  0
 22 23  4  0
 25 26  4  0
 26 28  3  0
M  END
$$$$

 Created by Python create_sdf_string function

 30 33  0  0  0  0  0  0  0  0999 V2000
    8.3304    9.9738   18.5270 C   0  0  0  0  0  0  0  0  0  0  0  0
    8.2139    7.6270   22.8370 C   0  0  0  0  0  0  0  0  0  0  0  0
    8.2549    6.8505   16.1660 C   0  0  0  0  0  0  0  0  0  0  0  0
   10.6199    6.6159   21.8937 C   0  0  0  0  0  0  0  0  0  0  0  0
    8.3797    9.0283   19.4287 O   0  0  0  0  0  0  0  0  0  0  0  0
    8.6325    6.8065   25.0095 C   0  0  0  0  0  0  0  0  0  0  0  0
   10.2701    6.3327   14.3874 C   0  0  0  0  0  0  0  0  0  0  0  0
    7.3149    7.4489   25.0398 C   0  0  0  0  0  0  0  0  0  0  0  0
    7.8598   10.2183   16.2054 O   0  0  0  0  0  0  0  0  0  0  0  0
   12.2607    6.2230   20.2665 C   0  0  0  0  0  0  0  0  0  0  0  0
    6.6939    8.9858   20.7957 O   0  0  0  0  0  0  0  0  0  0  0  0
   14.0588    5.8916   18.8279 C   0  0  0  0  0  0  0  0  0  0  0  0
    8.5034    9.6687   17.0473 C   0  0  0  0  0  0  0  0  0  0  0  0
    9.3935    4.2266   13.8318 C   0  0  0  0  0  0  0  0  0  0  0  0
    9.4687    8.7928   16.7201 N   0  0  0  0  0  0  0  0  0  0  0  0
    6.0790    8.5859   23.4797 O   0  0  0  0  0  0  0  0  0  0  0  0
    7.7915    8.7011   20.5897 C   0  0  0  0  0  0  0  0  0  0  0  0
   13.4879    5.6444   19.9619 O   0  0  0  0  0  0  0  0  0  0  0  0
    8.2762    5.6275   15.4735 C   0  0  0  0  0  0  0  0  0  0  0  0
    8.5649    7.8638   21.5477 C   0  0  0  0  0  0  0  0  0  0  0  0
   11.5636    6.9161   19.3485 C   0  0  0  0  0  0  0  0  0  0  0  0
   10.3387    7.4963   19.6874 C   0  0  0  0  0  0  0  0  0  0  0  0
    9.8421    7.3355   20.9944 C   0  0  0  0  0  0  0  0  0  0  0  0
    9.3146    5.4314   14.5883 C   0  0  0  0  0  0  0  0  0  0  0  0
    9.3037    7.7226   15.9427 C   0  0  0  0  0  0  0  0  0  0  0  0
   10.2619    7.5045   15.0595 N   0  0  0  0  0  0  0  0  0  0  0  0
   10.1895    6.4588   23.1911 N   0  0  0  0  0  0  0  0  0  0  0  0
    7.0799    7.9715   23.6769 C   0  0  0  0  0  0  0  0  0  0  0  0
    9.1540    6.9152   23.6382 C   0  0  0  0  0  0  0  0  0  0  0  0
   11.7790    6.0681   21.5260 C   0  0  0  0  0  0  0  0  0  0  0  0
  1  5  1  0
  1 13  1  0
  2 20  2  0
  2 28  1  0
  2 29  1  0
  3 19  4  0
  3 25  4  0
  4 23  4  0
  4 27  1  0
  4 30  4  0
  5 17  1  0
  6  8  1  0
  6 29  1  0
  7 24  4  0
  7 26  4  0
  8 28  1  0
  9 13  2  0
 10 18  1  0
 10 21  4  0
 10 30  4  0
 11 17  2  0
 12 18  1  0
 13 15  1  0
 14 24  1  0
 15 25  1  0
 16 28  2  0
 17 20  1  0
 19 24  4  0
 20 23  1  0
 21 22  4  0
 22 23  4  0
 25 26  4  0
 27 29  2  0
M  END
$$$$

 Created by Python create_sdf_string function

 30 41  0  0  0  0  0  0  0  0999 V2000
    8.3388    9.8526   18.5641 C   0  0  0  0  0  0  0  0  0  0  0  0
    8.0686    7.6778   22.7777 C   0  0  0  0  0  0  0  0  0  0  0  0
    8.2939    6.7854   16.2285 C   0  0  0  0  0  0  0  0  0  0  0  0
   10.5953    6.5645   21.9559 C   0  0  0  0  0  0  0  0  0  0  0  0
    8.3570    8.9339   19.5086 O   0  0  0  0  0  0  0  0  0  0  0  0
    8.5426    6.6684   24.9992 C   0  0  0  0  0  0  0  0  0  0  0  0
   10.3373    6.4532   14.3481 C   0  0  0  0  0  0  0  0  0  0  0  0
    7.3813    7.4090   25.0598 C   0  0  0  0  0  0  0  0  0  0  0  0
    7.8907   10.1796   16.1475 O   0  0  0  0  0  0  0  0  0  0  0  0
   12.1983    6.2316   20.2287 C   0  0  0  0  0  0  0  0  0  0  0  0
    6.8241    9.0519   20.7753 O   0  0  0  0  0  0  0  0  0  0  0  0
   14.1588    5.9372   18.8399 C   0  0  0  0  0  0  0  0  0  0  0  0
    8.4283    9.4500   17.1554 C   0  0  0  0  0  0  0  0  0  0  0  0
    9.3727    4.2953   13.8638 C   0  0  0  0  0  0  0  0  0  0  0  0
    9.5198    8.7310   16.7248 N   0  0  0  0  0  0  0  0  0  0  0  0
    6.0834    8.6709   23.4686 O   0  0  0  0  0  0  0  0  0  0  0  0
    7.9082    8.7414   20.6047 C   0  0  0  0  0  0  0  0  0  0  0  0
   13.3751    5.6059   19.9147 O   0  0  0  0  0  0  0  0  0  0  0  0
    8.1597    5.6135   15.6275 S   0  0  0  0  0  0  0  0  0  0  0  0
    8.5774    7.9112   21.5267 C   0  0  0  0  0  0  0  0  0  0  0  0
   11.5525    6.9305   19.3616 C   0  0  0  0  0  0  0  0  0  0  0  0
   10.3655    7.3730   19.6515 C   0  0  0  0  0  0  0  0  0  0  0  0
    9.9401    7.3316   20.8938 C   0  0  0  0  0  0  0  0  0  0  0  0
    9.3739    5.4442   14.5229 C   0  0  0  0  0  0  0  0  0  0  0  0
    9.2267    7.6212   16.0568 C   0  0  0  0  0  0  0  0  0  0  0  0
   10.2144    7.5927   15.0985 N   0  0  0  0  0  0  0  0  0  0  0  0
   10.2221    6.5545   23.2037 N   0  0  0  0  0  0  0  0  0  0  0  0
    7.0120    8.0107   23.7449 C   0  0  0  0  0  0  0  0  0  0  0  0
    9.1718    6.8556   23.6347 C   0  0  0  0  0  0  0  0  0  0  0  0
   11.7814    6.0297   21.5656 C   0  0  0  0  0  0  0  0  0  0  0  0
  1  5  1  0
  1 13  1  0
  2 20  2  0
  2 28  1  0
  2 29  1  0
  3 19  4  0
  3 25  4  0
  4  7  2  0
  4 10  3  0
  4 23  4  0
  4 27  1  0
  4 30  4  0
  5 13  4  0
  6  8  1  0
  6 11  2  0
  6 16  3  0
  6 29  1  0
  7 24  4  0
  7 26  4  0
  9 13  2  0
 10 18  1  0
 10 21  4  0
 10 30  4  0
 11 12  3  0
 11 17  2  0
 11 24  4  0
 12 18  1  0
 13 15  1  0
 14 24  1  0
 15 25  1  0
 16 28  2  0
 17 20  1  0
 19 24  4  0
 20 23  1  0
 20 24  2  0
 20 25  3  0
 21 22  4  0
 22 23  4  0
 25 26  4  0
 25 30  3  0
 27 29  2  0
M  END
$$$$

 Created by Python create_sdf_string function

 30 33  0  0  0  0  0  0  0  0999 V2000
    8.2862    9.9037   18.5276 C   0  0  0  0  0  0  0  0  0  0  0  0
    8.1912    7.6414   22.8313 C   0  0  0  0  0  0  0  0  0  0  0  0
    8.2798    6.7772   16.2469 C   0  0  0  0  0  0  0  0  0  0  0  0
   10.6318    6.6141   21.8755 C   0  0  0  0  0  0  0  0  0  0  0  0
    8.4339    8.9283   19.4465 O   0  0  0  0  0  0  0  0  0  0  0  0
    8.5835    6.6793   24.9682 C   0  0  0  0  0  0  0  0  0  0  0  0
   10.2630    6.3901   14.3699 C   0  0  0  0  0  0  0  0  0  0  0  0
    7.3093    7.4348   25.0489 C   0  0  0  0  0  0  0  0  0  0  0  0
    7.8800   10.1659   16.1930 O   0  0  0  0  0  0  0  0  0  0  0  0
   12.2667    6.1872   20.2505 C   0  0  0  0  0  0  0  0  0  0  0  0
    6.7944    9.0829   20.8323 O   0  0  0  0  0  0  0  0  0  0  0  0
   14.1549    5.9540   18.8429 C   0  0  0  0  0  0  0  0  0  0  0  0
    8.4831    9.5854   17.0668 C   0  0  0  0  0  0  0  0  0  0  0  0
    9.3792    4.2639   13.8128 C   0  0  0  0  0  0  0  0  0  0  0  0
    9.4827    8.7478   16.7857 N   0  0  0  0  0  0  0  0  0  0  0  0
    6.0946    8.6453   23.4850 O   0  0  0  0  0  0  0  0  0  0  0  0
    7.8617    8.7136   20.6120 C   0  0  0  0  0  0  0  0  0  0  0  0
   13.4432    5.6043   19.9354 O   0  0  0  0  0  0  0  0  0  0  0  0
    8.2771    5.5432   15.4965 C   0  0  0  0  0  0  0  0  0  0  0  0
    8.6101    7.8812   21.5407 C   0  0  0  0  0  0  0  0  0  0  0  0
   11.5933    6.8673   19.3189 C   0  0  0  0  0  0  0  0  0  0  0  0
   10.3530    7.4309   19.6550 C   0  0  0  0  0  0  0  0  0  0  0  0
    9.8723    7.3180   20.9586 C   0  0  0  0  0  0  0  0  0  0  0  0
    9.3173    5.4392   14.5768 C   0  0  0  0  0  0  0  0  0  0  0  0
    9.3129    7.6830   16.0040 C   0  0  0  0  0  0  0  0  0  0  0  0
   10.2591    7.5252   15.0713 N   0  0  0  0  0  0  0  0  0  0  0  0
   10.1876    6.4842   23.1693 N   0  0  0  0  0  0  0  0  0  0  0  0
    7.0660    7.9983   23.7024 C   0  0  0  0  0  0  0  0  0  0  0  0
    9.1104    6.8891   23.6124 C   0  0  0  0  0  0  0  0  0  0  0  0
   11.8028    6.0476   21.5178 C   0  0  0  0  0  0  0  0  0  0  0  0
  1  5  1  0
  1 13  1  0
  2 20  2  0
  2 28  1  0
  2 29  1  0
  3 19  4  0
  3 25  4  0
  4 23  4  0
  4 27  1  0
  4 30  4  0
  5 17  1  0
  6  8  1  0
  6 29  1  0
  7 24  4  0
  7 26  4  0
  8 28  1  0
  9 13  2  0
 10 18  1  0
 10 21  4  0
 10 30  4  0
 11 17  2  0
 12 18  1  0
 13 15  1  0
 14 24  1  0
 15 25  1  0
 16 28  2  0
 17 20  1  0
 19 24  4  0
 20 23  1  0
 21 22  4  0
 22 23  4  0
 25 26  4  0
 27 29  2  0
M  END
$$$$

 Created by Python create_sdf_string function

 30 31  0  0  0  0  0  0  0  0999 V2000
    8.3501    9.8355   18.5387 C   0  0  0  0  0  0  0  0  0  0  0  0
    8.1442    7.5973   22.8535 C   0  0  0  0  0  0  0  0  0  0  0  0
    8.3750    6.7740   16.2594 C   0  0  0  0  0  0  0  0  0  0  0  0
   10.6030    6.5454   21.8435 C   0  0  0  0  0  0  0  0  0  0  0  0
    8.4443    8.8895   19.3408 O   0  0  0  0  0  0  0  0  0  0  0  0
    8.5936    6.6425   25.0069 C   0  0  0  0  0  0  0  0  0  0  0  0
   10.2247    6.5232   14.3416 C   0  0  0  0  0  0  0  0  0  0  0  0
    7.2759    7.5735   25.0736 C   0  0  0  0  0  0  0  0  0  0  0  0
    7.9853   10.1542   16.1816 O   0  0  0  0  0  0  0  0  0  0  0  0
   12.2624    6.2340   20.3299 C   0  0  0  0  0  0  0  0  0  0  0  0
    6.8206    8.9975   20.8539 O   0  0  0  0  0  0  0  0  0  0  0  0
   14.2224    5.9509   18.8528 C   0  0  0  0  0  0  0  0  0  0  0  0
    8.4484    9.6223   17.0599 C   0  0  0  0  0  0  0  0  0  0  0  0
    9.4060    4.3332   13.8014 C   0  0  0  0  0  0  0  0  0  0  0  0
    9.3638    8.6818   16.8360 N   0  0  0  0  0  0  0  0  0  0  0  0
    6.0680    8.6393   23.4619 O   0  0  0  0  0  0  0  0  0  0  0  0
    7.8109    8.7179   20.6030 C   0  0  0  0  0  0  0  0  0  0  0  0
   13.5044    5.6108   19.8678 O   0  0  0  0  0  0  0  0  0  0  0  0
    8.3596    5.5641   15.5235 C   0  0  0  0  0  0  0  0  0  0  0  0
    8.6346    8.0259   21.5396 C   0  0  0  0  0  0  0  0  0  0  0  0
   11.6460    6.8263   19.3296 C   0  0  0  0  0  0  0  0  0  0  0  0
    9.9222    7.4144   20.9026 C   0  0  0  0  0  0  0  0  0  0  0  0
    9.3147    5.5050   14.5683 C   0  0  0  0  0  0  0  0  0  0  0  0
    9.2754    7.6037   16.0518 C   0  0  0  0  0  0  0  0  0  0  0  0
   10.2130    6.4703   23.1090 N   0  0  0  0  0  0  0  0  0  0  0  0
    7.0464    7.9949   23.6543 C   0  0  0  0  0  0  0  0  0  0  0  0
    9.0804    6.8506   23.6510 C   0  0  0  0  0  0  0  0  0  0  0  0
   11.7924    6.1303   21.4964 C   0  0  0  0  0  0  0  0  0  0  0  0
   10.3477    7.4490   19.5839 He  0  0  0  0  0  0  0  0  0  0  0  0
   10.3129    7.4645   15.0664 He  0  0  0  0  0  0  0  0  0  0  0  0
  1  5  1  0
  1 13  1  0
  2 20  2  0
  2 24  1  0
  2 26  1  0
  2 27  1  0
  3 19  4  0
  3 20  4  0
  3 24  4  0
  4 22  4  0
  4 25  1  0
  4 28  4  0
  5 17  1  0
  6  8  1  0
  6 27  1  0
  8  9  3  0
  8 26  1  0
  9 13  2  0
 10 18  1  0
 10 21  4  0
 11 17  2  0
 12 18  1  0
 13 15  1  0
 14 23  1  0
 15 24  1  0
 16 26  2  0
 17 20  1  0
 18 22  1  0
 19 23  4  0
 20 22  1  0
 25 27  2  0
M  END
$$$$

 Created by Python create_sdf_string function

 30 33  0  0  0  0  0  0  0  0999 V2000
    8.2838    9.8990   18.5248 C   0  0  0  0  0  0  0  0  0  0  0  0
    8.2037    7.6445   22.8043 C   0  0  0  0  0  0  0  0  0  0  0  0
    8.3485    6.7294   16.2736 C   0  0  0  0  0  0  0  0  0  0  0  0
   10.6393    6.6262   21.8420 C   0  0  0  0  0  0  0  0  0  0  0  0
    8.4264    8.8694   19.3900 O   0  0  0  0  0  0  0  0  0  0  0  0
    8.5844    6.6649   24.9951 C   0  0  0  0  0  0  0  0  0  0  0  0
   10.2534    6.4046   14.3211 C   0  0  0  0  0  0  0  0  0  0  0  0
    7.2984    7.5306   25.0475 C   0  0  0  0  0  0  0  0  0  0  0  0
    7.9601   10.1871   16.1794 O   0  0  0  0  0  0  0  0  0  0  0  0
   12.3088    6.2006   20.2492 C   0  0  0  0  0  0  0  0  0  0  0  0
    6.7927    9.0380   20.8458 O   0  0  0  0  0  0  0  0  0  0  0  0
   14.2195    5.9753   18.8427 C   0  0  0  0  0  0  0  0  0  0  0  0
    8.5096    9.6167   17.0613 C   0  0  0  0  0  0  0  0  0  0  0  0
    9.3744    4.3033   13.7662 C   0  0  0  0  0  0  0  0  0  0  0  0
    9.4458    8.7158   16.8436 N   0  0  0  0  0  0  0  0  0  0  0  0
    6.0858    8.6268   23.4270 O   0  0  0  0  0  0  0  0  0  0  0  0
    7.8779    8.7093   20.5992 C   0  0  0  0  0  0  0  0  0  0  0  0
   13.5138    5.6286   19.9305 O   0  0  0  0  0  0  0  0  0  0  0  0
    8.3660    5.5563   15.4928 C   0  0  0  0  0  0  0  0  0  0  0  0
    8.6521    7.9355   21.5401 C   0  0  0  0  0  0  0  0  0  0  0  0
   11.6320    6.8580   19.3073 C   0  0  0  0  0  0  0  0  0  0  0  0
   10.3944    7.4559   19.6127 C   0  0  0  0  0  0  0  0  0  0  0  0
    9.8994    7.3599   20.9257 C   0  0  0  0  0  0  0  0  0  0  0  0
    9.3272    5.4442   14.5354 C   0  0  0  0  0  0  0  0  0  0  0  0
    9.3343    7.6632   16.0370 C   0  0  0  0  0  0  0  0  0  0  0  0
   10.2874    7.5351   15.0949 C   0  0  0  0  0  0  0  0  0  0  0  0
   10.1645    6.4437   23.1131 N   0  0  0  0  0  0  0  0  0  0  0  0
    7.0779    8.0136   23.6528 C   0  0  0  0  0  0  0  0  0  0  0  0
    9.1090    6.8658   23.5736 C   0  0  0  0  0  0  0  0  0  0  0  0
   11.8161    6.0777   21.5026 C   0  0  0  0  0  0  0  0  0  0  0  0
  1  5  1  0
  1 13  1  0
  2 20  2  0
  2 28  1  0
  2 29  1  0
  3 19  4  0
  3 25  4  0
  4 23  4  0
  4 27  1  0
  4 30  4  0
  5 17  1  0
  6  8  1  0
  6 29  1  0
  7 24  4  0
  7 26  4  0
  8 28  1  0
  9 13  2  0
 10 18  1  0
 10 21  4  0
 10 30  4  0
 11 17  2  0
 12 18  1  0
 13 15  1  0
 14 24  1  0
 15 25  1  0
 16 28  2  0
 17 20  1  0
 19 24  4  0
 20 23  1  0
 21 22  4  0
 22 23  4  0
 25 26  4  0
 27 29  2  0
M  END
$$$$

 Created by Python create_sdf_string function

 30 39  0  0  0  0  0  0  0  0999 V2000
    8.2811    9.8670   18.6122 C   0  0  0  0  0  0  0  0  0  0  0  0
    8.1902    7.7976   22.7924 C   0  0  0  0  0  0  0  0  0  0  0  0
    8.3172    6.6915   16.2191 C   0  0  0  0  0  0  0  0  0  0  0  0
   10.6024    6.5833   21.7867 C   0  0  0  0  0  0  0  0  0  0  0  0
    8.3440    8.8492   19.3971 O   0  0  0  0  0  0  0  0  0  0  0  0
    8.4624    6.7267   24.9737 C   0  0  0  0  0  0  0  0  0  0  0  0
   10.2758    6.4400   14.3246 C   0  0  0  0  0  0  0  0  0  0  0  0
    7.2784    7.5865   25.0847 C   0  0  0  0  0  0  0  0  0  0  0  0
    7.9021   10.1973   16.2215 O   0  0  0  0  0  0  0  0  0  0  0  0
   12.2888    6.2991   20.3298 C   0  0  0  0  0  0  0  0  0  0  0  0
    6.7201    9.0341   20.8736 O   0  0  0  0  0  0  0  0  0  0  0  0
   14.2435    6.0040   18.8622 C   0  0  0  0  0  0  0  0  0  0  0  0
    8.4580    9.6028   17.0709 C   0  0  0  0  0  0  0  0  0  0  0  0
    9.4021    4.2724   13.8301 C   0  0  0  0  0  0  0  0  0  0  0  0
    9.3464    8.6520   16.8920 N   0  0  0  0  0  0  0  0  0  0  0  0
    6.1637    8.6307   23.3854 O   0  0  0  0  0  0  0  0  0  0  0  0
    7.8966    8.7322   20.6982 C   0  0  0  0  0  0  0  0  0  0  0  0
   13.5349    5.6088   19.8652 O   0  0  0  0  0  0  0  0  0  0  0  0
    8.4063    5.5673   15.4584 C   0  0  0  0  0  0  0  0  0  0  0  0
    8.6826    7.9230   21.4922 C   0  0  0  0  0  0  0  0  0  0  0  0
   11.5445    6.8648   19.2006 C   0  0  0  0  0  0  0  0  0  0  0  0
   10.2974    7.4259   19.5895 C   0  0  0  0  0  0  0  0  0  0  0  0
    9.9804    7.3770   21.0351 C   0  0  0  0  0  0  0  0  0  0  0  0
    9.2932    7.5910   16.0892 C   0  0  0  0  0  0  0  0  0  0  0  0
   10.2679    7.6009   15.0397 C   0  0  0  0  0  0  0  0  0  0  0  0
   10.1075    6.3586   23.1606 N   0  0  0  0  0  0  0  0  0  0  0  0
    7.0079    7.9868   23.5375 C   0  0  0  0  0  0  0  0  0  0  0  0
    9.2381    6.8898   23.5856 C   0  0  0  0  0  0  0  0  0  0  0  0
   11.9204    6.0824   21.4485 C   0  0  0  0  0  0  0  0  0  0  0  0
    9.2669    5.4431   14.5333 He  0  0  0  0  0  0  0  0  0  0  0  0
  1  5  1  0
  1 13  1  0
  1 18  4  0
  1 28  4  0
  2 10  4  0
  2 20  2  0
  2 27  1  0
  2 28  1  0
  3 13  2  0
  3 19  4  0
  3 24  4  0
  4 23  4  0
  4 26  1  0
  4 29  4  0
  5 17  1  0
  6  8  1  0
  6 28  1  0
  7 25  4  0
  8 27  1  0
  9 13  2  0
 10 18  1  0
 10 21  4  0
 10 29  4  0
 11 17  2  0
 12 18  1  0
 12 26  2  0
 13 15  1  0
 13 22  3  0
 15 18  2  0
 15 24  1  0
 15 27  1  0
 16 27  2  0
 17 20  1  0
 20 23  1  0
 21 22  4  0
 22 23  4  0
 24 25  4  0
 26 28  2  0
 26 29  1  0
M  END
$$$$

 Created by Python create_sdf_string function

 30 33  0  0  0  0  0  0  0  0999 V2000
    8.2281    9.9287   18.5505 C   0  0  0  0  0  0  0  0  0  0  0  0
    8.2522    7.7031   22.8027 C   0  0  0  0  0  0  0  0  0  0  0  0
    8.3288    6.7002   16.2546 C   0  0  0  0  0  0  0  0  0  0  0  0
   10.6755    6.5961   21.8253 C   0  0  0  0  0  0  0  0  0  0  0  0
    8.3399    8.8645   19.4016 O   0  0  0  0  0  0  0  0  0  0  0  0
    8.5391    6.7025   24.9782 C   0  0  0  0  0  0  0  0  0  0  0  0
   10.2604    6.3888   14.2999 C   0  0  0  0  0  0  0  0  0  0  0  0
    7.2759    7.5688   25.0257 C   0  0  0  0  0  0  0  0  0  0  0  0
    7.9144   10.1980   16.2089 O   0  0  0  0  0  0  0  0  0  0  0  0
   12.3282    6.2196   20.2011 C   0  0  0  0  0  0  0  0  0  0  0  0
    6.7607    9.0572   20.8735 O   0  0  0  0  0  0  0  0  0  0  0  0
   14.2503    6.0323   18.8358 C   0  0  0  0  0  0  0  0  0  0  0  0
    8.4792    9.6127   17.0868 C   0  0  0  0  0  0  0  0  0  0  0  0
    9.3866    4.2740   13.7859 C   0  0  0  0  0  0  0  0  0  0  0  0
    9.4157    8.7000   16.8812 N   0  0  0  0  0  0  0  0  0  0  0  0
    6.1100    8.6399   23.3601 O   0  0  0  0  0  0  0  0  0  0  0  0
    7.8662    8.7036   20.6254 C   0  0  0  0  0  0  0  0  0  0  0  0
   13.5413    5.6560   19.9010 O   0  0  0  0  0  0  0  0  0  0  0  0
    8.3697    5.5463   15.4590 C   0  0  0  0  0  0  0  0  0  0  0  0
    8.6782    7.9244   21.5093 C   0  0  0  0  0  0  0  0  0  0  0  0
   11.6147    6.8671   19.2558 C   0  0  0  0  0  0  0  0  0  0  0  0
   10.3701    7.4325   19.6156 C   0  0  0  0  0  0  0  0  0  0  0  0
    9.9173    7.3268   20.9312 C   0  0  0  0  0  0  0  0  0  0  0  0
    9.3466    5.4270   14.5152 C   0  0  0  0  0  0  0  0  0  0  0  0
    9.3061    7.6572   16.0432 C   0  0  0  0  0  0  0  0  0  0  0  0
   10.2520    7.5401   15.0678 C   0  0  0  0  0  0  0  0  0  0  0  0
   10.1769    6.4098   23.1003 N   0  0  0  0  0  0  0  0  0  0  0  0
    7.0749    8.0423   23.6168 C   0  0  0  0  0  0  0  0  0  0  0  0
    9.1297    6.9066   23.5712 C   0  0  0  0  0  0  0  0  0  0  0  0
   11.8721    6.0683   21.4732 C   0  0  0  0  0  0  0  0  0  0  0  0
  1  5  1  0
  1 13  1  0
  2 20  2  0
  2 28  1  0
  2 29  1  0
  3 19  4  0
  3 25  4  0
  4 23  4  0
  4 27  1  0
  4 30  4  0
  5 17  1  0
  6  8  1  0
  6 29  1  0
  7 24  4  0
  7 26  4  0
  8 28  1  0
  9 13  2  0
 10 18  1  0
 10 21  4  0
 10 30  4  0
 11 17  2  0
 12 18  1  0
 13 15  1  0
 14 24  1  0
 15 25  1  0
 16 28  2  0
 17 20  1  0
 19 24  4  0
 20 23  1  0
 21 22  4  0
 22 23  4  0
 25 26  4  0
 27 29  2  0
M  END
$$$$

 Created by Python create_sdf_string function

 30 35  0  0  0  0  0  0  0  0999 V2000
    8.2107    9.8853   18.6094 C   0  0  0  0  0  0  0  0  0  0  0  0
    8.1604    7.7723   22.7924 C   0  0  0  0  0  0  0  0  0  0  0  0
    8.3721    6.7433   16.2407 C   0  0  0  0  0  0  0  0  0  0  0  0
   10.7140    6.5522   21.8763 C   0  0  0  0  0  0  0  0  0  0  0  0
    8.3011    8.8279   19.4656 O   0  0  0  0  0  0  0  0  0  0  0  0
    8.4514    6.6946   24.9423 C   0  0  0  0  0  0  0  0  0  0  0  0
   10.2302    6.4112   14.3073 C   0  0  0  0  0  0  0  0  0  0  0  0
    7.3570    7.6141   25.0908 C   0  0  0  0  0  0  0  0  0  0  0  0
    7.9271   10.0642   16.1858 O   0  0  0  0  0  0  0  0  0  0  0  0
    6.8570    9.0446   20.8800 O   0  0  0  0  0  0  0  0  0  0  0  0
   14.2307    6.0031   18.9068 C   0  0  0  0  0  0  0  0  0  0  0  0
    8.5493    9.5876   17.0913 C   0  0  0  0  0  0  0  0  0  0  0  0
    9.4576    4.3127   13.7800 C   0  0  0  0  0  0  0  0  0  0  0  0
    9.3916    8.7081   16.8621 N   0  0  0  0  0  0  0  0  0  0  0  0
    6.1195    8.6514   23.3144 O   0  0  0  0  0  0  0  0  0  0  0  0
    7.8606    8.7447   20.5946 C   0  0  0  0  0  0  0  0  0  0  0  0
   13.6230    5.6533   19.8840 O   0  0  0  0  0  0  0  0  0  0  0  0
    8.3047    5.5704   15.4139 C   0  0  0  0  0  0  0  0  0  0  0  0
    8.7075    7.9975   21.4476 C   0  0  0  0  0  0  0  0  0  0  0  0
   11.5971    6.8162   19.2533 C   0  0  0  0  0  0  0  0  0  0  0  0
   10.4273    7.4220   19.6301 C   0  0  0  0  0  0  0  0  0  0  0  0
    9.9684    7.2796   20.9173 C   0  0  0  0  0  0  0  0  0  0  0  0
    9.4166    5.5181   14.4882 C   0  0  0  0  0  0  0  0  0  0  0  0
    9.2523    7.6286   16.0158 C   0  0  0  0  0  0  0  0  0  0  0  0
   10.3309    7.5504   15.1363 C   0  0  0  0  0  0  0  0  0  0  0  0
   10.1628    6.3045   23.1085 N   0  0  0  0  0  0  0  0  0  0  0  0
    7.0352    7.9990   23.6030 C   0  0  0  0  0  0  0  0  0  0  0  0
    9.1491    6.9508   23.5772 C   0  0  0  0  0  0  0  0  0  0  0  0
   11.8616    6.1067   21.4660 C   0  0  0  0  0  0  0  0  0  0  0  0
   12.3165    6.2245   20.2155 He  0  0  0  0  0  0  0  0  0  0  0  0
  1  5  1  0
  1 12  1  0
  1 25  4  0
  2 19  2  0
  2 22  2  0
  2 27  1  0
  2 28  1  0
  3 18  4  0
  3 24  4  0
  4 22  4  0
  4 26  1  0
  4 29  4  0
  5 16  1  0
  6  8  1  0
  6 28  1  0
  7 21  3  0
  7 23  4  0
  7 25  4  0
  8 27  1  0
  9 12  2  0
 10 16  2  0
 11 17  1  0
 12 14  1  0
 12 24  4  0
 13 23  1  0
 14 24  1  0
 15 27  2  0
 16 19  1  0
 18 23  4  0
 19 22  1  0
 20 21  4  0
 21 22  4  0
 24 25  4  0
 25 26  3  0
 26 28  2  0
M  END
$$$$

 Created by Python create_sdf_string function

 30 33  0  0  0  0  0  0  0  0999 V2000
    8.1999    9.9161   18.5362 C   0  0  0  0  0  0  0  0  0  0  0  0
    8.2598    7.7065   22.7887 C   0  0  0  0  0  0  0  0  0  0  0  0
    8.3365    6.7325   16.2232 C   0  0  0  0  0  0  0  0  0  0  0  0
   10.6992    6.5730   21.8210 C   0  0  0  0  0  0  0  0  0  0  0  0
    8.3197    8.8495   19.3796 O   0  0  0  0  0  0  0  0  0  0  0  0
    8.5284    6.6825   24.9350 C   0  0  0  0  0  0  0  0  0  0  0  0
   10.2881    6.3866   14.3133 C   0  0  0  0  0  0  0  0  0  0  0  0
    7.3285    7.6048   25.0316 C   0  0  0  0  0  0  0  0  0  0  0  0
    7.9235   10.0885   16.1769 O   0  0  0  0  0  0  0  0  0  0  0  0
   12.3670    6.1938   20.2104 C   0  0  0  0  0  0  0  0  0  0  0  0
    6.8240    9.0813   20.8896 O   0  0  0  0  0  0  0  0  0  0  0  0
   14.2490    6.0361   18.8504 C   0  0  0  0  0  0  0  0  0  0  0  0
    8.5096    9.5866   17.0872 C   0  0  0  0  0  0  0  0  0  0  0  0
    9.4256    4.2892   13.7405 C   0  0  0  0  0  0  0  0  0  0  0  0
    9.4533    8.7116   16.8881 N   0  0  0  0  0  0  0  0  0  0  0  0
    6.1124    8.6345   23.3397 O   0  0  0  0  0  0  0  0  0  0  0  0
    7.8905    8.7026   20.6070 C   0  0  0  0  0  0  0  0  0  0  0  0
   13.5841    5.6556   19.9342 O   0  0  0  0  0  0  0  0  0  0  0  0
    8.3542    5.5681   15.4139 C   0  0  0  0  0  0  0  0  0  0  0  0
    8.7174    7.9225   21.4880 C   0  0  0  0  0  0  0  0  0  0  0  0
   11.6579    6.8278   19.2671 C   0  0  0  0  0  0  0  0  0  0  0  0
   10.4226    7.4070   19.6277 C   0  0  0  0  0  0  0  0  0  0  0  0
    9.9640    7.3117   20.9268 C   0  0  0  0  0  0  0  0  0  0  0  0
    9.3553    5.4394   14.4901 C   0  0  0  0  0  0  0  0  0  0  0  0
    9.3306    7.6676   16.0361 C   0  0  0  0  0  0  0  0  0  0  0  0
   10.3039    7.5298   15.1087 C   0  0  0  0  0  0  0  0  0  0  0  0
   10.1735    6.3966   23.0910 N   0  0  0  0  0  0  0  0  0  0  0  0
    7.0955    8.0571   23.6270 C   0  0  0  0  0  0  0  0  0  0  0  0
    9.1208    6.9042   23.5467 C   0  0  0  0  0  0  0  0  0  0  0  0
   11.8939    6.0473   21.4705 C   0  0  0  0  0  0  0  0  0  0  0  0
  1  5  1  0
  1 13  1  0
  2 20  2  0
  2 28  1  0
  2 29  1  0
  3 19  4  0
  3 25  4  0
  4 23  4  0
  4 27  1  0
  4 30  4  0
  5 17  1  0
  6  8  1  0
  6 29  1  0
  7 24  4  0
  7 26  4  0
  8 28  1  0
  9 13  2  0
 10 18  1  0
 10 21  4  0
 10 30  4  0
 11 17  2  0
 12 18  1  0
 13 15  1  0
 14 24  1  0
 15 25  1  0
 16 28  2  0
 17 20  1  0
 19 24  4  0
 20 23  1  0
 21 22  4  0
 22 23  4  0
 25 26  4  0
 27 29  2  0
M  END
$$$$

 Created by Python create_sdf_string function

 30 33  0  0  0  0  0  0  0  0999 V2000
    8.2639    9.9815   18.5609 C   0  0  0  0  0  0  0  0  0  0  0  0
    8.2100    7.6887   22.8187 C   0  0  0  0  0  0  0  0  0  0  0  0
    8.3277    6.7538   16.2025 C   0  0  0  0  0  0  0  0  0  0  0  0
   10.7070    6.5355   21.8287 C   0  0  0  0  0  0  0  0  0  0  0  0
    8.2510    8.8257   19.3755 O   0  0  0  0  0  0  0  0  0  0  0  0
    8.5688    6.7055   24.9513 C   0  0  0  0  0  0  0  0  0  0  0  0
   10.3211    6.3528   14.2808 C   0  0  0  0  0  0  0  0  0  0  0  0
    7.3514    7.6718   25.0692 C   0  0  0  0  0  0  0  0  0  0  0  0
    7.9847   10.1234   16.2370 O   0  0  0  0  0  0  0  0  0  0  0  0
   12.4114    6.2539   20.2203 C   0  0  0  0  0  0  0  0  0  0  0  0
    6.7961    9.1398   20.9012 O   0  0  0  0  0  0  0  0  0  0  0  0
   14.2877    6.1082   18.8514 C   0  0  0  0  0  0  0  0  0  0  0  0
    8.5582    9.5665   17.1305 C   0  0  0  0  0  0  0  0  0  0  0  0
    9.4355    4.2453   13.7550 C   0  0  0  0  0  0  0  0  0  0  0  0
    9.3757    8.6589   16.8583 N   0  0  0  0  0  0  0  0  0  0  0  0
    6.1669    8.6362   23.3295 O   0  0  0  0  0  0  0  0  0  0  0  0
    7.8855    8.7056   20.6021 C   0  0  0  0  0  0  0  0  0  0  0  0
   13.5790    5.7086   19.9129 O   0  0  0  0  0  0  0  0  0  0  0  0
    8.3290    5.5922   15.3971 C   0  0  0  0  0  0  0  0  0  0  0  0
    8.7264    7.9688   21.4836 C   0  0  0  0  0  0  0  0  0  0  0  0
   11.6855    6.8247   19.3345 C   0  0  0  0  0  0  0  0  0  0  0  0
   10.3838    7.3950   19.5626 C   0  0  0  0  0  0  0  0  0  0  0  0
    9.3144    5.3744   14.4787 C   0  0  0  0  0  0  0  0  0  0  0  0
    9.3174    7.7118   16.0158 C   0  0  0  0  0  0  0  0  0  0  0  0
   10.2866    7.5642   15.1055 C   0  0  0  0  0  0  0  0  0  0  0  0
   10.2003    6.3854   23.0943 N   0  0  0  0  0  0  0  0  0  0  0  0
    7.0292    8.0784   23.6315 C   0  0  0  0  0  0  0  0  0  0  0  0
    9.0895    6.9535   23.6391 C   0  0  0  0  0  0  0  0  0  0  0  0
   11.8991    6.0132   21.4712 C   0  0  0  0  0  0  0  0  0  0  0  0
    9.9747    7.2840   20.9726 He  0  0  0  0  0  0  0  0  0  0  0  0
  1  5  1  0
  1 13  1  0
  2 20  2  0
  2 28  1  0
  3 19  4  0
  3 24  4  0
  4 26  1  0
  4 29  4  0
  5  9  3  0
  5 17  1  0
  6  8  1  0
  6 17  2  0
  6 28  1  0
  7 23  4  0
  7 25  4  0
  8 27  1  0
  9 13  2  0
  9 15  4  0
 10 18  1  0
 10 21  4  0
 10 29  4  0
 11 17  2  0
 12 18  1  0
 13 15  1  0
 13 24  1  0
 14 23  1  0
 15 24  1  0
 16 27  2  0
 17 20  1  0
 19 23  4  0
 21 22  4  0
 24 25  4  0
 26 28  2  0
M  END
$$$$

 Created by Python create_sdf_string function

 30 33  0  0  0  0  0  0  0  0999 V2000
    8.2539    9.9504   18.5517 C   0  0  0  0  0  0  0  0  0  0  0  0
    8.2615    7.6915   22.7817 C   0  0  0  0  0  0  0  0  0  0  0  0
    8.3161    6.7291   16.1894 C   0  0  0  0  0  0  0  0  0  0  0  0
   10.7094    6.5585   21.8351 C   0  0  0  0  0  0  0  0  0  0  0  0
    8.2654    8.8306   19.3685 O   0  0  0  0  0  0  0  0  0  0  0  0
    8.5824    6.7229   24.9568 C   0  0  0  0  0  0  0  0  0  0  0  0
   10.3088    6.3338   14.2918 C   0  0  0  0  0  0  0  0  0  0  0  0
    7.3537    7.6380   25.0452 C   0  0  0  0  0  0  0  0  0  0  0  0
    7.9810   10.1348   16.2056 O   0  0  0  0  0  0  0  0  0  0  0  0
   12.3970    6.2100   20.2224 C   0  0  0  0  0  0  0  0  0  0  0  0
    6.8136    9.1399   20.9194 O   0  0  0  0  0  0  0  0  0  0  0  0
   14.2965    6.1053   18.8436 C   0  0  0  0  0  0  0  0  0  0  0  0
    8.5467    9.5908   17.1193 C   0  0  0  0  0  0  0  0  0  0  0  0
    9.3951    4.2323   13.7450 C   0  0  0  0  0  0  0  0  0  0  0  0
    9.4668    8.6901   16.8900 N   0  0  0  0  0  0  0  0  0  0  0  0
    6.1308    8.6509   23.3442 O   0  0  0  0  0  0  0  0  0  0  0  0
    7.8863    8.7083   20.6117 C   0  0  0  0  0  0  0  0  0  0  0  0
   13.6353    5.7143   19.9068 O   0  0  0  0  0  0  0  0  0  0  0  0
    8.3390    5.5670   15.3923 C   0  0  0  0  0  0  0  0  0  0  0  0
    8.7227    7.9130   21.4848 C   0  0  0  0  0  0  0  0  0  0  0  0
   11.6671    6.8577   19.3020 C   0  0  0  0  0  0  0  0  0  0  0  0
   10.4125    7.3975   19.6338 C   0  0  0  0  0  0  0  0  0  0  0  0
    9.9614    7.2946   20.9352 C   0  0  0  0  0  0  0  0  0  0  0  0
    9.3449    5.4016   14.4828 C   0  0  0  0  0  0  0  0  0  0  0  0
    9.3277    7.6605   16.0132 C   0  0  0  0  0  0  0  0  0  0  0  0
   10.3024    7.4996   15.0702 C   0  0  0  0  0  0  0  0  0  0  0  0
   10.1874    6.4119   23.1086 N   0  0  0  0  0  0  0  0  0  0  0  0
    7.1069    8.0741   23.6416 C   0  0  0  0  0  0  0  0  0  0  0  0
    9.1314    6.9111   23.5562 C   0  0  0  0  0  0  0  0  0  0  0  0
   11.9099    6.0223   21.4855 C   0  0  0  0  0  0  0  0  0  0  0  0
  1  5  1  0
  1 13  1  0
  2 20  2  0
  2 28  1  0
  2 29  1  0
  3 19  4  0
  3 25  4  0
  4 23  4  0
  4 27  1  0
  4 30  4  0
  5 17  1  0
  6  8  1  0
  6 29  1  0
  7 24  4  0
  7 26  4  0
  8 28  1  0
  9 13  2  0
 10 18  1  0
 10 21  4  0
 10 30  4  0
 11 17  2  0
 12 18  1  0
 13 15  1  0
 14 24  1  0
 15 25  1  0
 16 28  2  0
 17 20  1  0
 19 24  4  0
 20 23  1  0
 21 22  4  0
 22 23  4  0
 25 26  4  0
 27 29  2  0
M  END
$$$$

 Created by Python create_sdf_string function

 30 38  0  0  0  0  0  0  0  0999 V2000
    8.3097    9.9566   18.5374 C   0  0  0  0  0  0  0  0  0  0  0  0
    8.2794    7.6754   22.7256 C   0  0  0  0  0  0  0  0  0  0  0  0
    8.3358    6.7404   16.2198 C   0  0  0  0  0  0  0  0  0  0  0  0
   10.6733    6.5422   21.8867 C   0  0  0  0  0  0  0  0  0  0  0  0
    8.3105    8.8789   19.3276 O   0  0  0  0  0  0  0  0  0  0  0  0
    8.5326    6.7517   24.9716 C   0  0  0  0  0  0  0  0  0  0  0  0
   10.2630    6.3364   14.3006 C   0  0  0  0  0  0  0  0  0  0  0  0
    7.3889    7.6097   25.0173 C   0  0  0  0  0  0  0  0  0  0  0  0
    8.0723   10.0867   16.1803 O   0  0  0  0  0  0  0  0  0  0  0  0
   12.3476    6.2069   20.2003 C   0  0  0  0  0  0  0  0  0  0  0  0
    6.7366    9.1595   20.9261 O   0  0  0  0  0  0  0  0  0  0  0  0
   14.3330    6.0855   18.8223 S   0  0  0  0  0  0  0  0  0  0  0  0
    8.5211    9.6328   17.1504 C   0  0  0  0  0  0  0  0  0  0  0  0
    9.3805    4.2493   13.7287 C   0  0  0  0  0  0  0  0  0  0  0  0
    9.4442    8.6555   16.8703 N   0  0  0  0  0  0  0  0  0  0  0  0
    6.1420    8.6598   23.3292 O   0  0  0  0  0  0  0  0  0  0  0  0
    7.8767    8.6749   20.6056 C   0  0  0  0  0  0  0  0  0  0  0  0
   13.6890    5.6947   19.8989 O   0  0  0  0  0  0  0  0  0  0  0  0
    8.3393    5.6171   15.3479 C   0  0  0  0  0  0  0  0  0  0  0  0
    8.6865    7.8954   21.4846 C   0  0  0  0  0  0  0  0  0  0  0  0
   11.6837    6.8833   19.2667 C   0  0  0  0  0  0  0  0  0  0  0  0
   10.4317    7.3454   19.6631 F   0  0  0  0  0  0  0  0  0  0  0  0
    9.9515    7.3337   20.9039 C   0  0  0  0  0  0  0  0  0  0  0  0
    9.3370    5.4150   14.4271 C   0  0  0  0  0  0  0  0  0  0  0  0
    9.3496    7.6326   16.0274 C   0  0  0  0  0  0  0  0  0  0  0  0
   10.3030    7.4578   15.1124 C   0  0  0  0  0  0  0  0  0  0  0  0
   10.2208    6.4335   23.0821 N   0  0  0  0  0  0  0  0  0  0  0  0
    7.1391    8.0392   23.6491 C   0  0  0  0  0  0  0  0  0  0  0  0
    9.1478    6.9400   23.4944 C   0  0  0  0  0  0  0  0  0  0  0  0
   11.8880    6.0608   21.5257 C   0  0  0  0  0  0  0  0  0  0  0  0
  1  5  1  0
  1 13  1  0
  2 20  2  0
  2 29  1  0
  3 19  4  0
  3 25  4  0
  4 23  4  0
  4 27  1  0
  4 30  4  0
  5 17  1  0
  5 25  3  0
  6  8  1  0
  6 29  1  0
  6 30  4  0
  7 24  4  0
  7 26  4  0
  8 12  1  0
  8 28  1  0
  9 13  2  0
 10 18  1  0
 10 21  4  0
 10 30  4  0
 11 17  2  0
 12 18  1  0
 12 25  2  0
 13 15  1  0
 14 24  1  0
 15 25  1  0
 16 28  2  0
 17 20  1  0
 19 23  1  0
 19 24  4  0
 20 23  1  0
 21 22  2  0
 21 29  1  0
 22 23  4  0
 25 26  4  0
 27 29  2  0
M  END
$$$$

 Created by Python create_sdf_string function

 30 33  0  0  0  0  0  0  0  0999 V2000
    8.2914    9.9455   18.5390 C   0  0  0  0  0  0  0  0  0  0  0  0
    8.2752    7.6792   22.7547 C   0  0  0  0  0  0  0  0  0  0  0  0
    8.3281    6.7192   16.1943 C   0  0  0  0  0  0  0  0  0  0  0  0
   10.7095    6.5731   21.8422 C   0  0  0  0  0  0  0  0  0  0  0  0
    8.3110    8.8546   19.3621 O   0  0  0  0  0  0  0  0  0  0  0  0
    8.5927    6.7418   24.9474 C   0  0  0  0  0  0  0  0  0  0  0  0
   10.2933    6.3255   14.3006 C   0  0  0  0  0  0  0  0  0  0  0  0
    7.3696    7.6037   24.9938 C   0  0  0  0  0  0  0  0  0  0  0  0
    8.0603   10.1054   16.1679 O   0  0  0  0  0  0  0  0  0  0  0  0
   12.4070    6.1984   20.2392 C   0  0  0  0  0  0  0  0  0  0  0  0
    6.7839    9.1452   20.9085 O   0  0  0  0  0  0  0  0  0  0  0  0
   14.2974    6.0963   18.8153 C   0  0  0  0  0  0  0  0  0  0  0  0
    8.5731    9.5891   17.0999 C   0  0  0  0  0  0  0  0  0  0  0  0
    9.3568    4.2585   13.7056 C   0  0  0  0  0  0  0  0  0  0  0  0
    9.5021    8.6544   16.8966 N   0  0  0  0  0  0  0  0  0  0  0  0
    6.1650    8.6497   23.3437 O   0  0  0  0  0  0  0  0  0  0  0  0
    7.8736    8.7022   20.5928 C   0  0  0  0  0  0  0  0  0  0  0  0
   13.6493    5.6937   19.9328 O   0  0  0  0  0  0  0  0  0  0  0  0
    8.3289    5.5870   15.3690 C   0  0  0  0  0  0  0  0  0  0  0  0
    8.6808    7.8866   21.4531 C   0  0  0  0  0  0  0  0  0  0  0  0
   11.6840    6.8528   19.3032 C   0  0  0  0  0  0  0  0  0  0  0  0
   10.4328    7.3889   19.6583 C   0  0  0  0  0  0  0  0  0  0  0  0
    9.9536    7.2904   20.9250 C   0  0  0  0  0  0  0  0  0  0  0  0
    9.3268    5.4084   14.4541 C   0  0  0  0  0  0  0  0  0  0  0  0
    9.3569    7.6339   16.0309 C   0  0  0  0  0  0  0  0  0  0  0  0
   10.3194    7.4503   15.1023 C   0  0  0  0  0  0  0  0  0  0  0  0
   10.2059    6.4301   23.1101 N   0  0  0  0  0  0  0  0  0  0  0  0
    7.1497    8.0617   23.6145 C   0  0  0  0  0  0  0  0  0  0  0  0
    9.1414    6.9083   23.5338 C   0  0  0  0  0  0  0  0  0  0  0  0
   11.9073    6.0394   21.5023 C   0  0  0  0  0  0  0  0  0  0  0  0
  1  5  1  0
  1 13  1  0
  2 20  2  0
  2 28  1  0
  2 29  1  0
  3 19  4  0
  3 25  4  0
  4 23  4  0
  4 27  1  0
  4 30  4  0
  5 17  1  0
  6  8  1  0
  6 29  1  0
  7 24  4  0
  7 26  4  0
  8 28  1  0
  9 13  2  0
 10 18  1  0
 10 21  4  0
 10 30  4  0
 11 17  2  0
 12 18  1  0
 13 15  1  0
 14 24  1  0
 15 25  1  0
 16 28  2  0
 17 20  1  0
 19 24  4  0
 20 23  1  0
 21 22  4  0
 22 23  4  0
 25 26  4  0
 27 29  2  0
M  END
$$$$

 Created by Python create_sdf_string function

 30 37  0  0  0  0  0  0  0  0999 V2000
    8.2493    9.9111   18.5447 C   0  0  0  0  0  0  0  0  0  0  0  0
    8.3234    7.6719   22.7378 C   0  0  0  0  0  0  0  0  0  0  0  0
    8.3671    6.7000   16.2909 C   0  0  0  0  0  0  0  0  0  0  0  0
   10.6949    6.5944   21.8607 C   0  0  0  0  0  0  0  0  0  0  0  0
    8.2863    8.8604   19.3544 O   0  0  0  0  0  0  0  0  0  0  0  0
    8.5757    6.7653   24.9035 C   0  0  0  0  0  0  0  0  0  0  0  0
   10.2876    6.2730   14.3014 C   0  0  0  0  0  0  0  0  0  0  0  0
    7.3612    7.6106   24.9691 C   0  0  0  0  0  0  0  0  0  0  0  0
    8.0063   10.0582   16.1886 O   0  0  0  0  0  0  0  0  0  0  0  0
   12.4726    6.2132   20.2694 C   0  0  0  0  0  0  0  0  0  0  0  0
    6.8045    9.1373   20.8976 O   0  0  0  0  0  0  0  0  0  0  0  0
   14.3056    6.0971   18.8272 C   0  0  0  0  0  0  0  0  0  0  0  0
    8.6202    9.5754   17.0744 C   0  0  0  0  0  0  0  0  0  0  0  0
    9.3984    4.2864   13.7022 C   0  0  0  0  0  0  0  0  0  0  0  0
    9.4871    8.6309   16.8755 N   0  0  0  0  0  0  0  0  0  0  0  0
    6.1677    8.6192   23.3187 O   0  0  0  0  0  0  0  0  0  0  0  0
    7.8651    8.6771   20.5652 C   0  0  0  0  0  0  0  0  0  0  0  0
   13.6837    5.6382   19.8834 O   0  0  0  0  0  0  0  0  0  0  0  0
    8.3294    5.5456   15.3696 C   0  0  0  0  0  0  0  0  0  0  0  0
    8.6600    7.9104   21.4918 C   0  0  0  0  0  0  0  0  0  0  0  0
   11.6454    6.8192   19.2932 C   0  0  0  0  0  0  0  0  0  0  0  0
   10.4303    7.3937   19.5889 C   0  0  0  0  0  0  0  0  0  0  0  0
    9.9022    7.2913   20.8927 C   0  0  0  0  0  0  0  0  0  0  0  0
    9.3365    5.4028   14.4262 C   0  0  0  0  0  0  0  0  0  0  0  0
    9.4102    7.6290   16.0271 C   0  0  0  0  0  0  0  0  0  0  0  0
   10.3092    7.4222   15.1425 C   0  0  0  0  0  0  0  0  0  0  0  0
   10.1887    6.4578   23.0976 N   0  0  0  0  0  0  0  0  0  0  0  0
    7.1369    8.0689   23.6244 C   0  0  0  0  0  0  0  0  0  0  0  0
    9.1217    6.8704   23.5485 C   0  0  0  0  0  0  0  0  0  0  0  0
   11.9499    6.0183   21.4693 C   0  0  0  0  0  0  0  0  0  0  0  0
  1  5  1  0
  1 12  1  0
  1 13  1  0
  2 20  2  0
  2 28  1  0
  2 29  1  0
  3 19  4  0
  3 25  4  0
  4 23  4  0
  4 27  1  0
  4 30  4  0
  5 17  1  0
  6  8  1  0
  6 29  1  0
  7 24  4  0
  7 26  4  0
  8 25  2  0
  8 28  1  0
 10 18  1  0
 10 30  4  0
 11 17  2  0
 11 20  4  0
 12 18  1  0
 13 15  1  0
 14 15  1  0
 14 24  1  0
 15 25  1  0
 15 26  4  0
 16 28  2  0
 17 20  2  0
 18 29  2  0
 19 24  1  0
 20 23  1  0
 21 22  4  0
 22 23  3  0
 25 26  4  0
 27 29  2  0
M  END
$$$$

 Created by Python create_sdf_string function

 30 33  0  0  0  0  0  0  0  0999 V2000
    8.2420    9.9127   18.5187 C   0  0  0  0  0  0  0  0  0  0  0  0
    8.2922    7.6701   22.7566 C   0  0  0  0  0  0  0  0  0  0  0  0
    8.3677    6.6873   16.2397 C   0  0  0  0  0  0  0  0  0  0  0  0
   10.7064    6.5857   21.8129 C   0  0  0  0  0  0  0  0  0  0  0  0
    8.3065    8.8252   19.3475 O   0  0  0  0  0  0  0  0  0  0  0  0
    8.6011    6.7596   24.9025 C   0  0  0  0  0  0  0  0  0  0  0  0
   10.3042    6.2819   14.3051 C   0  0  0  0  0  0  0  0  0  0  0  0
    7.3654    7.5943   24.9524 C   0  0  0  0  0  0  0  0  0  0  0  0
    8.0095   10.0822   16.1610 O   0  0  0  0  0  0  0  0  0  0  0  0
   12.4350    6.1927   20.2217 C   0  0  0  0  0  0  0  0  0  0  0  0
    6.8113    9.1374   20.8951 O   0  0  0  0  0  0  0  0  0  0  0  0
   14.3214    6.0983   18.8140 C   0  0  0  0  0  0  0  0  0  0  0  0
    8.5899    9.5826   17.0779 C   0  0  0  0  0  0  0  0  0  0  0  0
    9.3540    4.2576   13.6676 C   0  0  0  0  0  0  0  0  0  0  0  0
    9.5177    8.6805   16.8899 N   0  0  0  0  0  0  0  0  0  0  0  0
    6.1718    8.6346   23.3201 O   0  0  0  0  0  0  0  0  0  0  0  0
    7.8905    8.6785   20.5884 C   0  0  0  0  0  0  0  0  0  0  0  0
   13.6650    5.6771   19.9140 O   0  0  0  0  0  0  0  0  0  0  0  0
    8.3456    5.5515   15.3997 C   0  0  0  0  0  0  0  0  0  0  0  0
    8.6803    7.8737   21.4550 C   0  0  0  0  0  0  0  0  0  0  0  0
   11.6969    6.8297   19.2872 C   0  0  0  0  0  0  0  0  0  0  0  0
   10.4412    7.3796   19.5992 C   0  0  0  0  0  0  0  0  0  0  0  0
    9.9434    7.2932   20.9029 C   0  0  0  0  0  0  0  0  0  0  0  0
    9.3256    5.3712   14.4537 C   0  0  0  0  0  0  0  0  0  0  0  0
    9.3924    7.6102   16.0505 C   0  0  0  0  0  0  0  0  0  0  0  0
   10.3393    7.4040   15.1116 C   0  0  0  0  0  0  0  0  0  0  0  0
   10.2098    6.4335   23.0882 N   0  0  0  0  0  0  0  0  0  0  0  0
    7.1554    8.0669   23.5850 C   0  0  0  0  0  0  0  0  0  0  0  0
    9.1506    6.9011   23.5262 C   0  0  0  0  0  0  0  0  0  0  0  0
   11.9215    6.0503   21.4891 C   0  0  0  0  0  0  0  0  0  0  0  0
  1  5  1  0
  1 13  1  0
  2 20  2  0
  2 28  1  0
  2 29  1  0
  3 19  4  0
  3 25  4  0
  4 23  4  0
  4 27  1  0
  4 30  4  0
  5 17  1  0
  6  8  1  0
  6 29  1  0
  7 24  4  0
  7 26  4  0
  8 28  1  0
  9 13  2  0
 10 18  1  0
 10 21  4  0
 10 30  4  0
 11 17  2  0
 12 18  1  0
 13 15  1  0
 14 24  1  0
 15 25  1  0
 16 28  2  0
 17 20  1  0
 19 24  4  0
 20 23  1  0
 21 22  4  0
 22 23  4  0
 25 26  4  0
 27 29  2  0
M  END
$$$$

 Created by Python create_sdf_string function

 30 38  0  0  0  0  0  0  0  0999 V2000
    8.2843    9.9639   18.4822 Se  0  0  0  0  0  0  0  0  0  0  0  0
    8.2593    7.6793   22.7464 C   0  0  0  0  0  0  0  0  0  0  0  0
    8.3383    6.6398   16.2237 C   0  0  0  0  0  0  0  0  0  0  0  0
   10.7038    6.5529   21.8199 C   0  0  0  0  0  0  0  0  0  0  0  0
    8.2897    8.8569   19.3521 O   0  0  0  0  0  0  0  0  0  0  0  0
    8.5707    6.8051   24.9121 C   0  0  0  0  0  0  0  0  0  0  0  0
   10.3183    6.2857   14.2596 C   0  0  0  0  0  0  0  0  0  0  0  0
    7.3827    7.6138   24.9610 C   0  0  0  0  0  0  0  0  0  0  0  0
    8.0002   10.1160   16.1825 O   0  0  0  0  0  0  0  0  0  0  0  0
   12.4117    6.1648   20.2137 C   0  0  0  0  0  0  0  0  0  0  0  0
    6.8220    9.1219   20.9202 O   0  0  0  0  0  0  0  0  0  0  0  0
   14.3592    6.1127   18.8074 C   0  0  0  0  0  0  0  0  0  0  0  0
    8.6075    9.6153   17.0637 C   0  0  0  0  0  0  0  0  0  0  0  0
    9.3147    4.2837   13.6951 C   0  0  0  0  0  0  0  0  0  0  0  0
    9.5357    8.7043   16.9267 N   0  0  0  0  0  0  0  0  0  0  0  0
    6.1410    8.6276   23.3314 O   0  0  0  0  0  0  0  0  0  0  0  0
    7.8949    8.6676   20.5896 C   0  0  0  0  0  0  0  0  0  0  0  0
   13.6499    5.6714   19.8890 O   0  0  0  0  0  0  0  0  0  0  0  0
    8.3864    5.5401   15.3910 C   0  0  0  0  0  0  0  0  0  0  0  0
    8.6762    7.8600   21.4197 C   0  0  0  0  0  0  0  0  0  0  0  0
   11.6462    6.8741   19.2678 C   0  0  0  0  0  0  0  0  0  0  0  0
   10.4142    7.4214   19.6325 C   0  0  0  0  0  0  0  0  0  0  0  0
    9.9222    7.3149   20.8900 C   0  0  0  0  0  0  0  0  0  0  0  0
    9.3002    5.3407   14.4948 C   0  0  0  0  0  0  0  0  0  0  0  0
    9.4334    7.6234   16.0383 C   0  0  0  0  0  0  0  0  0  0  0  0
   10.3360    7.3850   15.1328 C   0  0  0  0  0  0  0  0  0  0  0  0
   10.2387    6.4524   23.1029 N   0  0  0  0  0  0  0  0  0  0  0  0
    7.1855    8.0824   23.5799 C   0  0  0  0  0  0  0  0  0  0  0  0
    9.1454    6.8748   23.5065 C   0  0  0  0  0  0  0  0  0  0  0  0
   11.9502    6.0390   21.4941 C   0  0  0  0  0  0  0  0  0  0  0  0
  1  2  4  0
  1  5  1  0
  1 13  1  0
  2 20  2  0
  2 22  4  0
  2 28  1  0
  2 29  1  0
  3 19  4  0
  3 25  4  0
  4 23  4  0
  4 27  1  0
  4 30  4  0
  5 17  1  0
  6  8  1  0
  6 29  1  0
  7 24  4  0
  7 26  4  0
  8 28  1  0
  9 13  2  0
 10 18  1  0
 10 21  4  0
 10 29  4  0
 10 30  4  0
 11 17  2  0
 12 18  1  0
 13 15  1  0
 13 23  2  0
 14 24  1  0
 15 25  1  0
 16 28  2  0
 17 20  1  0
 19 24  4  0
 20 23  1  0
 20 29  3  0
 21 22  4  0
 22 23  4  0
 25 26  4  0
 27 29  2  0
M  END
$$$$

 Created by Python create_sdf_string function

 30 33  0  0  0  0  0  0  0  0999 V2000
    8.2832    9.9127   18.4821 C   0  0  0  0  0  0  0  0  0  0  0  0
    8.2904    7.6617   22.7298 C   0  0  0  0  0  0  0  0  0  0  0  0
    8.3626    6.6726   16.2296 C   0  0  0  0  0  0  0  0  0  0  0  0
   10.7213    6.5694   21.8068 C   0  0  0  0  0  0  0  0  0  0  0  0
    8.3084    8.8599   19.3339 O   0  0  0  0  0  0  0  0  0  0  0  0
    8.6035    6.7920   24.9027 C   0  0  0  0  0  0  0  0  0  0  0  0
   10.3183    6.2599   14.2823 C   0  0  0  0  0  0  0  0  0  0  0  0
    7.3737    7.6125   24.9425 C   0  0  0  0  0  0  0  0  0  0  0  0
    8.0234   10.1164   16.1589 O   0  0  0  0  0  0  0  0  0  0  0  0
   12.4301    6.1861   20.2022 C   0  0  0  0  0  0  0  0  0  0  0  0
    6.8434    9.1144   20.9144 O   0  0  0  0  0  0  0  0  0  0  0  0
   14.3487    6.1052   18.8067 C   0  0  0  0  0  0  0  0  0  0  0  0
    8.6048    9.5873   17.0665 C   0  0  0  0  0  0  0  0  0  0  0  0
    9.2984    4.2536   13.6858 O   0  0  0  0  0  0  0  0  0  0  0  0
    9.5508    8.6628   16.8824 N   0  0  0  0  0  0  0  0  0  0  0  0
    6.1744    8.6323   23.3215 O   0  0  0  0  0  0  0  0  0  0  0  0
    7.9015    8.6693   20.5819 C   0  0  0  0  0  0  0  0  0  0  0  0
   13.6563    5.6828   19.8778 O   0  0  0  0  0  0  0  0  0  0  0  0
    8.3652    5.5366   15.4144 C   0  0  0  0  0  0  0  0  0  0  0  0
    8.7071    7.8399   21.4351 C   0  0  0  0  0  0  0  0  0  0  0  0
   11.6882    6.8559   19.2692 C   0  0  0  0  0  0  0  0  0  0  0  0
   10.4399    7.4091   19.6128 C   0  0  0  0  0  0  0  0  0  0  0  0
    9.9646    7.2806   20.8977 C   0  0  0  0  0  0  0  0  0  0  0  0
    9.3329    5.3623   14.4668 C   0  0  0  0  0  0  0  0  0  0  0  0
    9.4031    7.6035   16.0502 C   0  0  0  0  0  0  0  0  0  0  0  0
   10.3699    7.3811   15.1054 C   0  0  0  0  0  0  0  0  0  0  0  0
   10.2142    6.4387   23.0890 N   0  0  0  0  0  0  0  0  0  0  0  0
    7.1732    8.0655   23.5747 C   0  0  0  0  0  0  0  0  0  0  0  0
    9.1415    6.9086   23.5119 C   0  0  0  0  0  0  0  0  0  0  0  0
   11.9300    6.0346   21.4769 C   0  0  0  0  0  0  0  0  0  0  0  0
  1  5  1  0
  1 13  1  0
  2 20  2  0
  2 28  1  0
  2 29  1  0
  3 19  4  0
  3 25  4  0
  4 23  4  0
  4 27  1  0
  4 30  4  0
  5 17  1  0
  6  8  1  0
  6 29  1  0
  7 24  4  0
  7 26  4  0
  8 28  1  0
  9 13  2  0
 10 18  1  0
 10 21  4  0
 10 30  4  0
 11 17  2  0
 12 18  1  0
 13 15  1  0
 14 24  1  0
 15 25  1  0
 16 28  2  0
 17 20  1  0
 19 24  4  0
 20 23  1  0
 21 22  4  0
 22 23  4  0
 25 26  4  0
 27 29  2  0
M  END
$$$$

 Created by Python create_sdf_string function

 30 38  0  0  0  0  0  0  0  0999 V2000
    8.2833    9.9168   18.5092 C   0  0  0  0  0  0  0  0  0  0  0  0
    8.3204    7.6821   22.7201 C   0  0  0  0  0  0  0  0  0  0  0  0
    8.3661    6.6464   16.2538 C   0  0  0  0  0  0  0  0  0  0  0  0
   10.6968    6.5809   21.7862 C   0  0  0  0  0  0  0  0  0  0  0  0
    8.3080    8.8440   19.3353 O   0  0  0  0  0  0  0  0  0  0  0  0
    8.5833    6.8137   24.8732 C   0  0  0  0  0  0  0  0  0  0  0  0
   10.3195    6.2265   14.2453 C   0  0  0  0  0  0  0  0  0  0  0  0
    7.3729    7.6544   24.9256 C   0  0  0  0  0  0  0  0  0  0  0  0
    8.0219   10.1047   16.1432 O   0  0  0  0  0  0  0  0  0  0  0  0
   12.3943    6.1785   20.1560 C   0  0  0  0  0  0  0  0  0  0  0  0
    6.8456    9.1427   20.9148 O   0  0  0  0  0  0  0  0  0  0  0  0
   14.3883    6.1140   18.7877 C   0  0  0  0  0  0  0  0  0  0  0  0
    8.6356    9.5923   17.0532 C   0  0  0  0  0  0  0  0  0  0  0  0
    9.2841    4.2588   13.6783 O   0  0  0  0  0  0  0  0  0  0  0  0
    9.5908    8.6797   16.8886 N   0  0  0  0  0  0  0  0  0  0  0  0
    6.1606    8.6609   23.3038 O   0  0  0  0  0  0  0  0  0  0  0  0
    7.8957    8.7017   20.5628 C   0  0  0  0  0  0  0  0  0  0  0  0
   13.6676    5.6951   19.8542 O   0  0  0  0  0  0  0  0  0  0  0  0
    8.3682    5.5348   15.4587 C   0  0  0  0  0  0  0  0  0  0  0  0
    8.7118    7.8396   21.4495 C   0  0  0  0  0  0  0  0  0  0  0  0
   11.7172    6.8730   19.2494 C   0  0  0  0  0  0  0  0  0  0  0  0
   10.4395    7.4270   19.6526 C   0  0  0  0  0  0  0  0  0  0  0  0
    9.9981    7.3184   20.8918 C   0  0  0  0  0  0  0  0  0  0  0  0
    9.3276    5.3608   14.4542 C   0  0  0  0  0  0  0  0  0  0  0  0
    9.4126    7.5642   16.0218 C   0  0  0  0  0  0  0  0  0  0  0  0
   10.3442    7.3852   15.0848 C   0  0  0  0  0  0  0  0  0  0  0  0
   10.2237    6.4409   23.0835 N   0  0  0  0  0  0  0  0  0  0  0  0
    7.1787    8.0306   23.6227 C   0  0  0  0  0  0  0  0  0  0  0  0
    9.1594    6.8976   23.5122 C   0  0  0  0  0  0  0  0  0  0  0  0
   11.9220    6.0344   21.4895 C   0  0  0  0  0  0  0  0  0  0  0  0
  1  5  1  0
  1 13  1  0
  1 25  4  0
  2 20  2  0
  2 28  1  0
  2 29  1  0
  3 19  4  0
  3 25  4  0
  4 18  1  0
  4 23  4  0
  4 27  1  0
  4 30  4  0
  5 17  1  0
  6  8  1  0
  6 18  4  0
  6 29  1  0
  7 19  1  0
  7 24  4  0
  7 26  4  0
  8 28  1  0
  9 13  2  0
  9 18  2  0
 10 18  1  0
 10 21  4  0
 10 30  4  0
 11 17  2  0
 12 18  1  0
 13 15  1  0
 14 20  2  0
 14 24  1  0
 15 25  1  0
 16 28  2  0
 19 24  4  0
 20 23  1  0
 21 22  4  0
 22 23  4  0
 25 26  4  0
 27 29  2  0
M  END
$$$$

 Created by Python create_sdf_string function

 30 33  0  0  0  0  0  0  0  0999 V2000
    8.2839    9.9156   18.4739 C   0  0  0  0  0  0  0  0  0  0  0  0
    8.3064    7.6713   22.7282 C   0  0  0  0  0  0  0  0  0  0  0  0
    8.3921    6.6711   16.2472 C   0  0  0  0  0  0  0  0  0  0  0  0
   10.7296    6.5723   21.7995 C   0  0  0  0  0  0  0  0  0  0  0  0
    8.3328    8.8273   19.3178 O   0  0  0  0  0  0  0  0  0  0  0  0
    8.5992    6.8067   24.8915 C   0  0  0  0  0  0  0  0  0  0  0  0
   10.3025    6.2332   14.2748 C   0  0  0  0  0  0  0  0  0  0  0  0
    7.3858    7.6257   24.9316 C   0  0  0  0  0  0  0  0  0  0  0  0
    8.0428   10.0933   16.1280 O   0  0  0  0  0  0  0  0  0  0  0  0
   12.4315    6.1934   20.1847 C   0  0  0  0  0  0  0  0  0  0  0  0
    6.8633    9.1355   20.9115 O   0  0  0  0  0  0  0  0  0  0  0  0
   14.3797    6.1035   18.7887 C   0  0  0  0  0  0  0  0  0  0  0  0
    8.6261    9.5645   17.0419 C   0  0  0  0  0  0  0  0  0  0  0  0
    9.2711    4.2743   13.7012 O   0  0  0  0  0  0  0  0  0  0  0  0
    9.5821    8.6512   16.8562 N   0  0  0  0  0  0  0  0  0  0  0  0
    6.2008    8.6438   23.3099 O   0  0  0  0  0  0  0  0  0  0  0  0
    7.9045    8.6851   20.5702 C   0  0  0  0  0  0  0  0  0  0  0  0
   13.6627    5.6995   19.8578 O   0  0  0  0  0  0  0  0  0  0  0  0
    8.3764    5.5208   15.4350 C   0  0  0  0  0  0  0  0  0  0  0  0
    8.7138    7.8597   21.4274 C   0  0  0  0  0  0  0  0  0  0  0  0
   11.7196    6.8718   19.2464 C   0  0  0  0  0  0  0  0  0  0  0  0
   10.4681    7.4286   19.6091 C   0  0  0  0  0  0  0  0  0  0  0  0
    9.9853    7.2951   20.8897 C   0  0  0  0  0  0  0  0  0  0  0  0
    9.3145    5.3365   14.4647 C   0  0  0  0  0  0  0  0  0  0  0  0
    9.4224    7.5818   16.0304 C   0  0  0  0  0  0  0  0  0  0  0  0
   10.3713    7.3831   15.0785 C   0  0  0  0  0  0  0  0  0  0  0  0
   10.2239    6.4340   23.0746 N   0  0  0  0  0  0  0  0  0  0  0  0
    7.1803    8.0592   23.5844 C   0  0  0  0  0  0  0  0  0  0  0  0
    9.1527    6.9146   23.5188 C   0  0  0  0  0  0  0  0  0  0  0  0
   11.9303    6.0262   21.4530 C   0  0  0  0  0  0  0  0  0  0  0  0
  1  5  1  0
  1 13  1  0
  2 20  2  0
  2 28  1  0
  2 29  1  0
  3 19  4  0
  3 25  4  0
  4 23  4  0
  4 27  1  0
  4 30  4  0
  5 17  1  0
  6  8  1  0
  6 29  1  0
  7 24  4  0
  7 26  4  0
  8 28  1  0
  9 13  2  0
 10 18  1  0
 10 21  4  0
 10 30  4  0
 11 17  2  0
 12 18  1  0
 13 15  1  0
 14 24  1  0
 15 25  1  0
 16 28  2  0
 17 20  1  0
 19 24  4  0
 20 23  1  0
 21 22  4  0
 22 23  4  0
 25 26  4  0
 27 29  2  0
M  END
$$$$

 Created by Python create_sdf_string function

 30 34  0  0  0  0  0  0  0  0999 V2000
    8.2744    9.9525   18.4775 C   0  0  0  0  0  0  0  0  0  0  0  0
    8.3287    7.6601   22.7270 C   0  0  0  0  0  0  0  0  0  0  0  0
    8.4354    6.6869   16.2606 C   0  0  0  0  0  0  0  0  0  0  0  0
   10.7111    6.5687   21.7663 C   0  0  0  0  0  0  0  0  0  0  0  0
    8.3261    8.8179   19.2749 O   0  0  0  0  0  0  0  0  0  0  0  0
    8.5893    6.8118   24.8850 C   0  0  0  0  0  0  0  0  0  0  0  0
   10.3023    6.2390   14.2752 C   0  0  0  0  0  0  0  0  0  0  0  0
    7.3885    7.6585   24.9434 C   0  0  0  0  0  0  0  0  0  0  0  0
    8.0394   10.0939   16.1377 O   0  0  0  0  0  0  0  0  0  0  0  0
   12.4253    6.2033   20.1974 C   0  0  0  0  0  0  0  0  0  0  0  0
    6.8724    9.1336   20.8784 O   0  0  0  0  0  0  0  0  0  0  0  0
   14.3672    6.1046   18.8209 C   0  0  0  0  0  0  0  0  0  0  0  0
    8.6295    9.5607   17.0292 C   0  0  0  0  0  0  0  0  0  0  0  0
    9.2679    4.2711   13.7180 O   0  0  0  0  0  0  0  0  0  0  0  0
    9.5812    8.6299   16.8583 N   0  0  0  0  0  0  0  0  0  0  0  0
    6.2306    8.6462   23.3076 O   0  0  0  0  0  0  0  0  0  0  0  0
    7.8765    8.6590   20.5546 C   0  0  0  0  0  0  0  0  0  0  0  0
   13.6532    5.7169   19.8389 O   0  0  0  0  0  0  0  0  0  0  0  0
    8.3700    5.5351   15.4176 C   0  0  0  0  0  0  0  0  0  0  0  0
    8.7234    7.8587   21.4405 C   0  0  0  0  0  0  0  0  0  0  0  0
   11.7466    6.8778   19.2236 C   0  0  0  0  0  0  0  0  0  0  0  0
   10.4554    7.4387   19.6086 C   0  0  0  0  0  0  0  0  0  0  0  0
   10.0166    7.3207   20.8673 C   0  0  0  0  0  0  0  0  0  0  0  0
    9.3042    5.3270   14.4709 C   0  0  0  0  0  0  0  0  0  0  0  0
    9.4374    7.6014   16.0587 C   0  0  0  0  0  0  0  0  0  0  0  0
   10.3999    7.3375   15.0505 C   0  0  0  0  0  0  0  0  0  0  0  0
   10.2337    6.4385   23.0927 N   0  0  0  0  0  0  0  0  0  0  0  0
    7.1765    8.0906   23.5913 C   0  0  0  0  0  0  0  0  0  0  0  0
    9.1607    6.9102   23.4886 C   0  0  0  0  0  0  0  0  0  0  0  0
   11.9262    6.0348   21.4753 C   0  0  0  0  0  0  0  0  0  0  0  0
  1  5  1  0
  1 13  1  0
  2 20  2  0
  2 28  1  0
  2 29  1  0
  3 19  4  0
  3 25  4  0
  4 23  4  0
  4 27  1  0
  4 30  4  0
  5 15  4  0
  5 17  1  0
  6  8  1  0
  6 29  1  0
  7 24  4  0
  7 26  4  0
  8 28  1  0
  9 13  2  0
 10 18  1  0
 10 21  4  0
 10 30  4  0
 11 17  2  0
 12 18  1  0
 13 15  1  0
 14 24  1  0
 15 25  1  0
 16 28  2  0
 17 20  1  0
 19 24  4  0
 20 23  1  0
 21 22  4  0
 22 23  4  0
 25 26  4  0
 27 29  2  0
M  END
$$$$

 Created by Python create_sdf_string function

 30 33  0  0  0  0  0  0  0  0999 V2000
    8.2764    9.9244   18.4529 C   0  0  0  0  0  0  0  0  0  0  0  0
    8.3225    7.6708   22.7138 C   0  0  0  0  0  0  0  0  0  0  0  0
    8.4320    6.6821   16.2443 C   0  0  0  0  0  0  0  0  0  0  0  0
   10.7360    6.5752   21.7835 C   0  0  0  0  0  0  0  0  0  0  0  0
    8.3428    8.8002   19.2849 O   0  0  0  0  0  0  0  0  0  0  0  0
    8.6155    6.7985   24.8960 C   0  0  0  0  0  0  0  0  0  0  0  0
   10.3097    6.2212   14.2754 C   0  0  0  0  0  0  0  0  0  0  0  0
    7.3943    7.6404   24.9364 C   0  0  0  0  0  0  0  0  0  0  0  0
    8.0645   10.0838   16.1169 O   0  0  0  0  0  0  0  0  0  0  0  0
   12.4534    6.2044   20.1852 C   0  0  0  0  0  0  0  0  0  0  0  0
    6.8735    9.1297   20.8764 O   0  0  0  0  0  0  0  0  0  0  0  0
   14.3722    6.0976   18.8152 C   0  0  0  0  0  0  0  0  0  0  0  0
    8.6351    9.5551   17.0349 C   0  0  0  0  0  0  0  0  0  0  0  0
    9.2574    4.2839   13.7342 O   0  0  0  0  0  0  0  0  0  0  0  0
    9.5995    8.6489   16.8507 N   0  0  0  0  0  0  0  0  0  0  0  0
    6.2393    8.6588   23.2855 O   0  0  0  0  0  0  0  0  0  0  0  0
    7.9096    8.6686   20.5456 C   0  0  0  0  0  0  0  0  0  0  0  0
   13.6733    5.7071   19.8604 O   0  0  0  0  0  0  0  0  0  0  0  0
    8.3610    5.5334   15.4381 C   0  0  0  0  0  0  0  0  0  0  0  0
    8.7256    7.8570   21.4184 C   0  0  0  0  0  0  0  0  0  0  0  0
   11.7551    6.8791   19.2269 C   0  0  0  0  0  0  0  0  0  0  0  0
   10.4981    7.4322   19.5808 C   0  0  0  0  0  0  0  0  0  0  0  0
   10.0004    7.3009   20.8634 C   0  0  0  0  0  0  0  0  0  0  0  0
    9.3094    5.3317   14.4720 C   0  0  0  0  0  0  0  0  0  0  0  0
    9.4537    7.5813   16.0279 C   0  0  0  0  0  0  0  0  0  0  0  0
   10.4008    7.3557   15.0741 C   0  0  0  0  0  0  0  0  0  0  0  0
   10.2289    6.4331   23.0674 N   0  0  0  0  0  0  0  0  0  0  0  0
    7.1955    8.0832   23.5647 C   0  0  0  0  0  0  0  0  0  0  0  0
    9.1609    6.9163   23.5069 C   0  0  0  0  0  0  0  0  0  0  0  0
   11.9398    6.0331   21.4448 C   0  0  0  0  0  0  0  0  0  0  0  0
  1  5  1  0
  1 13  1  0
  2 20  2  0
  2 28  1  0
  2 29  1  0
  3 19  4  0
  3 25  4  0
  4 23  4  0
  4 27  1  0
  4 30  4  0
  5 17  1  0
  6  8  1  0
  6 29  1  0
  7 24  4  0
  7 26  4  0
  8 28  1  0
  9 13  2  0
 10 18  1  0
 10 21  4  0
 10 30  4  0
 11 17  2  0
 12 18  1  0
 13 15  1  0
 14 24  1  0
 15 25  1  0
 16 28  2  0
 17 20  1  0
 19 24  4  0
 20 23  1  0
 21 22  4  0
 22 23  4  0
 25 26  4  0
 27 29  2  0
M  END
$$$$

 Created by Python create_sdf_string function

 30 31  0  0  0  0  0  0  0  0999 V2000
    8.2857    9.9121   18.4418 C   0  0  0  0  0  0  0  0  0  0  0  0
    8.3299    7.6686   22.7128 C   0  0  0  0  0  0  0  0  0  0  0  0
    8.4113    6.6726   16.2474 C   0  0  0  0  0  0  0  0  0  0  0  0
   10.7507    6.5714   21.7929 C   0  0  0  0  0  0  0  0  0  0  0  0
    8.3518    8.7944   19.2919 O   0  0  0  0  0  0  0  0  0  0  0  0
    8.6401    6.7938   24.9160 C   0  0  0  0  0  0  0  0  0  0  0  0
   10.3215    6.2194   14.2620 C   0  0  0  0  0  0  0  0  0  0  0  0
    7.4151    7.6383   24.9484 C   0  0  0  0  0  0  0  0  0  0  0  0
    8.0647   10.0962   16.1081 O   0  0  0  0  0  0  0  0  0  0  0  0
   12.4715    6.2145   20.2141 C   0  0  0  0  0  0  0  0  0  0  0  0
    6.9053    9.1165   20.8784 O   0  0  0  0  0  0  0  0  0  0  0  0
   14.4021    6.0811   18.8411 C   0  0  0  0  0  0  0  0  0  0  0  0
    8.6510    9.5673   17.0195 C   0  0  0  0  0  0  0  0  0  0  0  0
    9.2449    4.2846   13.7296 O   0  0  0  0  0  0  0  0  0  0  0  0
    9.5922    8.6521   16.8628 N   0  0  0  0  0  0  0  0  0  0  0  0
    6.2542    8.6622   23.2799 O   0  0  0  0  0  0  0  0  0  0  0  0
    7.9008    8.6850   20.5378 C   0  0  0  0  0  0  0  0  0  0  0  0
   13.6539    5.7018   19.8525 O   0  0  0  0  0  0  0  0  0  0  0  0
    8.3672    5.5433   15.4287 C   0  0  0  0  0  0  0  0  0  0  0  0
    8.7514    7.8808   21.4276 C   0  0  0  0  0  0  0  0  0  0  0  0
   11.7520    6.8851   19.2140 N   0  0  0  0  0  0  0  0  0  0  0  0
   10.4977    7.4128   19.5853 C   0  0  0  0  0  0  0  0  0  0  0  0
    9.9943    7.3012   20.8879 C   0  0  0  0  0  0  0  0  0  0  0  0
    9.3139    5.3215   14.5034 C   0  0  0  0  0  0  0  0  0  0  0  0
    9.4593    7.5910   16.0024 C   0  0  0  0  0  0  0  0  0  0  0  0
   10.3949    7.3900   15.0869 C   0  0  0  0  0  0  0  0  0  0  0  0
   10.2261    6.3935   23.0936 N   0  0  0  0  0  0  0  0  0  0  0  0
    7.2083    8.0940   23.5664 C   0  0  0  0  0  0  0  0  0  0  0  0
    9.1696    6.8973   23.5114 C   0  0  0  0  0  0  0  0  0  0  0  0
   11.9164    6.0455   21.4590 C   0  0  0  0  0  0  0  0  0  0  0  0
  1  5  1  0
  1 13  1  0
  2 20  2  0
  2 28  1  0
  2 29  1  0
  3 19  4  0
  3 25  4  0
  4 23  4  0
  4 27  1  0
  5 11  1  0
  5 17  1  0
  6  8  1  0
  7 24  4  0
  8 28  1  0
  9 13  2  0
 10 18  1  0
 10 21  4  0
 10 30  4  0
 11 17  2  0
 12 18  1  0
 13 15  1  0
 14 24  1  0
 15 25  1  0
 16 28  2  0
 17 20  1  0
 19 24  4  0
 20 23  1  0
 21 22  4  0
 22 23  4  0
 25 26  4  0
 27 29  2  0
M  END
$$$$

 Created by Python create_sdf_string function

 30 33  0  0  0  0  0  0  0  0999 V2000
    8.2863    9.8800   18.4392 C   0  0  0  0  0  0  0  0  0  0  0  0
    8.3404    7.6691   22.7146 C   0  0  0  0  0  0  0  0  0  0  0  0
    8.4213    6.6894   16.2401 C   0  0  0  0  0  0  0  0  0  0  0  0
   10.7357    6.5778   21.7891 C   0  0  0  0  0  0  0  0  0  0  0  0
    8.3680    8.7982   19.2875 O   0  0  0  0  0  0  0  0  0  0  0  0
    8.6607    6.7860   24.9046 C   0  0  0  0  0  0  0  0  0  0  0  0
   10.3219    6.2159   14.2794 C   0  0  0  0  0  0  0  0  0  0  0  0
    7.4149    7.6258   24.9392 C   0  0  0  0  0  0  0  0  0  0  0  0
    8.0884   10.0872   16.0970 O   0  0  0  0  0  0  0  0  0  0  0  0
   12.4582    6.2142   20.1930 C   0  0  0  0  0  0  0  0  0  0  0  0
    6.9019    9.1224   20.8866 O   0  0  0  0  0  0  0  0  0  0  0  0
   14.3756    6.0928   18.8294 C   0  0  0  0  0  0  0  0  0  0  0  0
    8.6483    9.5546   17.0229 C   0  0  0  0  0  0  0  0  0  0  0  0
    9.2449    4.2800   13.7434 O   0  0  0  0  0  0  0  0  0  0  0  0
    9.6068    8.6403   16.8398 N   0  0  0  0  0  0  0  0  0  0  0  0
    6.2563    8.6760   23.2627 O   0  0  0  0  0  0  0  0  0  0  0  0
    7.9373    8.6759   20.5450 C   0  0  0  0  0  0  0  0  0  0  0  0
   13.6757    5.6996   19.8606 O   0  0  0  0  0  0  0  0  0  0  0  0
    8.3608    5.5355   15.4429 C   0  0  0  0  0  0  0  0  0  0  0  0
    8.7469    7.8696   21.4087 C   0  0  0  0  0  0  0  0  0  0  0  0
   11.7666    6.8756   19.2506 C   0  0  0  0  0  0  0  0  0  0  0  0
   10.5239    7.4053   19.5991 C   0  0  0  0  0  0  0  0  0  0  0  0
    9.9986    7.3042   20.8725 C   0  0  0  0  0  0  0  0  0  0  0  0
    9.3200    5.3301   14.4840 C   0  0  0  0  0  0  0  0  0  0  0  0
    9.4486    7.5806   16.0180 C   0  0  0  0  0  0  0  0  0  0  0  0
   10.4021    7.3637   15.0705 C   0  0  0  0  0  0  0  0  0  0  0  0
   10.2268    6.4141   23.0636 N   0  0  0  0  0  0  0  0  0  0  0  0
    7.2178    8.0859   23.5535 C   0  0  0  0  0  0  0  0  0  0  0  0
    9.1798    6.9026   23.5052 C   0  0  0  0  0  0  0  0  0  0  0  0
   11.9543    6.0295   21.4615 C   0  0  0  0  0  0  0  0  0  0  0  0
  1  5  1  0
  1 13  1  0
  2 20  2  0
  2 28  1  0
  2 29  1  0
  3 19  4  0
  3 25  4  0
  4 23  4  0
  4 27  1  0
  4 30  4  0
  5 17  1  0
  6  8  1  0
  6 29  1  0
  7 24  4  0
  7 26  4  0
  8 28  1  0
  9 13  2  0
 10 18  1  0
 10 21  4  0
 10 30  4  0
 11 17  2  0
 12 18  1  0
 13 15  1  0
 14 24  1  0
 15 25  1  0
 16 28  2  0
 17 20  1  0
 19 24  4  0
 20 23  1  0
 21 22  4  0
 22 23  4  0
 25 26  4  0
 27 29  2  0
M  END
$$$$

 Created by Python create_sdf_string function

 30 33  0  0  0  0  0  0  0  0999 V2000
    8.3014    9.8832   18.4202 C   0  0  0  0  0  0  0  0  0  0  0  0
    8.3377    7.6772   22.7208 C   0  0  0  0  0  0  0  0  0  0  0  0
    8.4173    6.6840   16.2441 C   0  0  0  0  0  0  0  0  0  0  0  0
   10.7434    6.5645   21.7977 C   0  0  0  0  0  0  0  0  0  0  0  0
    8.3539    8.7999   19.2906 O   0  0  0  0  0  0  0  0  0  0  0  0
    8.6855    6.7849   24.8959 C   0  0  0  0  0  0  0  0  0  0  0  0
   10.3351    6.2083   14.2930 C   0  0  0  0  0  0  0  0  0  0  0  0
    7.4308    7.6171   24.9260 C   0  0  0  0  0  0  0  0  0  0  0  0
    8.1011   10.0684   16.0929 O   0  0  0  0  0  0  0  0  0  0  0  0
   12.4548    6.2191   20.2034 C   0  0  0  0  0  0  0  0  0  0  0  0
    6.9151    9.1085   20.8946 O   0  0  0  0  0  0  0  0  0  0  0  0
   14.3708    6.0812   18.8323 C   0  0  0  0  0  0  0  0  0  0  0  0
    8.6688    9.5582   17.0005 C   0  0  0  0  0  0  0  0  0  0  0  0
    9.2506    4.2698   13.7451 O   0  0  0  0  0  0  0  0  0  0  0  0
    9.6051    8.6536   16.8484 N   0  0  0  0  0  0  0  0  0  0  0  0
    6.2587    8.6796   23.2613 O   0  0  0  0  0  0  0  0  0  0  0  0
    7.9283    8.6764   20.5548 C   0  0  0  0  0  0  0  0  0  0  0  0
   13.6649    5.7019   19.8761 O   0  0  0  0  0  0  0  0  0  0  0  0
    8.3598    5.5271   15.4411 C   0  0  0  0  0  0  0  0  0  0  0  0
    8.7493    7.8694   21.4178 C   0  0  0  0  0  0  0  0  0  0  0  0
   11.7545    6.8719   19.2537 C   0  0  0  0  0  0  0  0  0  0  0  0
   10.5140    7.4264   19.5924 C   0  0  0  0  0  0  0  0  0  0  0  0
    9.9965    7.2942   20.8915 C   0  0  0  0  0  0  0  0  0  0  0  0
    9.3251    5.3325   14.4805 C   0  0  0  0  0  0  0  0  0  0  0  0
    9.4315    7.5866   16.0199 C   0  0  0  0  0  0  0  0  0  0  0  0
   10.4339    7.3644   15.0715 C   0  0  0  0  0  0  0  0  0  0  0  0
   10.2251    6.4183   23.0564 N   0  0  0  0  0  0  0  0  0  0  0  0
    7.2231    8.0904   23.5625 C   0  0  0  0  0  0  0  0  0  0  0  0
    9.1747    6.8848   23.4940 C   0  0  0  0  0  0  0  0  0  0  0  0
   11.9293    6.0207   21.4697 C   0  0  0  0  0  0  0  0  0  0  0  0
  1  5  1  0
  1 13  1  0
  2 20  2  0
  2 28  1  0
  2 29  1  0
  3 19  4  0
  3 25  4  0
  4 23  4  0
  4 27  1  0
  4 30  4  0
  5 17  1  0
  6  8  1  0
  6 29  1  0
  7 24  4  0
  7 26  4  0
  8 28  1  0
  9 13  2  0
 10 18  1  0
 10 21  4  0
 10 30  4  0
 11 17  2  0
 12 18  1  0
 13 15  1  0
 14 24  1  0
 15 25  1  0
 16 28  2  0
 17 20  1  0
 19 24  4  0
 20 23  1  0
 21 22  4  0
 22 23  4  0
 25 26  4  0
 27 29  2  0
M  END
$$$$

 Created by Python create_sdf_string function

 30 33  0  0  0  0  0  0  0  0999 V2000
    8.3011    9.8724   18.4222 C   0  0  0  0  0  0  0  0  0  0  0  0
    8.3518    7.6716   22.6980 C   0  0  0  0  0  0  0  0  0  0  0  0
    8.4174    6.6865   16.2379 C   0  0  0  0  0  0  0  0  0  0  0  0
   10.7431    6.5699   21.7817 C   0  0  0  0  0  0  0  0  0  0  0  0
    8.3840    8.7966   19.2867 O   0  0  0  0  0  0  0  0  0  0  0  0
    8.6908    6.7824   24.8857 C   0  0  0  0  0  0  0  0  0  0  0  0
   10.3366    6.2020   14.2953 C   0  0  0  0  0  0  0  0  0  0  0  0
    7.4301    7.6087   24.9185 C   0  0  0  0  0  0  0  0  0  0  0  0
    8.1170   10.0680   16.0727 O   0  0  0  0  0  0  0  0  0  0  0  0
   12.4746    6.2015   20.1977 C   0  0  0  0  0  0  0  0  0  0  0  0
    6.9099    9.1106   20.9023 O   0  0  0  0  0  0  0  0  0  0  0  0
   14.3758    6.0795   18.8175 C   0  0  0  0  0  0  0  0  0  0  0  0
    8.6655    9.5518   17.0054 C   0  0  0  0  0  0  0  0  0  0  0  0
    9.2497    4.2764   13.7541 O   0  0  0  0  0  0  0  0  0  0  0  0
    9.6258    8.6440   16.8399 N   0  0  0  0  0  0  0  0  0  0  0  0
    6.2703    8.6882   23.2431 O   0  0  0  0  0  0  0  0  0  0  0  0
    7.9515    8.6671   20.5499 C   0  0  0  0  0  0  0  0  0  0  0  0
   13.6885    5.7046   19.8743 O   0  0  0  0  0  0  0  0  0  0  0  0
    8.3515    5.5235   15.4460 C   0  0  0  0  0  0  0  0  0  0  0  0
    8.7506    7.8594   21.4116 C   0  0  0  0  0  0  0  0  0  0  0  0
   11.7701    6.8742   19.2564 C   0  0  0  0  0  0  0  0  0  0  0  0
   10.5198    7.4234   19.5941 C   0  0  0  0  0  0  0  0  0  0  0  0
   10.0099    7.2965   20.8727 C   0  0  0  0  0  0  0  0  0  0  0  0
    9.3195    5.3219   14.4828 C   0  0  0  0  0  0  0  0  0  0  0  0
    9.4528    7.5806   16.0156 C   0  0  0  0  0  0  0  0  0  0  0  0
   10.4217    7.3545   15.0834 C   0  0  0  0  0  0  0  0  0  0  0  0
   10.2319    6.4162   23.0489 N   0  0  0  0  0  0  0  0  0  0  0  0
    7.2329    8.0852   23.5390 C   0  0  0  0  0  0  0  0  0  0  0  0
    9.1853    6.9040   23.4826 C   0  0  0  0  0  0  0  0  0  0  0  0
   11.9535    6.0221   21.4488 C   0  0  0  0  0  0  0  0  0  0  0  0
  1  5  1  0
  1 13  1  0
  2 20  2  0
  2 28  1  0
  2 29  1  0
  3 19  4  0
  3 25  4  0
  4 23  4  0
  4 27  1  0
  4 30  4  0
  5 17  1  0
  6  8  1  0
  6 29  1  0
  7 24  4  0
  7 26  4  0
  8 28  1  0
  9 13  2  0
 10 18  1  0
 10 21  4  0
 10 30  4  0
 11 17  2  0
 12 18  1  0
 13 15  1  0
 14 24  1  0
 15 25  1  0
 16 28  2  0
 17 20  1  0
 19 24  4  0
 20 23  1  0
 21 22  4  0
 22 23  4  0
 25 26  4  0
 27 29  2  0
M  END
$$$$

 Created by Python create_sdf_string function

 30 33  0  0  0  0  0  0  0  0999 V2000
    8.2970    9.8784   18.4161 C   0  0  0  0  0  0  0  0  0  0  0  0
    8.3562    7.6670   22.6972 C   0  0  0  0  0  0  0  0  0  0  0  0
    8.4163    6.6876   16.2337 C   0  0  0  0  0  0  0  0  0  0  0  0
   10.7276    6.5644   21.7793 C   0  0  0  0  0  0  0  0  0  0  0  0
    8.3801    8.8072   19.2924 O   0  0  0  0  0  0  0  0  0  0  0  0
    8.6915    6.7915   24.8842 C   0  0  0  0  0  0  0  0  0  0  0  0
   10.3394    6.1919   14.2980 C   0  0  0  0  0  0  0  0  0  0  0  0
    7.4236    7.6019   24.9244 C   0  0  0  0  0  0  0  0  0  0  0  0
    8.1194   10.0692   16.0744 O   0  0  0  0  0  0  0  0  0  0  0  0
   12.4780    6.2151   20.1962 C   0  0  0  0  0  0  0  0  0  0  0  0
    6.9074    9.1122   20.8969 O   0  0  0  0  0  0  0  0  0  0  0  0
   14.3848    6.0780   18.8105 C   0  0  0  0  0  0  0  0  0  0  0  0
    8.6670    9.5470   17.0050 C   0  0  0  0  0  0  0  0  0  0  0  0
    9.2571    4.2745   13.7544 O   0  0  0  0  0  0  0  0  0  0  0  0
    9.6329    8.6404   16.8393 N   0  0  0  0  0  0  0  0  0  0  0  0
    6.2712    8.6782   23.2464 O   0  0  0  0  0  0  0  0  0  0  0  0
    7.9471    8.6621   20.5606 C   0  0  0  0  0  0  0  0  0  0  0  0
   13.6815    5.7051   19.8782 O   0  0  0  0  0  0  0  0  0  0  0  0
    8.3457    5.5239   15.4430 C   0  0  0  0  0  0  0  0  0  0  0  0
    8.7562    7.8618   21.4055 C   0  0  0  0  0  0  0  0  0  0  0  0
   11.7761    6.8719   19.2563 C   0  0  0  0  0  0  0  0  0  0  0  0
   10.5165    7.4262   19.5862 C   0  0  0  0  0  0  0  0  0  0  0  0
   10.0048    7.2820   20.8718 C   0  0  0  0  0  0  0  0  0  0  0  0
    9.3208    5.3166   14.4759 C   0  0  0  0  0  0  0  0  0  0  0  0
    9.4550    7.5789   16.0117 C   0  0  0  0  0  0  0  0  0  0  0  0
   10.4269    7.3476   15.0831 C   0  0  0  0  0  0  0  0  0  0  0  0
   10.2374    6.4231   23.0503 N   0  0  0  0  0  0  0  0  0  0  0  0
    7.2344    8.0818   23.5366 C   0  0  0  0  0  0  0  0  0  0  0  0
    9.1936    6.8886   23.4872 C   0  0  0  0  0  0  0  0  0  0  0  0
   11.9501    6.0261   21.4368 C   0  0  0  0  0  0  0  0  0  0  0  0
  1  5  1  0
  1 13  1  0
  2 20  2  0
  2 28  1  0
  2 29  1  0
  3 19  4  0
  3 25  4  0
  4 23  4  0
  4 27  1  0
  4 30  4  0
  5 17  1  0
  6  8  1  0
  6 29  1  0
  7 24  4  0
  7 26  4  0
  8 28  1  0
  9 13  2  0
 10 18  1  0
 10 21  4  0
 10 30  4  0
 11 17  2  0
 12 18  4  0
 13 15  1  0
 14 24  1  0
 15 25  1  0
 16 28  2  0
 17 20  1  0
 19 24  4  0
 20 23  1  0
 21 22  4  0
 22 23  4  0
 25 26  4  0
 27 29  2  0
M  END
$$$$

 Created by Python create_sdf_string function

 30 33  0  0  0  0  0  0  0  0999 V2000
    8.2989    9.8652   18.4147 C   0  0  0  0  0  0  0  0  0  0  0  0
    8.3627    7.6646   22.6826 C   0  0  0  0  0  0  0  0  0  0  0  0
    8.4139    6.6895   16.2304 C   0  0  0  0  0  0  0  0  0  0  0  0
   10.7436    6.5639   21.7788 C   0  0  0  0  0  0  0  0  0  0  0  0
    8.4129    8.8015   19.2928 O   0  0  0  0  0  0  0  0  0  0  0  0
    8.7009    6.7870   24.8725 C   0  0  0  0  0  0  0  0  0  0  0  0
   10.3386    6.1846   14.3009 C   0  0  0  0  0  0  0  0  0  0  0  0
    7.4261    7.5951   24.9124 C   0  0  0  0  0  0  0  0  0  0  0  0
    8.1375   10.0622   16.0611 O   0  0  0  0  0  0  0  0  0  0  0  0
   12.4881    6.2066   20.1861 C   0  0  0  0  0  0  0  0  0  0  0  0
    6.9153    9.1078   20.9019 O   0  0  0  0  0  0  0  0  0  0  0  0
   14.3959    6.0734   18.7906 C   0  0  0  0  0  0  0  0  0  0  0  0
    8.6717    9.5393   17.0018 C   0  0  0  0  0  0  0  0  0  0  0  0
    9.2514    4.2752   13.7610 O   0  0  0  0  0  0  0  0  0  0  0  0
    9.6411    8.6349   16.8362 N   0  0  0  0  0  0  0  0  0  0  0  0
    6.2808    8.6868   23.2251 O   0  0  0  0  0  0  0  0  0  0  0  0
    7.9672    8.6582   20.5480 C   0  0  0  0  0  0  0  0  0  0  0  0
   13.7108    5.7076   19.8697 O   0  0  0  0  0  0  0  0  0  0  0  0
    8.3371    5.5205   15.4460 C   0  0  0  0  0  0  0  0  0  0  0  0
    8.7609    7.8498   21.4001 C   0  0  0  0  0  0  0  0  0  0  0  0
   11.7806    6.8834   19.2465 C   0  0  0  0  0  0  0  0  0  0  0  0
   10.5152    7.4270   19.5788 C   0  0  0  0  0  0  0  0  0  0  0  0
   10.0121    7.2893   20.8625 C   0  0  0  0  0  0  0  0  0  0  0  0
    9.3145    5.3112   14.4845 C   0  0  0  0  0  0  0  0  0  0  0  0
    9.4598    7.5704   16.0134 C   0  0  0  0  0  0  0  0  0  0  0  0
   10.4189    7.3282   15.0883 C   0  0  0  0  0  0  0  0  0  0  0  0
   10.2417    6.4182   23.0389 N   0  0  0  0  0  0  0  0  0  0  0  0
    7.2404    8.0776   23.5220 C   0  0  0  0  0  0  0  0  0  0  0  0
    9.1956    6.9059   23.4744 C   0  0  0  0  0  0  0  0  0  0  0  0
   11.9519    6.0271   21.4387 C   0  0  0  0  0  0  0  0  0  0  0  0
  1  5  1  0
  1 13  1  0
  2 20  2  0
  2 28  1  0
  2 29  1  0
  3 19  4  0
  3 25  4  0
  4 23  4  0
  4 27  1  0
  4 30  4  0
  5 17  1  0
  6  8  1  0
  6 29  1  0
  7 24  4  0
  7 26  4  0
  8 28  1  0
  9 13  2  0
 10 18  1  0
 10 21  4  0
 10 30  4  0
 11 17  2  0
 12 18  1  0
 13 15  1  0
 14 24  1  0
 15 25  1  0
 16 28  2  0
 17 20  1  0
 19 24  4  0
 20 23  1  0
 21 22  4  0
 22 23  4  0
 25 26  4  0
 27 29  2  0
M  END
$$$$

 Created by Python create_sdf_string function

 30 34  0  0  0  0  0  0  0  0999 V2000
    8.3023    9.8688   18.4210 C   0  0  0  0  0  0  0  0  0  0  0  0
    8.3626    7.6613   22.6809 C   0  0  0  0  0  0  0  0  0  0  0  0
    8.4146    6.6889   16.2386 C   0  0  0  0  0  0  0  0  0  0  0  0
   10.7463    6.5649   21.7791 C   0  0  0  0  0  0  0  0  0  0  0  0
    8.4131    8.8011   19.2882 O   0  0  0  0  0  0  0  0  0  0  0  0
    8.7054    6.7860   24.8697 C   0  0  0  0  0  0  0  0  0  0  0  0
   10.3428    6.1831   14.3048 C   0  0  0  0  0  0  0  0  0  0  0  0
    7.4261    7.5931   24.9116 C   0  0  0  0  0  0  0  0  0  0  0  0
    8.1374   10.0605   16.0626 O   0  0  0  0  0  0  0  0  0  0  0  0
   12.4895    6.2104   20.1857 C   0  0  0  0  0  0  0  0  0  0  0  0
    6.9119    9.1107   20.8988 O   0  0  0  0  0  0  0  0  0  0  0  0
   14.3969    6.0738   18.7883 C   0  0  0  0  0  0  0  0  0  0  0  0
    8.6741    9.5420   17.0031 C   0  0  0  0  0  0  0  0  0  0  0  0
    9.2582    4.2716   13.7573 O   0  0  0  0  0  0  0  0  0  0  0  0
    9.6415    8.6348   16.8306 N   0  0  0  0  0  0  0  0  0  0  0  0
    6.2852    8.6918   23.2237 O   0  0  0  0  0  0  0  0  0  0  0  0
    7.9671    8.6599   20.5495 C   0  0  0  0  0  0  0  0  0  0  0  0
   13.7139    5.7086   19.8706 O   0  0  0  0  0  0  0  0  0  0  0  0
    8.3379    5.5208   15.4437 C   0  0  0  0  0  0  0  0  0  0  0  0
    8.7637    7.8464   21.4031 C   0  0  0  0  0  0  0  0  0  0  0  0
   11.7811    6.8820   19.2449 C   0  0  0  0  0  0  0  0  0  0  0  0
   10.5123    7.4289   19.5785 C   0  0  0  0  0  0  0  0  0  0  0  0
   10.0111    7.2931   20.8571 C   0  0  0  0  0  0  0  0  0  0  0  0
    9.3134    5.3094   14.4871 C   0  0  0  0  0  0  0  0  0  0  0  0
    9.4558    7.5720   16.0135 C   0  0  0  0  0  0  0  0  0  0  0  0
   10.4212    7.3301   15.0922 C   0  0  0  0  0  0  0  0  0  0  0  0
   10.2395    6.4210   23.0375 N   0  0  0  0  0  0  0  0  0  0  0  0
    7.2413    8.0772   23.5177 C   0  0  0  0  0  0  0  0  0  0  0  0
    9.1953    6.9080   23.4729 C   0  0  0  0  0  0  0  0  0  0  0  0
   11.9540    6.0296   21.4304 C   0  0  0  0  0  0  0  0  0  0  0  0
  1  5  1  0
  1 13  1  0
  2 20  2  0
  2 28  1  0
  2 29  1  0
  3 19  4  0
  3 25  4  0
  4 23  4  0
  4 27  1  0
  4 30  4  0
  5 17  1  0
  6  8  1  0
  6 29  1  0
  7 24  4  0
  7 26  4  0
  8 28  1  0
  9 13  2  0
 10 18  1  0
 10 21  4  0
 10 30  4  0
 11 17  2  0
 12 18  1  0
 13 15  1  0
 14 24  1  0
 15 25  1  0
 16 28  2  0
 17 20  1  0
 19 20  4  0
 19 24  4  0
 20 23  1  0
 21 22  4  0
 22 23  4  0
 25 26  4  0
 27 29  2  0
M  END
$$$$

 Created by Python create_sdf_string function

 30 33  0  0  0  0  0  0  0  0999 V2000
    8.3036    9.8571   18.4133 C   0  0  0  0  0  0  0  0  0  0  0  0
    8.3694    7.6612   22.6703 C   0  0  0  0  0  0  0  0  0  0  0  0
    8.4143    6.6863   16.2273 C   0  0  0  0  0  0  0  0  0  0  0  0
   10.7581    6.5674   21.7636 C   0  0  0  0  0  0  0  0  0  0  0  0
    8.4452    8.7960   19.2958 O   0  0  0  0  0  0  0  0  0  0  0  0
    8.7122    6.7842   24.8569 C   0  0  0  0  0  0  0  0  0  0  0  0
   10.3400    6.1726   14.3081 C   0  0  0  0  0  0  0  0  0  0  0  0
    7.4297    7.5873   24.8962 C   0  0  0  0  0  0  0  0  0  0  0  0
    8.1566   10.0536   16.0516 O   0  0  0  0  0  0  0  0  0  0  0  0
   12.4989    6.2074   20.1776 C   0  0  0  0  0  0  0  0  0  0  0  0
    6.9192    9.1053   20.9073 O   0  0  0  0  0  0  0  0  0  0  0  0
   14.3979    6.0729   18.7784 C   0  0  0  0  0  0  0  0  0  0  0  0
    8.6811    9.5354   16.9998 C   0  0  0  0  0  0  0  0  0  0  0  0
    9.2512    4.2713   13.7653 O   0  0  0  0  0  0  0  0  0  0  0  0
    9.6495    8.6317   16.8332 N   0  0  0  0  0  0  0  0  0  0  0  0
    6.2934    8.6988   23.1988 O   0  0  0  0  0  0  0  0  0  0  0  0
    7.9806    8.6543   20.5437 C   0  0  0  0  0  0  0  0  0  0  0  0
   13.7270    5.7144   19.8610 O   0  0  0  0  0  0  0  0  0  0  0  0
    8.3351    5.5235   15.4478 C   0  0  0  0  0  0  0  0  0  0  0  0
    8.7700    7.8434   21.3915 C   0  0  0  0  0  0  0  0  0  0  0  0
   11.7856    6.8851   19.2401 C   0  0  0  0  0  0  0  0  0  0  0  0
   10.5281    7.4276   19.5649 C   0  0  0  0  0  0  0  0  0  0  0  0
   10.0256    7.2907   20.8484 C   0  0  0  0  0  0  0  0  0  0  0  0
    9.3113    5.3049   14.4911 C   0  0  0  0  0  0  0  0  0  0  0  0
    9.4607    7.5646   16.0139 C   0  0  0  0  0  0  0  0  0  0  0  0
   10.4192    7.3157   15.0955 C   0  0  0  0  0  0  0  0  0  0  0  0
   10.2489    6.4227   23.0218 N   0  0  0  0  0  0  0  0  0  0  0  0
    7.2472    8.0746   23.5050 C   0  0  0  0  0  0  0  0  0  0  0  0
    9.2051    6.9101   23.4604 C   0  0  0  0  0  0  0  0  0  0  0  0
   11.9646    6.0299   21.4251 C   0  0  0  0  0  0  0  0  0  0  0  0
  1  5  1  0
  1 13  1  0
  2 20  2  0
  2 28  1  0
  2 29  1  0
  3 19  4  0
  3 25  4  0
  4 23  4  0
  4 27  1  0
  4 30  4  0
  5 17  1  0
  6  8  1  0
  6 29  1  0
  7 24  4  0
  7 26  4  0
  8 28  1  0
  9 13  2  0
 10 18  1  0
 10 21  4  0
 10 30  4  0
 11 17  2  0
 12 18  1  0
 13 15  1  0
 14 24  1  0
 15 25  1  0
 16 28  2  0
 17 20  1  0
 19 24  4  0
 20 23  1  0
 21 22  4  0
 22 23  4  0
 25 26  4  0
 27 29  2  0
M  END
$$$$

 Created by Python create_sdf_string function

 30 33  0  0  0  0  0  0  0  0999 V2000
    8.3036    9.8571   18.4133 C   0  0  0  0  0  0  0  0  0  0  0  0
    8.3694    7.6612   22.6703 C   0  0  0  0  0  0  0  0  0  0  0  0
    8.4143    6.6863   16.2273 C   0  0  0  0  0  0  0  0  0  0  0  0
   10.7581    6.5674   21.7636 C   0  0  0  0  0  0  0  0  0  0  0  0
    8.4452    8.7960   19.2958 O   0  0  0  0  0  0  0  0  0  0  0  0
    8.7122    6.7842   24.8569 C   0  0  0  0  0  0  0  0  0  0  0  0
   10.3400    6.1726   14.3081 C   0  0  0  0  0  0  0  0  0  0  0  0
    7.4297    7.5873   24.8962 C   0  0  0  0  0  0  0  0  0  0  0  0
    8.1566   10.0536   16.0516 O   0  0  0  0  0  0  0  0  0  0  0  0
   12.4989    6.2074   20.1776 C   0  0  0  0  0  0  0  0  0  0  0  0
    6.9192    9.1053   20.9073 O   0  0  0  0  0  0  0  0  0  0  0  0
   14.3979    6.0729   18.7784 C   0  0  0  0  0  0  0  0  0  0  0  0
    8.6811    9.5354   16.9998 C   0  0  0  0  0  0  0  0  0  0  0  0
    9.2512    4.2713   13.7653 O   0  0  0  0  0  0  0  0  0  0  0  0
    9.6495    8.6317   16.8332 N   0  0  0  0  0  0  0  0  0  0  0  0
    6.2934    8.6988   23.1988 O   0  0  0  0  0  0  0  0  0  0  0  0
    7.9806    8.6543   20.5437 C   0  0  0  0  0  0  0  0  0  0  0  0
   13.7270    5.7144   19.8610 O   0  0  0  0  0  0  0  0  0  0  0  0
    8.3351    5.5235   15.4478 C   0  0  0  0  0  0  0  0  0  0  0  0
    8.7700    7.8434   21.3915 C   0  0  0  0  0  0  0  0  0  0  0  0
   11.7856    6.8851   19.2401 C   0  0  0  0  0  0  0  0  0  0  0  0
   10.5281    7.4276   19.5649 C   0  0  0  0  0  0  0  0  0  0  0  0
   10.0256    7.2907   20.8484 C   0  0  0  0  0  0  0  0  0  0  0  0
    9.3113    5.3049   14.4911 C   0  0  0  0  0  0  0  0  0  0  0  0
    9.4607    7.5646   16.0139 C   0  0  0  0  0  0  0  0  0  0  0  0
   10.4192    7.3157   15.0955 C   0  0  0  0  0  0  0  0  0  0  0  0
   10.2489    6.4227   23.0218 N   0  0  0  0  0  0  0  0  0  0  0  0
    7.2472    8.0746   23.5050 C   0  0  0  0  0  0  0  0  0  0  0  0
    9.2051    6.9101   23.4604 C   0  0  0  0  0  0  0  0  0  0  0  0
   11.9646    6.0299   21.4251 C   0  0  0  0  0  0  0  0  0  0  0  0
  1  5  1  0
  1 13  1  0
  2 20  2  0
  2 28  1  0
  2 29  1  0
  3 19  4  0
  3 25  4  0
  4 23  4  0
  4 27  1  0
  4 30  4  0
  5 17  1  0
  6  8  1  0
  6 29  1  0
  7 24  4  0
  7 26  4  0
  8 28  1  0
  9 13  2  0
 10 18  1  0
 10 21  4  0
 10 30  4  0
 11 17  2  0
 12 18  1  0
 13 15  1  0
 14 24  1  0
 15 25  1  0
 16 28  2  0
 17 20  1  0
 19 24  4  0
 20 23  1  0
 21 22  4  0
 22 23  4  0
 25 26  4  0
 27 29  2  0
M  END
$$$$

 Created by Python create_sdf_string function

 30 33  0  0  0  0  0  0  0  0999 V2000
    8.3036    9.8571   18.4133 C   0  0  0  0  0  0  0  0  0  0  0  0
    8.3694    7.6612   22.6703 C   0  0  0  0  0  0  0  0  0  0  0  0
    8.4143    6.6863   16.2273 C   0  0  0  0  0  0  0  0  0  0  0  0
   10.7581    6.5674   21.7636 C   0  0  0  0  0  0  0  0  0  0  0  0
    8.4452    8.7960   19.2958 O   0  0  0  0  0  0  0  0  0  0  0  0
    8.7122    6.7842   24.8569 C   0  0  0  0  0  0  0  0  0  0  0  0
   10.3400    6.1726   14.3081 C   0  0  0  0  0  0  0  0  0  0  0  0
    7.4297    7.5873   24.8962 C   0  0  0  0  0  0  0  0  0  0  0  0
    8.1566   10.0536   16.0516 O   0  0  0  0  0  0  0  0  0  0  0  0
   12.4989    6.2074   20.1776 C   0  0  0  0  0  0  0  0  0  0  0  0
    6.9192    9.1053   20.9073 O   0  0  0  0  0  0  0  0  0  0  0  0
   14.3979    6.0729   18.7784 C   0  0  0  0  0  0  0  0  0  0  0  0
    8.6811    9.5354   16.9998 C   0  0  0  0  0  0  0  0  0  0  0  0
    9.2512    4.2713   13.7653 O   0  0  0  0  0  0  0  0  0  0  0  0
    9.6495    8.6317   16.8332 N   0  0  0  0  0  0  0  0  0  0  0  0
    6.2934    8.6988   23.1988 O   0  0  0  0  0  0  0  0  0  0  0  0
    7.9806    8.6543   20.5437 C   0  0  0  0  0  0  0  0  0  0  0  0
   13.7270    5.7144   19.8610 O   0  0  0  0  0  0  0  0  0  0  0  0
    8.3351    5.5235   15.4478 C   0  0  0  0  0  0  0  0  0  0  0  0
    8.7700    7.8434   21.3915 C   0  0  0  0  0  0  0  0  0  0  0  0
   11.7856    6.8851   19.2401 C   0  0  0  0  0  0  0  0  0  0  0  0
   10.5281    7.4276   19.5649 C   0  0  0  0  0  0  0  0  0  0  0  0
   10.0256    7.2907   20.8484 C   0  0  0  0  0  0  0  0  0  0  0  0
    9.3113    5.3049   14.4911 C   0  0  0  0  0  0  0  0  0  0  0  0
    9.4607    7.5646   16.0139 C   0  0  0  0  0  0  0  0  0  0  0  0
   10.4192    7.3157   15.0955 C   0  0  0  0  0  0  0  0  0  0  0  0
   10.2489    6.4227   23.0218 N   0  0  0  0  0  0  0  0  0  0  0  0
    7.2472    8.0746   23.5050 C   0  0  0  0  0  0  0  0  0  0  0  0
    9.2051    6.9101   23.4604 C   0  0  0  0  0  0  0  0  0  0  0  0
   11.9646    6.0299   21.4251 C   0  0  0  0  0  0  0  0  0  0  0  0
  1  5  1  0
  1 13  1  0
  2 20  2  0
  2 28  1  0
  2 29  1  0
  3 19  4  0
  3 25  4  0
  4 23  4  0
  4 27  1  0
  4 30  4  0
  5 17  1  0
  6  8  1  0
  6 29  1  0
  7 24  4  0
  7 26  4  0
  8 28  1  0
  9 13  2  0
 10 18  1  0
 10 21  4  0
 10 30  4  0
 11 17  2  0
 12 18  1  0
 13 15  1  0
 14 24  1  0
 15 25  1  0
 16 28  2  0
 17 20  1  0
 19 24  4  0
 20 23  1  0
 21 22  4  0
 22 23  4  0
 25 26  4  0
 27 29  2  0
M  END
$$$$

 Created by Python create_sdf_string function

 30 33  0  0  0  0  0  0  0  0999 V2000
    8.3036    9.8571   18.4133 C   0  0  0  0  0  0  0  0  0  0  0  0
    8.3694    7.6612   22.6703 C   0  0  0  0  0  0  0  0  0  0  0  0
    8.4143    6.6863   16.2273 C   0  0  0  0  0  0  0  0  0  0  0  0
   10.7581    6.5674   21.7636 C   0  0  0  0  0  0  0  0  0  0  0  0
    8.4452    8.7960   19.2958 O   0  0  0  0  0  0  0  0  0  0  0  0
    8.7122    6.7842   24.8569 C   0  0  0  0  0  0  0  0  0  0  0  0
   10.3400    6.1726   14.3081 C   0  0  0  0  0  0  0  0  0  0  0  0
    7.4297    7.5873   24.8962 C   0  0  0  0  0  0  0  0  0  0  0  0
    8.1566   10.0536   16.0516 O   0  0  0  0  0  0  0  0  0  0  0  0
   12.4989    6.2074   20.1776 C   0  0  0  0  0  0  0  0  0  0  0  0
    6.9192    9.1053   20.9073 O   0  0  0  0  0  0  0  0  0  0  0  0
   14.3979    6.0729   18.7784 C   0  0  0  0  0  0  0  0  0  0  0  0
    8.6811    9.5354   16.9998 C   0  0  0  0  0  0  0  0  0  0  0  0
    9.2512    4.2713   13.7653 O   0  0  0  0  0  0  0  0  0  0  0  0
    9.6495    8.6317   16.8332 N   0  0  0  0  0  0  0  0  0  0  0  0
    6.2934    8.6988   23.1988 O   0  0  0  0  0  0  0  0  0  0  0  0
    7.9806    8.6543   20.5437 C   0  0  0  0  0  0  0  0  0  0  0  0
   13.7270    5.7144   19.8610 O   0  0  0  0  0  0  0  0  0  0  0  0
    8.3351    5.5235   15.4478 C   0  0  0  0  0  0  0  0  0  0  0  0
    8.7700    7.8434   21.3915 C   0  0  0  0  0  0  0  0  0  0  0  0
   11.7856    6.8851   19.2401 C   0  0  0  0  0  0  0  0  0  0  0  0
   10.5281    7.4276   19.5649 C   0  0  0  0  0  0  0  0  0  0  0  0
   10.0256    7.2907   20.8484 C   0  0  0  0  0  0  0  0  0  0  0  0
    9.3113    5.3049   14.4911 C   0  0  0  0  0  0  0  0  0  0  0  0
    9.4607    7.5646   16.0139 C   0  0  0  0  0  0  0  0  0  0  0  0
   10.4192    7.3157   15.0955 C   0  0  0  0  0  0  0  0  0  0  0  0
   10.2489    6.4227   23.0218 N   0  0  0  0  0  0  0  0  0  0  0  0
    7.2472    8.0746   23.5050 C   0  0  0  0  0  0  0  0  0  0  0  0
    9.2051    6.9101   23.4604 C   0  0  0  0  0  0  0  0  0  0  0  0
   11.9646    6.0299   21.4251 C   0  0  0  0  0  0  0  0  0  0  0  0
  1  5  1  0
  1 13  1  0
  2 20  2  0
  2 28  1  0
  2 29  1  0
  3 19  4  0
  3 25  4  0
  4 23  4  0
  4 27  1  0
  4 30  4  0
  5 17  1  0
  6  8  1  0
  6 29  1  0
  7 24  4  0
  7 26  4  0
  8 28  1  0
  9 13  2  0
 10 18  1  0
 10 21  4  0
 10 30  4  0
 11 17  2  0
 12 18  1  0
 13 15  1  0
 14 24  1  0
 15 25  1  0
 16 28  2  0
 17 20  1  0
 19 24  4  0
 20 23  1  0
 21 22  4  0
 22 23  4  0
 25 26  4  0
 27 29  2  0
M  END
$$$$

 Created by Python create_sdf_string function

 30 33  0  0  0  0  0  0  0  0999 V2000
    8.3036    9.8571   18.4133 C   0  0  0  0  0  0  0  0  0  0  0  0
    8.3694    7.6612   22.6703 C   0  0  0  0  0  0  0  0  0  0  0  0
    8.4143    6.6863   16.2273 C   0  0  0  0  0  0  0  0  0  0  0  0
   10.7581    6.5674   21.7636 C   0  0  0  0  0  0  0  0  0  0  0  0
    8.4452    8.7960   19.2958 O   0  0  0  0  0  0  0  0  0  0  0  0
    8.7122    6.7842   24.8569 C   0  0  0  0  0  0  0  0  0  0  0  0
   10.3400    6.1726   14.3081 C   0  0  0  0  0  0  0  0  0  0  0  0
    7.4297    7.5873   24.8962 C   0  0  0  0  0  0  0  0  0  0  0  0
    8.1566   10.0536   16.0516 O   0  0  0  0  0  0  0  0  0  0  0  0
   12.4989    6.2074   20.1776 C   0  0  0  0  0  0  0  0  0  0  0  0
    6.9192    9.1053   20.9073 O   0  0  0  0  0  0  0  0  0  0  0  0
   14.3979    6.0729   18.7784 C   0  0  0  0  0  0  0  0  0  0  0  0
    8.6811    9.5354   16.9998 C   0  0  0  0  0  0  0  0  0  0  0  0
    9.2512    4.2713   13.7653 O   0  0  0  0  0  0  0  0  0  0  0  0
    9.6495    8.6317   16.8332 N   0  0  0  0  0  0  0  0  0  0  0  0
    6.2934    8.6988   23.1988 O   0  0  0  0  0  0  0  0  0  0  0  0
    7.9806    8.6543   20.5437 C   0  0  0  0  0  0  0  0  0  0  0  0
   13.7270    5.7144   19.8610 O   0  0  0  0  0  0  0  0  0  0  0  0
    8.3351    5.5235   15.4478 C   0  0  0  0  0  0  0  0  0  0  0  0
    8.7700    7.8434   21.3915 C   0  0  0  0  0  0  0  0  0  0  0  0
   11.7856    6.8851   19.2401 C   0  0  0  0  0  0  0  0  0  0  0  0
   10.5281    7.4276   19.5649 C   0  0  0  0  0  0  0  0  0  0  0  0
   10.0256    7.2907   20.8484 C   0  0  0  0  0  0  0  0  0  0  0  0
    9.3113    5.3049   14.4911 C   0  0  0  0  0  0  0  0  0  0  0  0
    9.4607    7.5646   16.0139 C   0  0  0  0  0  0  0  0  0  0  0  0
   10.4192    7.3157   15.0955 C   0  0  0  0  0  0  0  0  0  0  0  0
   10.2489    6.4227   23.0218 N   0  0  0  0  0  0  0  0  0  0  0  0
    7.2472    8.0746   23.5050 C   0  0  0  0  0  0  0  0  0  0  0  0
    9.2051    6.9101   23.4604 C   0  0  0  0  0  0  0  0  0  0  0  0
   11.9646    6.0299   21.4251 C   0  0  0  0  0  0  0  0  0  0  0  0
  1  5  1  0
  1 13  1  0
  2 20  2  0
  2 28  1  0
  2 29  1  0
  3 19  4  0
  3 25  4  0
  4 23  4  0
  4 27  1  0
  4 30  4  0
  5 17  1  0
  6  8  1  0
  6 29  1  0
  7 24  4  0
  7 26  4  0
  8 28  1  0
  9 13  2  0
 10 18  1  0
 10 21  4  0
 10 30  4  0
 11 17  2  0
 12 18  1  0
 13 15  1  0
 14 24  1  0
 15 25  1  0
 16 28  2  0
 17 20  1  0
 19 24  4  0
 20 23  1  0
 21 22  4  0
 22 23  4  0
 25 26  4  0
 27 29  2  0
M  END
$$$$

 Created by Python create_sdf_string function

 30 33  0  0  0  0  0  0  0  0999 V2000
    8.3036    9.8571   18.4133 C   0  0  0  0  0  0  0  0  0  0  0  0
    8.3694    7.6612   22.6703 C   0  0  0  0  0  0  0  0  0  0  0  0
    8.4143    6.6863   16.2273 C   0  0  0  0  0  0  0  0  0  0  0  0
   10.7581    6.5674   21.7636 C   0  0  0  0  0  0  0  0  0  0  0  0
    8.4452    8.7960   19.2958 O   0  0  0  0  0  0  0  0  0  0  0  0
    8.7122    6.7842   24.8569 C   0  0  0  0  0  0  0  0  0  0  0  0
   10.3400    6.1726   14.3081 C   0  0  0  0  0  0  0  0  0  0  0  0
    7.4297    7.5873   24.8962 C   0  0  0  0  0  0  0  0  0  0  0  0
    8.1566   10.0536   16.0516 O   0  0  0  0  0  0  0  0  0  0  0  0
   12.4989    6.2074   20.1776 C   0  0  0  0  0  0  0  0  0  0  0  0
    6.9192    9.1053   20.9073 O   0  0  0  0  0  0  0  0  0  0  0  0
   14.3979    6.0729   18.7784 C   0  0  0  0  0  0  0  0  0  0  0  0
    8.6811    9.5354   16.9998 C   0  0  0  0  0  0  0  0  0  0  0  0
    9.2512    4.2713   13.7653 O   0  0  0  0  0  0  0  0  0  0  0  0
    9.6495    8.6317   16.8332 N   0  0  0  0  0  0  0  0  0  0  0  0
    6.2934    8.6988   23.1988 O   0  0  0  0  0  0  0  0  0  0  0  0
    7.9806    8.6543   20.5437 C   0  0  0  0  0  0  0  0  0  0  0  0
   13.7270    5.7144   19.8610 O   0  0  0  0  0  0  0  0  0  0  0  0
    8.3351    5.5235   15.4478 C   0  0  0  0  0  0  0  0  0  0  0  0
    8.7700    7.8434   21.3915 C   0  0  0  0  0  0  0  0  0  0  0  0
   11.7856    6.8851   19.2401 C   0  0  0  0  0  0  0  0  0  0  0  0
   10.5281    7.4276   19.5649 C   0  0  0  0  0  0  0  0  0  0  0  0
   10.0256    7.2907   20.8484 C   0  0  0  0  0  0  0  0  0  0  0  0
    9.3113    5.3049   14.4911 C   0  0  0  0  0  0  0  0  0  0  0  0
    9.4607    7.5646   16.0139 C   0  0  0  0  0  0  0  0  0  0  0  0
   10.4192    7.3157   15.0955 C   0  0  0  0  0  0  0  0  0  0  0  0
   10.2489    6.4227   23.0218 N   0  0  0  0  0  0  0  0  0  0  0  0
    7.2472    8.0746   23.5050 C   0  0  0  0  0  0  0  0  0  0  0  0
    9.2051    6.9101   23.4604 C   0  0  0  0  0  0  0  0  0  0  0  0
   11.9646    6.0299   21.4251 C   0  0  0  0  0  0  0  0  0  0  0  0
  1  5  1  0
  1 13  1  0
  2 20  2  0
  2 28  1  0
  2 29  1  0
  3 19  4  0
  3 25  4  0
  4 23  4  0
  4 27  1  0
  4 30  4  0
  5 17  1  0
  6  8  1  0
  6 29  1  0
  7 24  4  0
  7 26  4  0
  8 28  1  0
  9 13  2  0
 10 18  1  0
 10 21  4  0
 10 30  4  0
 11 17  2  0
 12 18  1  0
 13 15  1  0
 14 24  1  0
 15 25  1  0
 16 28  2  0
 17 20  1  0
 19 24  4  0
 20 23  1  0
 21 22  4  0
 22 23  4  0
 25 26  4  0
 27 29  2  0
M  END
$$$$

 Created by Python create_sdf_string function

 30 33  0  0  0  0  0  0  0  0999 V2000
    8.3036    9.8571   18.4133 C   0  0  0  0  0  0  0  0  0  0  0  0
    8.3694    7.6612   22.6703 C   0  0  0  0  0  0  0  0  0  0  0  0
    8.4143    6.6863   16.2273 C   0  0  0  0  0  0  0  0  0  0  0  0
   10.7581    6.5674   21.7636 C   0  0  0  0  0  0  0  0  0  0  0  0
    8.4452    8.7960   19.2958 O   0  0  0  0  0  0  0  0  0  0  0  0
    8.7122    6.7842   24.8569 C   0  0  0  0  0  0  0  0  0  0  0  0
   10.3400    6.1726   14.3081 C   0  0  0  0  0  0  0  0  0  0  0  0
    7.4297    7.5873   24.8962 C   0  0  0  0  0  0  0  0  0  0  0  0
    8.1566   10.0536   16.0516 O   0  0  0  0  0  0  0  0  0  0  0  0
   12.4989    6.2074   20.1776 C   0  0  0  0  0  0  0  0  0  0  0  0
    6.9192    9.1053   20.9073 O   0  0  0  0  0  0  0  0  0  0  0  0
   14.3979    6.0729   18.7784 C   0  0  0  0  0  0  0  0  0  0  0  0
    8.6811    9.5354   16.9998 C   0  0  0  0  0  0  0  0  0  0  0  0
    9.2512    4.2713   13.7653 O   0  0  0  0  0  0  0  0  0  0  0  0
    9.6495    8.6317   16.8332 N   0  0  0  0  0  0  0  0  0  0  0  0
    6.2934    8.6988   23.1988 O   0  0  0  0  0  0  0  0  0  0  0  0
    7.9806    8.6543   20.5437 C   0  0  0  0  0  0  0  0  0  0  0  0
   13.7270    5.7144   19.8610 O   0  0  0  0  0  0  0  0  0  0  0  0
    8.3351    5.5235   15.4478 C   0  0  0  0  0  0  0  0  0  0  0  0
    8.7700    7.8434   21.3915 C   0  0  0  0  0  0  0  0  0  0  0  0
   11.7856    6.8851   19.2401 C   0  0  0  0  0  0  0  0  0  0  0  0
   10.5281    7.4276   19.5649 C   0  0  0  0  0  0  0  0  0  0  0  0
   10.0256    7.2907   20.8484 C   0  0  0  0  0  0  0  0  0  0  0  0
    9.3113    5.3049   14.4911 C   0  0  0  0  0  0  0  0  0  0  0  0
    9.4607    7.5646   16.0139 C   0  0  0  0  0  0  0  0  0  0  0  0
   10.4192    7.3157   15.0955 C   0  0  0  0  0  0  0  0  0  0  0  0
   10.2489    6.4227   23.0218 N   0  0  0  0  0  0  0  0  0  0  0  0
    7.2472    8.0746   23.5050 C   0  0  0  0  0  0  0  0  0  0  0  0
    9.2051    6.9101   23.4604 C   0  0  0  0  0  0  0  0  0  0  0  0
   11.9646    6.0299   21.4251 C   0  0  0  0  0  0  0  0  0  0  0  0
  1  5  1  0
  1 13  1  0
  2 20  2  0
  2 28  1  0
  2 29  1  0
  3 19  4  0
  3 25  4  0
  4 23  4  0
  4 27  1  0
  4 30  4  0
  5 17  1  0
  6  8  1  0
  6 29  1  0
  7 24  4  0
  7 26  4  0
  8 28  1  0
  9 13  2  0
 10 18  1  0
 10 21  4  0
 10 30  4  0
 11 17  2  0
 12 18  1  0
 13 15  1  0
 14 24  1  0
 15 25  1  0
 16 28  2  0
 17 20  1  0
 19 24  4  0
 20 23  1  0
 21 22  4  0
 22 23  4  0
 25 26  4  0
 27 29  2  0
M  END
$$$$

 Created by Python create_sdf_string function

 30 33  0  0  0  0  0  0  0  0999 V2000
    8.3036    9.8571   18.4133 C   0  0  0  0  0  0  0  0  0  0  0  0
    8.3694    7.6612   22.6703 C   0  0  0  0  0  0  0  0  0  0  0  0
    8.4143    6.6863   16.2273 C   0  0  0  0  0  0  0  0  0  0  0  0
   10.7581    6.5674   21.7636 C   0  0  0  0  0  0  0  0  0  0  0  0
    8.4452    8.7960   19.2958 O   0  0  0  0  0  0  0  0  0  0  0  0
    8.7122    6.7842   24.8569 C   0  0  0  0  0  0  0  0  0  0  0  0
   10.3400    6.1726   14.3081 C   0  0  0  0  0  0  0  0  0  0  0  0
    7.4297    7.5873   24.8962 C   0  0  0  0  0  0  0  0  0  0  0  0
    8.1566   10.0536   16.0516 O   0  0  0  0  0  0  0  0  0  0  0  0
   12.4989    6.2074   20.1776 C   0  0  0  0  0  0  0  0  0  0  0  0
    6.9192    9.1053   20.9073 O   0  0  0  0  0  0  0  0  0  0  0  0
   14.3979    6.0729   18.7784 C   0  0  0  0  0  0  0  0  0  0  0  0
    8.6811    9.5354   16.9998 C   0  0  0  0  0  0  0  0  0  0  0  0
    9.2512    4.2713   13.7653 O   0  0  0  0  0  0  0  0  0  0  0  0
    9.6495    8.6317   16.8332 N   0  0  0  0  0  0  0  0  0  0  0  0
    6.2934    8.6988   23.1988 O   0  0  0  0  0  0  0  0  0  0  0  0
    7.9806    8.6543   20.5437 C   0  0  0  0  0  0  0  0  0  0  0  0
   13.7270    5.7144   19.8610 O   0  0  0  0  0  0  0  0  0  0  0  0
    8.3351    5.5235   15.4478 C   0  0  0  0  0  0  0  0  0  0  0  0
    8.7700    7.8434   21.3915 C   0  0  0  0  0  0  0  0  0  0  0  0
   11.7856    6.8851   19.2401 C   0  0  0  0  0  0  0  0  0  0  0  0
   10.5281    7.4276   19.5649 C   0  0  0  0  0  0  0  0  0  0  0  0
   10.0256    7.2907   20.8484 C   0  0  0  0  0  0  0  0  0  0  0  0
    9.3113    5.3049   14.4911 C   0  0  0  0  0  0  0  0  0  0  0  0
    9.4607    7.5646   16.0139 C   0  0  0  0  0  0  0  0  0  0  0  0
   10.4192    7.3157   15.0955 C   0  0  0  0  0  0  0  0  0  0  0  0
   10.2489    6.4227   23.0218 N   0  0  0  0  0  0  0  0  0  0  0  0
    7.2472    8.0746   23.5050 C   0  0  0  0  0  0  0  0  0  0  0  0
    9.2051    6.9101   23.4604 C   0  0  0  0  0  0  0  0  0  0  0  0
   11.9646    6.0299   21.4251 C   0  0  0  0  0  0  0  0  0  0  0  0
  1  5  1  0
  1 13  1  0
  2 20  2  0
  2 28  1  0
  2 29  1  0
  3 19  4  0
  3 25  4  0
  4 23  4  0
  4 27  1  0
  4 30  4  0
  5 17  1  0
  6  8  1  0
  6 29  1  0
  7 24  4  0
  7 26  4  0
  8 28  1  0
  9 13  2  0
 10 18  1  0
 10 21  4  0
 10 30  4  0
 11 17  2  0
 12 18  1  0
 13 15  1  0
 14 24  1  0
 15 25  1  0
 16 28  2  0
 17 20  1  0
 19 24  4  0
 20 23  1  0
 21 22  4  0
 22 23  4  0
 25 26  4  0
 27 29  2  0
M  END
$$$$

 Created by Python create_sdf_string function

 30 33  0  0  0  0  0  0  0  0999 V2000
    8.3036    9.8571   18.4133 C   0  0  0  0  0  0  0  0  0  0  0  0
    8.3694    7.6612   22.6703 C   0  0  0  0  0  0  0  0  0  0  0  0
    8.4143    6.6863   16.2273 C   0  0  0  0  0  0  0  0  0  0  0  0
   10.7581    6.5674   21.7636 C   0  0  0  0  0  0  0  0  0  0  0  0
    8.4452    8.7960   19.2958 O   0  0  0  0  0  0  0  0  0  0  0  0
    8.7122    6.7842   24.8569 C   0  0  0  0  0  0  0  0  0  0  0  0
   10.3400    6.1726   14.3081 C   0  0  0  0  0  0  0  0  0  0  0  0
    7.4297    7.5873   24.8962 C   0  0  0  0  0  0  0  0  0  0  0  0
    8.1566   10.0536   16.0516 O   0  0  0  0  0  0  0  0  0  0  0  0
   12.4989    6.2074   20.1776 C   0  0  0  0  0  0  0  0  0  0  0  0
    6.9192    9.1053   20.9073 O   0  0  0  0  0  0  0  0  0  0  0  0
   14.3979    6.0729   18.7784 C   0  0  0  0  0  0  0  0  0  0  0  0
    8.6811    9.5354   16.9998 C   0  0  0  0  0  0  0  0  0  0  0  0
    9.2512    4.2713   13.7653 O   0  0  0  0  0  0  0  0  0  0  0  0
    9.6495    8.6317   16.8332 N   0  0  0  0  0  0  0  0  0  0  0  0
    6.2934    8.6988   23.1988 O   0  0  0  0  0  0  0  0  0  0  0  0
    7.9806    8.6543   20.5437 C   0  0  0  0  0  0  0  0  0  0  0  0
   13.7270    5.7144   19.8610 O   0  0  0  0  0  0  0  0  0  0  0  0
    8.3351    5.5235   15.4478 C   0  0  0  0  0  0  0  0  0  0  0  0
    8.7700    7.8434   21.3915 C   0  0  0  0  0  0  0  0  0  0  0  0
   11.7856    6.8851   19.2401 C   0  0  0  0  0  0  0  0  0  0  0  0
   10.5281    7.4276   19.5649 C   0  0  0  0  0  0  0  0  0  0  0  0
   10.0256    7.2907   20.8484 C   0  0  0  0  0  0  0  0  0  0  0  0
    9.3113    5.3049   14.4911 C   0  0  0  0  0  0  0  0  0  0  0  0
    9.4607    7.5646   16.0139 C   0  0  0  0  0  0  0  0  0  0  0  0
   10.4192    7.3157   15.0955 C   0  0  0  0  0  0  0  0  0  0  0  0
   10.2489    6.4227   23.0218 N   0  0  0  0  0  0  0  0  0  0  0  0
    7.2472    8.0746   23.5050 C   0  0  0  0  0  0  0  0  0  0  0  0
    9.2051    6.9101   23.4604 C   0  0  0  0  0  0  0  0  0  0  0  0
   11.9646    6.0299   21.4251 C   0  0  0  0  0  0  0  0  0  0  0  0
  1  5  1  0
  1 13  1  0
  2 20  2  0
  2 28  1  0
  2 29  1  0
  3 19  4  0
  3 25  4  0
  4 23  4  0
  4 27  1  0
  4 30  4  0
  5 17  1  0
  6  8  1  0
  6 29  1  0
  7 24  4  0
  7 26  4  0
  8 28  1  0
  9 13  2  0
 10 18  1  0
 10 21  4  0
 10 30  4  0
 11 17  2  0
 12 18  1  0
 13 15  1  0
 14 24  1  0
 15 25  1  0
 16 28  2  0
 17 20  1  0
 19 24  4  0
 20 23  1  0
 21 22  4  0
 22 23  4  0
 25 26  4  0
 27 29  2  0
M  END
$$$$

 Created by Python create_sdf_string function

 30 33  0  0  0  0  0  0  0  0999 V2000
    8.3036    9.8571   18.4133 C   0  0  0  0  0  0  0  0  0  0  0  0
    8.3694    7.6612   22.6703 C   0  0  0  0  0  0  0  0  0  0  0  0
    8.4143    6.6863   16.2273 C   0  0  0  0  0  0  0  0  0  0  0  0
   10.7581    6.5674   21.7636 C   0  0  0  0  0  0  0  0  0  0  0  0
    8.4452    8.7960   19.2958 O   0  0  0  0  0  0  0  0  0  0  0  0
    8.7122    6.7842   24.8569 C   0  0  0  0  0  0  0  0  0  0  0  0
   10.3400    6.1726   14.3081 C   0  0  0  0  0  0  0  0  0  0  0  0
    7.4297    7.5873   24.8962 C   0  0  0  0  0  0  0  0  0  0  0  0
    8.1566   10.0536   16.0516 O   0  0  0  0  0  0  0  0  0  0  0  0
   12.4989    6.2074   20.1776 C   0  0  0  0  0  0  0  0  0  0  0  0
    6.9192    9.1053   20.9073 O   0  0  0  0  0  0  0  0  0  0  0  0
   14.3979    6.0729   18.7784 C   0  0  0  0  0  0  0  0  0  0  0  0
    8.6811    9.5354   16.9998 C   0  0  0  0  0  0  0  0  0  0  0  0
    9.2512    4.2713   13.7653 O   0  0  0  0  0  0  0  0  0  0  0  0
    9.6495    8.6317   16.8332 N   0  0  0  0  0  0  0  0  0  0  0  0
    6.2934    8.6988   23.1988 O   0  0  0  0  0  0  0  0  0  0  0  0
    7.9806    8.6543   20.5437 C   0  0  0  0  0  0  0  0  0  0  0  0
   13.7270    5.7144   19.8610 O   0  0  0  0  0  0  0  0  0  0  0  0
    8.3351    5.5235   15.4478 C   0  0  0  0  0  0  0  0  0  0  0  0
    8.7700    7.8434   21.3915 C   0  0  0  0  0  0  0  0  0  0  0  0
   11.7856    6.8851   19.2401 C   0  0  0  0  0  0  0  0  0  0  0  0
   10.5281    7.4276   19.5649 C   0  0  0  0  0  0  0  0  0  0  0  0
   10.0256    7.2907   20.8484 C   0  0  0  0  0  0  0  0  0  0  0  0
    9.3113    5.3049   14.4911 C   0  0  0  0  0  0  0  0  0  0  0  0
    9.4607    7.5646   16.0139 C   0  0  0  0  0  0  0  0  0  0  0  0
   10.4192    7.3157   15.0955 C   0  0  0  0  0  0  0  0  0  0  0  0
   10.2489    6.4227   23.0218 N   0  0  0  0  0  0  0  0  0  0  0  0
    7.2472    8.0746   23.5050 C   0  0  0  0  0  0  0  0  0  0  0  0
    9.2051    6.9101   23.4604 C   0  0  0  0  0  0  0  0  0  0  0  0
   11.9646    6.0299   21.4251 C   0  0  0  0  0  0  0  0  0  0  0  0
  1  5  1  0
  1 13  1  0
  2 20  2  0
  2 28  1  0
  2 29  1  0
  3 19  4  0
  3 25  4  0
  4 23  4  0
  4 27  1  0
  4 30  4  0
  5 17  1  0
  6  8  1  0
  6 29  1  0
  7 24  4  0
  7 26  4  0
  8 28  1  0
  9 13  2  0
 10 18  1  0
 10 21  4  0
 10 30  4  0
 11 17  2  0
 12 18  1  0
 13 15  1  0
 14 24  1  0
 15 25  1  0
 16 28  2  0
 17 20  1  0
 19 24  4  0
 20 23  1  0
 21 22  4  0
 22 23  4  0
 25 26  4  0
 27 29  2  0
M  END
$$$$

 Created by Python create_sdf_string function

 30 33  0  0  0  0  0  0  0  0999 V2000
    8.3036    9.8571   18.4133 C   0  0  0  0  0  0  0  0  0  0  0  0
    8.3694    7.6612   22.6703 C   0  0  0  0  0  0  0  0  0  0  0  0
    8.4143    6.6863   16.2273 C   0  0  0  0  0  0  0  0  0  0  0  0
   10.7581    6.5674   21.7636 C   0  0  0  0  0  0  0  0  0  0  0  0
    8.4452    8.7960   19.2958 O   0  0  0  0  0  0  0  0  0  0  0  0
    8.7122    6.7842   24.8569 C   0  0  0  0  0  0  0  0  0  0  0  0
   10.3400    6.1726   14.3081 C   0  0  0  0  0  0  0  0  0  0  0  0
    7.4297    7.5873   24.8962 C   0  0  0  0  0  0  0  0  0  0  0  0
    8.1566   10.0536   16.0516 O   0  0  0  0  0  0  0  0  0  0  0  0
   12.4989    6.2074   20.1776 C   0  0  0  0  0  0  0  0  0  0  0  0
    6.9192    9.1053   20.9073 O   0  0  0  0  0  0  0  0  0  0  0  0
   14.3979    6.0729   18.7784 C   0  0  0  0  0  0  0  0  0  0  0  0
    8.6811    9.5354   16.9998 C   0  0  0  0  0  0  0  0  0  0  0  0
    9.2512    4.2713   13.7653 O   0  0  0  0  0  0  0  0  0  0  0  0
    9.6495    8.6317   16.8332 N   0  0  0  0  0  0  0  0  0  0  0  0
    6.2934    8.6988   23.1988 O   0  0  0  0  0  0  0  0  0  0  0  0
    7.9806    8.6543   20.5437 C   0  0  0  0  0  0  0  0  0  0  0  0
   13.7270    5.7144   19.8610 O   0  0  0  0  0  0  0  0  0  0  0  0
    8.3351    5.5235   15.4478 C   0  0  0  0  0  0  0  0  0  0  0  0
    8.7700    7.8434   21.3915 C   0  0  0  0  0  0  0  0  0  0  0  0
   11.7856    6.8851   19.2401 C   0  0  0  0  0  0  0  0  0  0  0  0
   10.5281    7.4276   19.5649 C   0  0  0  0  0  0  0  0  0  0  0  0
   10.0256    7.2907   20.8484 C   0  0  0  0  0  0  0  0  0  0  0  0
    9.3113    5.3049   14.4911 C   0  0  0  0  0  0  0  0  0  0  0  0
    9.4607    7.5646   16.0139 C   0  0  0  0  0  0  0  0  0  0  0  0
   10.4192    7.3157   15.0955 C   0  0  0  0  0  0  0  0  0  0  0  0
   10.2489    6.4227   23.0218 N   0  0  0  0  0  0  0  0  0  0  0  0
    7.2472    8.0746   23.5050 C   0  0  0  0  0  0  0  0  0  0  0  0
    9.2051    6.9101   23.4604 C   0  0  0  0  0  0  0  0  0  0  0  0
   11.9646    6.0299   21.4251 C   0  0  0  0  0  0  0  0  0  0  0  0
  1  5  1  0
  1 13  1  0
  2 20  2  0
  2 28  1  0
  2 29  1  0
  3 19  4  0
  3 25  4  0
  4 23  4  0
  4 27  1  0
  4 30  4  0
  5 17  1  0
  6  8  1  0
  6 29  1  0
  7 24  4  0
  7 26  4  0
  8 28  1  0
  9 13  2  0
 10 18  1  0
 10 21  4  0
 10 30  4  0
 11 17  2  0
 12 18  1  0
 13 15  1  0
 14 24  1  0
 15 25  1  0
 16 28  2  0
 17 20  1  0
 19 24  4  0
 20 23  1  0
 21 22  4  0
 22 23  4  0
 25 26  4  0
 27 29  2  0
M  END
$$$$

 Created by Python create_sdf_string function

 30 33  0  0  0  0  0  0  0  0999 V2000
    8.3036    9.8571   18.4133 C   0  0  0  0  0  0  0  0  0  0  0  0
    8.3694    7.6612   22.6703 C   0  0  0  0  0  0  0  0  0  0  0  0
    8.4143    6.6863   16.2273 C   0  0  0  0  0  0  0  0  0  0  0  0
   10.7581    6.5674   21.7636 C   0  0  0  0  0  0  0  0  0  0  0  0
    8.4452    8.7960   19.2958 O   0  0  0  0  0  0  0  0  0  0  0  0
    8.7122    6.7842   24.8569 C   0  0  0  0  0  0  0  0  0  0  0  0
   10.3400    6.1726   14.3081 C   0  0  0  0  0  0  0  0  0  0  0  0
    7.4297    7.5873   24.8962 C   0  0  0  0  0  0  0  0  0  0  0  0
    8.1566   10.0536   16.0516 O   0  0  0  0  0  0  0  0  0  0  0  0
   12.4989    6.2074   20.1776 C   0  0  0  0  0  0  0  0  0  0  0  0
    6.9192    9.1053   20.9073 O   0  0  0  0  0  0  0  0  0  0  0  0
   14.3979    6.0729   18.7784 C   0  0  0  0  0  0  0  0  0  0  0  0
    8.6811    9.5354   16.9998 C   0  0  0  0  0  0  0  0  0  0  0  0
    9.2512    4.2713   13.7653 O   0  0  0  0  0  0  0  0  0  0  0  0
    9.6495    8.6317   16.8332 N   0  0  0  0  0  0  0  0  0  0  0  0
    6.2934    8.6988   23.1988 O   0  0  0  0  0  0  0  0  0  0  0  0
    7.9806    8.6543   20.5437 C   0  0  0  0  0  0  0  0  0  0  0  0
   13.7270    5.7144   19.8610 O   0  0  0  0  0  0  0  0  0  0  0  0
    8.3351    5.5235   15.4478 C   0  0  0  0  0  0  0  0  0  0  0  0
    8.7700    7.8434   21.3915 C   0  0  0  0  0  0  0  0  0  0  0  0
   11.7856    6.8851   19.2401 C   0  0  0  0  0  0  0  0  0  0  0  0
   10.5281    7.4276   19.5649 C   0  0  0  0  0  0  0  0  0  0  0  0
   10.0256    7.2907   20.8484 C   0  0  0  0  0  0  0  0  0  0  0  0
    9.3113    5.3049   14.4911 C   0  0  0  0  0  0  0  0  0  0  0  0
    9.4607    7.5646   16.0139 C   0  0  0  0  0  0  0  0  0  0  0  0
   10.4192    7.3157   15.0955 C   0  0  0  0  0  0  0  0  0  0  0  0
   10.2489    6.4227   23.0218 N   0  0  0  0  0  0  0  0  0  0  0  0
    7.2472    8.0746   23.5050 C   0  0  0  0  0  0  0  0  0  0  0  0
    9.2051    6.9101   23.4604 C   0  0  0  0  0  0  0  0  0  0  0  0
   11.9646    6.0299   21.4251 C   0  0  0  0  0  0  0  0  0  0  0  0
  1  5  1  0
  1 13  1  0
  2 20  2  0
  2 28  1  0
  2 29  1  0
  3 19  4  0
  3 25  4  0
  4 23  4  0
  4 27  1  0
  4 30  4  0
  5 17  1  0
  6  8  1  0
  6 29  1  0
  7 24  4  0
  7 26  4  0
  8 28  1  0
  9 13  2  0
 10 18  1  0
 10 21  4  0
 10 30  4  0
 11 17  2  0
 12 18  1  0
 13 15  1  0
 14 24  1  0
 15 25  1  0
 16 28  2  0
 17 20  1  0
 19 24  4  0
 20 23  1  0
 21 22  4  0
 22 23  4  0
 25 26  4  0
 27 29  2  0
M  END
$$$$

 Created by Python create_sdf_string function

 30 33  0  0  0  0  0  0  0  0999 V2000
    8.3036    9.8571   18.4133 C   0  0  0  0  0  0  0  0  0  0  0  0
    8.3694    7.6612   22.6703 C   0  0  0  0  0  0  0  0  0  0  0  0
    8.4143    6.6863   16.2273 C   0  0  0  0  0  0  0  0  0  0  0  0
   10.7581    6.5674   21.7636 C   0  0  0  0  0  0  0  0  0  0  0  0
    8.4452    8.7960   19.2958 O   0  0  0  0  0  0  0  0  0  0  0  0
    8.7122    6.7842   24.8569 C   0  0  0  0  0  0  0  0  0  0  0  0
   10.3400    6.1726   14.3081 C   0  0  0  0  0  0  0  0  0  0  0  0
    7.4297    7.5873   24.8962 C   0  0  0  0  0  0  0  0  0  0  0  0
    8.1566   10.0536   16.0516 O   0  0  0  0  0  0  0  0  0  0  0  0
   12.4989    6.2074   20.1776 C   0  0  0  0  0  0  0  0  0  0  0  0
    6.9192    9.1053   20.9073 O   0  0  0  0  0  0  0  0  0  0  0  0
   14.3979    6.0729   18.7784 C   0  0  0  0  0  0  0  0  0  0  0  0
    8.6811    9.5354   16.9998 C   0  0  0  0  0  0  0  0  0  0  0  0
    9.2512    4.2713   13.7653 O   0  0  0  0  0  0  0  0  0  0  0  0
    9.6495    8.6317   16.8332 N   0  0  0  0  0  0  0  0  0  0  0  0
    6.2934    8.6988   23.1988 O   0  0  0  0  0  0  0  0  0  0  0  0
    7.9806    8.6543   20.5437 C   0  0  0  0  0  0  0  0  0  0  0  0
   13.7270    5.7144   19.8610 O   0  0  0  0  0  0  0  0  0  0  0  0
    8.3351    5.5235   15.4478 C   0  0  0  0  0  0  0  0  0  0  0  0
    8.7700    7.8434   21.3915 C   0  0  0  0  0  0  0  0  0  0  0  0
   11.7856    6.8851   19.2401 C   0  0  0  0  0  0  0  0  0  0  0  0
   10.5281    7.4276   19.5649 C   0  0  0  0  0  0  0  0  0  0  0  0
   10.0256    7.2907   20.8484 C   0  0  0  0  0  0  0  0  0  0  0  0
    9.3113    5.3049   14.4911 C   0  0  0  0  0  0  0  0  0  0  0  0
    9.4607    7.5646   16.0139 C   0  0  0  0  0  0  0  0  0  0  0  0
   10.4192    7.3157   15.0955 C   0  0  0  0  0  0  0  0  0  0  0  0
   10.2489    6.4227   23.0218 N   0  0  0  0  0  0  0  0  0  0  0  0
    7.2472    8.0746   23.5050 C   0  0  0  0  0  0  0  0  0  0  0  0
    9.2051    6.9101   23.4604 C   0  0  0  0  0  0  0  0  0  0  0  0
   11.9646    6.0299   21.4251 C   0  0  0  0  0  0  0  0  0  0  0  0
  1  5  1  0
  1 13  1  0
  2 20  2  0
  2 28  1  0
  2 29  1  0
  3 19  4  0
  3 25  4  0
  4 23  4  0
  4 27  1  0
  4 30  4  0
  5 17  1  0
  6  8  1  0
  6 29  1  0
  7 24  4  0
  7 26  4  0
  8 28  1  0
  9 13  2  0
 10 18  1  0
 10 21  4  0
 10 30  4  0
 11 17  2  0
 12 18  1  0
 13 15  1  0
 14 24  1  0
 15 25  1  0
 16 28  2  0
 17 20  1  0
 19 24  4  0
 20 23  1  0
 21 22  4  0
 22 23  4  0
 25 26  4  0
 27 29  2  0
M  END
$$$$

 Created by Python create_sdf_string function

 30 33  0  0  0  0  0  0  0  0999 V2000
    8.3036    9.8571   18.4133 C   0  0  0  0  0  0  0  0  0  0  0  0
    8.3694    7.6612   22.6703 C   0  0  0  0  0  0  0  0  0  0  0  0
    8.4143    6.6863   16.2273 C   0  0  0  0  0  0  0  0  0  0  0  0
   10.7581    6.5674   21.7636 C   0  0  0  0  0  0  0  0  0  0  0  0
    8.4452    8.7960   19.2958 O   0  0  0  0  0  0  0  0  0  0  0  0
    8.7122    6.7842   24.8569 C   0  0  0  0  0  0  0  0  0  0  0  0
   10.3400    6.1726   14.3081 C   0  0  0  0  0  0  0  0  0  0  0  0
    7.4297    7.5873   24.8962 C   0  0  0  0  0  0  0  0  0  0  0  0
    8.1566   10.0536   16.0516 O   0  0  0  0  0  0  0  0  0  0  0  0
   12.4989    6.2074   20.1776 C   0  0  0  0  0  0  0  0  0  0  0  0
    6.9192    9.1053   20.9073 O   0  0  0  0  0  0  0  0  0  0  0  0
   14.3979    6.0729   18.7784 C   0  0  0  0  0  0  0  0  0  0  0  0
    8.6811    9.5354   16.9998 C   0  0  0  0  0  0  0  0  0  0  0  0
    9.2512    4.2713   13.7653 O   0  0  0  0  0  0  0  0  0  0  0  0
    9.6495    8.6317   16.8332 N   0  0  0  0  0  0  0  0  0  0  0  0
    6.2934    8.6988   23.1988 O   0  0  0  0  0  0  0  0  0  0  0  0
    7.9806    8.6543   20.5437 C   0  0  0  0  0  0  0  0  0  0  0  0
   13.7270    5.7144   19.8610 O   0  0  0  0  0  0  0  0  0  0  0  0
    8.3351    5.5235   15.4478 C   0  0  0  0  0  0  0  0  0  0  0  0
    8.7700    7.8434   21.3915 C   0  0  0  0  0  0  0  0  0  0  0  0
   11.7856    6.8851   19.2401 C   0  0  0  0  0  0  0  0  0  0  0  0
   10.5281    7.4276   19.5649 C   0  0  0  0  0  0  0  0  0  0  0  0
   10.0256    7.2907   20.8484 C   0  0  0  0  0  0  0  0  0  0  0  0
    9.3113    5.3049   14.4911 C   0  0  0  0  0  0  0  0  0  0  0  0
    9.4607    7.5646   16.0139 C   0  0  0  0  0  0  0  0  0  0  0  0
   10.4192    7.3157   15.0955 C   0  0  0  0  0  0  0  0  0  0  0  0
   10.2489    6.4227   23.0218 N   0  0  0  0  0  0  0  0  0  0  0  0
    7.2472    8.0746   23.5050 C   0  0  0  0  0  0  0  0  0  0  0  0
    9.2051    6.9101   23.4604 C   0  0  0  0  0  0  0  0  0  0  0  0
   11.9646    6.0299   21.4251 C   0  0  0  0  0  0  0  0  0  0  0  0
  1  5  1  0
  1 13  1  0
  2 20  2  0
  2 28  1  0
  2 29  1  0
  3 19  4  0
  3 25  4  0
  4 23  4  0
  4 27  1  0
  4 30  4  0
  5 17  1  0
  6  8  1  0
  6 29  1  0
  7 24  4  0
  7 26  4  0
  8 28  1  0
  9 13  2  0
 10 18  1  0
 10 21  4  0
 10 30  4  0
 11 17  2  0
 12 18  1  0
 13 15  1  0
 14 24  1  0
 15 25  1  0
 16 28  2  0
 17 20  1  0
 19 24  4  0
 20 23  1  0
 21 22  4  0
 22 23  4  0
 25 26  4  0
 27 29  2  0
M  END
$$$$

 Created by Python create_sdf_string function

 30 33  0  0  0  0  0  0  0  0999 V2000
    8.3036    9.8571   18.4133 C   0  0  0  0  0  0  0  0  0  0  0  0
    8.3694    7.6612   22.6703 C   0  0  0  0  0  0  0  0  0  0  0  0
    8.4143    6.6863   16.2273 C   0  0  0  0  0  0  0  0  0  0  0  0
   10.7581    6.5674   21.7636 C   0  0  0  0  0  0  0  0  0  0  0  0
    8.4452    8.7960   19.2958 O   0  0  0  0  0  0  0  0  0  0  0  0
    8.7122    6.7842   24.8569 C   0  0  0  0  0  0  0  0  0  0  0  0
   10.3400    6.1726   14.3081 C   0  0  0  0  0  0  0  0  0  0  0  0
    7.4297    7.5873   24.8962 C   0  0  0  0  0  0  0  0  0  0  0  0
    8.1566   10.0536   16.0516 O   0  0  0  0  0  0  0  0  0  0  0  0
   12.4989    6.2074   20.1776 C   0  0  0  0  0  0  0  0  0  0  0  0
    6.9192    9.1053   20.9073 O   0  0  0  0  0  0  0  0  0  0  0  0
   14.3979    6.0729   18.7784 C   0  0  0  0  0  0  0  0  0  0  0  0
    8.6811    9.5354   16.9998 C   0  0  0  0  0  0  0  0  0  0  0  0
    9.2512    4.2713   13.7653 O   0  0  0  0  0  0  0  0  0  0  0  0
    9.6495    8.6317   16.8332 N   0  0  0  0  0  0  0  0  0  0  0  0
    6.2934    8.6988   23.1988 O   0  0  0  0  0  0  0  0  0  0  0  0
    7.9806    8.6543   20.5437 C   0  0  0  0  0  0  0  0  0  0  0  0
   13.7270    5.7144   19.8610 O   0  0  0  0  0  0  0  0  0  0  0  0
    8.3351    5.5235   15.4478 C   0  0  0  0  0  0  0  0  0  0  0  0
    8.7700    7.8434   21.3915 C   0  0  0  0  0  0  0  0  0  0  0  0
   11.7856    6.8851   19.2401 C   0  0  0  0  0  0  0  0  0  0  0  0
   10.5281    7.4276   19.5649 C   0  0  0  0  0  0  0  0  0  0  0  0
   10.0256    7.2907   20.8484 C   0  0  0  0  0  0  0  0  0  0  0  0
    9.3113    5.3049   14.4911 C   0  0  0  0  0  0  0  0  0  0  0  0
    9.4607    7.5646   16.0139 C   0  0  0  0  0  0  0  0  0  0  0  0
   10.4192    7.3157   15.0955 C   0  0  0  0  0  0  0  0  0  0  0  0
   10.2489    6.4227   23.0218 N   0  0  0  0  0  0  0  0  0  0  0  0
    7.2472    8.0746   23.5050 C   0  0  0  0  0  0  0  0  0  0  0  0
    9.2051    6.9101   23.4604 C   0  0  0  0  0  0  0  0  0  0  0  0
   11.9646    6.0299   21.4251 C   0  0  0  0  0  0  0  0  0  0  0  0
  1  5  1  0
  1 13  1  0
  2 20  2  0
  2 28  1  0
  2 29  1  0
  3 19  4  0
  3 25  4  0
  4 23  4  0
  4 27  1  0
  4 30  4  0
  5 17  1  0
  6  8  1  0
  6 29  1  0
  7 24  4  0
  7 26  4  0
  8 28  1  0
  9 13  2  0
 10 18  1  0
 10 21  4  0
 10 30  4  0
 11 17  2  0
 12 18  1  0
 13 15  1  0
 14 24  1  0
 15 25  1  0
 16 28  2  0
 17 20  1  0
 19 24  4  0
 20 23  1  0
 21 22  4  0
 22 23  4  0
 25 26  4  0
 27 29  2  0
M  END
$$$$

 Created by Python create_sdf_string function

 30 33  0  0  0  0  0  0  0  0999 V2000
    8.3036    9.8571   18.4133 C   0  0  0  0  0  0  0  0  0  0  0  0
    8.3694    7.6612   22.6703 C   0  0  0  0  0  0  0  0  0  0  0  0
    8.4143    6.6863   16.2273 C   0  0  0  0  0  0  0  0  0  0  0  0
   10.7581    6.5674   21.7636 C   0  0  0  0  0  0  0  0  0  0  0  0
    8.4452    8.7960   19.2958 O   0  0  0  0  0  0  0  0  0  0  0  0
    8.7122    6.7842   24.8569 C   0  0  0  0  0  0  0  0  0  0  0  0
   10.3400    6.1726   14.3081 C   0  0  0  0  0  0  0  0  0  0  0  0
    7.4297    7.5873   24.8962 C   0  0  0  0  0  0  0  0  0  0  0  0
    8.1566   10.0536   16.0516 O   0  0  0  0  0  0  0  0  0  0  0  0
   12.4989    6.2074   20.1776 C   0  0  0  0  0  0  0  0  0  0  0  0
    6.9192    9.1053   20.9073 O   0  0  0  0  0  0  0  0  0  0  0  0
   14.3979    6.0729   18.7784 C   0  0  0  0  0  0  0  0  0  0  0  0
    8.6811    9.5354   16.9998 C   0  0  0  0  0  0  0  0  0  0  0  0
    9.2512    4.2713   13.7653 O   0  0  0  0  0  0  0  0  0  0  0  0
    9.6495    8.6317   16.8332 N   0  0  0  0  0  0  0  0  0  0  0  0
    6.2934    8.6988   23.1988 O   0  0  0  0  0  0  0  0  0  0  0  0
    7.9806    8.6543   20.5437 C   0  0  0  0  0  0  0  0  0  0  0  0
   13.7270    5.7144   19.8610 O   0  0  0  0  0  0  0  0  0  0  0  0
    8.3351    5.5235   15.4478 C   0  0  0  0  0  0  0  0  0  0  0  0
    8.7700    7.8434   21.3915 C   0  0  0  0  0  0  0  0  0  0  0  0
   11.7856    6.8851   19.2401 C   0  0  0  0  0  0  0  0  0  0  0  0
   10.5281    7.4276   19.5649 C   0  0  0  0  0  0  0  0  0  0  0  0
   10.0256    7.2907   20.8484 C   0  0  0  0  0  0  0  0  0  0  0  0
    9.3113    5.3049   14.4911 C   0  0  0  0  0  0  0  0  0  0  0  0
    9.4607    7.5646   16.0139 C   0  0  0  0  0  0  0  0  0  0  0  0
   10.4192    7.3157   15.0955 C   0  0  0  0  0  0  0  0  0  0  0  0
   10.2489    6.4227   23.0218 N   0  0  0  0  0  0  0  0  0  0  0  0
    7.2472    8.0746   23.5050 C   0  0  0  0  0  0  0  0  0  0  0  0
    9.2051    6.9101   23.4604 C   0  0  0  0  0  0  0  0  0  0  0  0
   11.9646    6.0299   21.4251 C   0  0  0  0  0  0  0  0  0  0  0  0
  1  5  1  0
  1 13  1  0
  2 20  2  0
  2 28  1  0
  2 29  1  0
  3 19  4  0
  3 25  4  0
  4 23  4  0
  4 27  1  0
  4 30  4  0
  5 17  1  0
  6  8  1  0
  6 29  1  0
  7 24  4  0
  7 26  4  0
  8 28  1  0
  9 13  2  0
 10 18  1  0
 10 21  4  0
 10 30  4  0
 11 17  2  0
 12 18  1  0
 13 15  1  0
 14 24  1  0
 15 25  1  0
 16 28  2  0
 17 20  1  0
 19 24  4  0
 20 23  1  0
 21 22  4  0
 22 23  4  0
 25 26  4  0
 27 29  2  0
M  END
$$$$

 Created by Python create_sdf_string function

 30 33  0  0  0  0  0  0  0  0999 V2000
    8.3036    9.8571   18.4133 C   0  0  0  0  0  0  0  0  0  0  0  0
    8.3694    7.6612   22.6703 C   0  0  0  0  0  0  0  0  0  0  0  0
    8.4143    6.6863   16.2273 C   0  0  0  0  0  0  0  0  0  0  0  0
   10.7581    6.5674   21.7636 C   0  0  0  0  0  0  0  0  0  0  0  0
    8.4452    8.7960   19.2958 O   0  0  0  0  0  0  0  0  0  0  0  0
    8.7122    6.7842   24.8569 C   0  0  0  0  0  0  0  0  0  0  0  0
   10.3400    6.1726   14.3081 C   0  0  0  0  0  0  0  0  0  0  0  0
    7.4297    7.5873   24.8962 C   0  0  0  0  0  0  0  0  0  0  0  0
    8.1566   10.0536   16.0516 O   0  0  0  0  0  0  0  0  0  0  0  0
   12.4989    6.2074   20.1776 C   0  0  0  0  0  0  0  0  0  0  0  0
    6.9192    9.1053   20.9073 O   0  0  0  0  0  0  0  0  0  0  0  0
   14.3979    6.0729   18.7784 C   0  0  0  0  0  0  0  0  0  0  0  0
    8.6811    9.5354   16.9998 C   0  0  0  0  0  0  0  0  0  0  0  0
    9.2512    4.2713   13.7653 O   0  0  0  0  0  0  0  0  0  0  0  0
    9.6495    8.6317   16.8332 N   0  0  0  0  0  0  0  0  0  0  0  0
    6.2934    8.6988   23.1988 O   0  0  0  0  0  0  0  0  0  0  0  0
    7.9806    8.6543   20.5437 C   0  0  0  0  0  0  0  0  0  0  0  0
   13.7270    5.7144   19.8610 O   0  0  0  0  0  0  0  0  0  0  0  0
    8.3351    5.5235   15.4478 C   0  0  0  0  0  0  0  0  0  0  0  0
    8.7700    7.8434   21.3915 C   0  0  0  0  0  0  0  0  0  0  0  0
   11.7856    6.8851   19.2401 C   0  0  0  0  0  0  0  0  0  0  0  0
   10.5281    7.4276   19.5649 C   0  0  0  0  0  0  0  0  0  0  0  0
   10.0256    7.2907   20.8484 C   0  0  0  0  0  0  0  0  0  0  0  0
    9.3113    5.3049   14.4911 C   0  0  0  0  0  0  0  0  0  0  0  0
    9.4607    7.5646   16.0139 C   0  0  0  0  0  0  0  0  0  0  0  0
   10.4192    7.3157   15.0955 C   0  0  0  0  0  0  0  0  0  0  0  0
   10.2489    6.4227   23.0218 N   0  0  0  0  0  0  0  0  0  0  0  0
    7.2472    8.0746   23.5050 C   0  0  0  0  0  0  0  0  0  0  0  0
    9.2051    6.9101   23.4604 C   0  0  0  0  0  0  0  0  0  0  0  0
   11.9646    6.0299   21.4251 C   0  0  0  0  0  0  0  0  0  0  0  0
  1  5  1  0
  1 13  1  0
  2 20  2  0
  2 28  1  0
  2 29  1  0
  3 19  4  0
  3 25  4  0
  4 23  4  0
  4 27  1  0
  4 30  4  0
  5 17  1  0
  6  8  1  0
  6 29  1  0
  7 24  4  0
  7 26  4  0
  8 28  1  0
  9 13  2  0
 10 18  1  0
 10 21  4  0
 10 30  4  0
 11 17  2  0
 12 18  1  0
 13 15  1  0
 14 24  1  0
 15 25  1  0
 16 28  2  0
 17 20  1  0
 19 24  4  0
 20 23  1  0
 21 22  4  0
 22 23  4  0
 25 26  4  0
 27 29  2  0
M  END
$$$$

 Created by Python create_sdf_string function

 30 33  0  0  0  0  0  0  0  0999 V2000
    8.3036    9.8571   18.4133 C   0  0  0  0  0  0  0  0  0  0  0  0
    8.3694    7.6612   22.6703 C   0  0  0  0  0  0  0  0  0  0  0  0
    8.4143    6.6863   16.2273 C   0  0  0  0  0  0  0  0  0  0  0  0
   10.7581    6.5674   21.7636 C   0  0  0  0  0  0  0  0  0  0  0  0
    8.4452    8.7960   19.2958 O   0  0  0  0  0  0  0  0  0  0  0  0
    8.7122    6.7842   24.8569 C   0  0  0  0  0  0  0  0  0  0  0  0
   10.3400    6.1726   14.3081 C   0  0  0  0  0  0  0  0  0  0  0  0
    7.4297    7.5873   24.8962 C   0  0  0  0  0  0  0  0  0  0  0  0
    8.1566   10.0536   16.0516 O   0  0  0  0  0  0  0  0  0  0  0  0
   12.4989    6.2074   20.1776 C   0  0  0  0  0  0  0  0  0  0  0  0
    6.9192    9.1053   20.9073 O   0  0  0  0  0  0  0  0  0  0  0  0
   14.3979    6.0729   18.7784 C   0  0  0  0  0  0  0  0  0  0  0  0
    8.6811    9.5354   16.9998 C   0  0  0  0  0  0  0  0  0  0  0  0
    9.2512    4.2713   13.7653 O   0  0  0  0  0  0  0  0  0  0  0  0
    9.6495    8.6317   16.8332 N   0  0  0  0  0  0  0  0  0  0  0  0
    6.2934    8.6988   23.1988 O   0  0  0  0  0  0  0  0  0  0  0  0
    7.9806    8.6543   20.5437 C   0  0  0  0  0  0  0  0  0  0  0  0
   13.7270    5.7144   19.8610 O   0  0  0  0  0  0  0  0  0  0  0  0
    8.3351    5.5235   15.4478 C   0  0  0  0  0  0  0  0  0  0  0  0
    8.7700    7.8434   21.3915 C   0  0  0  0  0  0  0  0  0  0  0  0
   11.7856    6.8851   19.2401 C   0  0  0  0  0  0  0  0  0  0  0  0
   10.5281    7.4276   19.5649 C   0  0  0  0  0  0  0  0  0  0  0  0
   10.0256    7.2907   20.8484 C   0  0  0  0  0  0  0  0  0  0  0  0
    9.3113    5.3049   14.4911 C   0  0  0  0  0  0  0  0  0  0  0  0
    9.4607    7.5646   16.0139 C   0  0  0  0  0  0  0  0  0  0  0  0
   10.4192    7.3157   15.0955 C   0  0  0  0  0  0  0  0  0  0  0  0
   10.2489    6.4227   23.0218 N   0  0  0  0  0  0  0  0  0  0  0  0
    7.2472    8.0746   23.5050 C   0  0  0  0  0  0  0  0  0  0  0  0
    9.2051    6.9101   23.4604 C   0  0  0  0  0  0  0  0  0  0  0  0
   11.9646    6.0299   21.4251 C   0  0  0  0  0  0  0  0  0  0  0  0
  1  5  1  0
  1 13  1  0
  2 20  2  0
  2 28  1  0
  2 29  1  0
  3 19  4  0
  3 25  4  0
  4 23  4  0
  4 27  1  0
  4 30  4  0
  5 17  1  0
  6  8  1  0
  6 29  1  0
  7 24  4  0
  7 26  4  0
  8 28  1  0
  9 13  2  0
 10 18  1  0
 10 21  4  0
 10 30  4  0
 11 17  2  0
 12 18  1  0
 13 15  1  0
 14 24  1  0
 15 25  1  0
 16 28  2  0
 17 20  1  0
 19 24  4  0
 20 23  1  0
 21 22  4  0
 22 23  4  0
 25 26  4  0
 27 29  2  0
M  END
$$$$

 Created by Python create_sdf_string function

 30 33  0  0  0  0  0  0  0  0999 V2000
    8.3036    9.8571   18.4133 C   0  0  0  0  0  0  0  0  0  0  0  0
    8.3694    7.6612   22.6703 C   0  0  0  0  0  0  0  0  0  0  0  0
    8.4143    6.6863   16.2273 C   0  0  0  0  0  0  0  0  0  0  0  0
   10.7581    6.5674   21.7636 C   0  0  0  0  0  0  0  0  0  0  0  0
    8.4452    8.7960   19.2958 O   0  0  0  0  0  0  0  0  0  0  0  0
    8.7122    6.7842   24.8569 C   0  0  0  0  0  0  0  0  0  0  0  0
   10.3400    6.1726   14.3081 C   0  0  0  0  0  0  0  0  0  0  0  0
    7.4297    7.5873   24.8962 C   0  0  0  0  0  0  0  0  0  0  0  0
    8.1566   10.0536   16.0516 O   0  0  0  0  0  0  0  0  0  0  0  0
   12.4989    6.2074   20.1776 C   0  0  0  0  0  0  0  0  0  0  0  0
    6.9192    9.1053   20.9073 O   0  0  0  0  0  0  0  0  0  0  0  0
   14.3979    6.0729   18.7784 C   0  0  0  0  0  0  0  0  0  0  0  0
    8.6811    9.5354   16.9998 C   0  0  0  0  0  0  0  0  0  0  0  0
    9.2512    4.2713   13.7653 O   0  0  0  0  0  0  0  0  0  0  0  0
    9.6495    8.6317   16.8332 N   0  0  0  0  0  0  0  0  0  0  0  0
    6.2934    8.6988   23.1988 O   0  0  0  0  0  0  0  0  0  0  0  0
    7.9806    8.6543   20.5437 C   0  0  0  0  0  0  0  0  0  0  0  0
   13.7270    5.7144   19.8610 O   0  0  0  0  0  0  0  0  0  0  0  0
    8.3351    5.5235   15.4478 C   0  0  0  0  0  0  0  0  0  0  0  0
    8.7700    7.8434   21.3915 C   0  0  0  0  0  0  0  0  0  0  0  0
   11.7856    6.8851   19.2401 C   0  0  0  0  0  0  0  0  0  0  0  0
   10.5281    7.4276   19.5649 C   0  0  0  0  0  0  0  0  0  0  0  0
   10.0256    7.2907   20.8484 C   0  0  0  0  0  0  0  0  0  0  0  0
    9.3113    5.3049   14.4911 C   0  0  0  0  0  0  0  0  0  0  0  0
    9.4607    7.5646   16.0139 C   0  0  0  0  0  0  0  0  0  0  0  0
   10.4192    7.3157   15.0955 C   0  0  0  0  0  0  0  0  0  0  0  0
   10.2489    6.4227   23.0218 N   0  0  0  0  0  0  0  0  0  0  0  0
    7.2472    8.0746   23.5050 C   0  0  0  0  0  0  0  0  0  0  0  0
    9.2051    6.9101   23.4604 C   0  0  0  0  0  0  0  0  0  0  0  0
   11.9646    6.0299   21.4251 C   0  0  0  0  0  0  0  0  0  0  0  0
  1  5  1  0
  1 13  1  0
  2 20  2  0
  2 28  1  0
  2 29  1  0
  3 19  4  0
  3 25  4  0
  4 23  4  0
  4 27  1  0
  4 30  4  0
  5 17  1  0
  6  8  1  0
  6 29  1  0
  7 24  4  0
  7 26  4  0
  8 28  1  0
  9 13  2  0
 10 18  1  0
 10 21  4  0
 10 30  4  0
 11 17  2  0
 12 18  1  0
 13 15  1  0
 14 24  1  0
 15 25  1  0
 16 28  2  0
 17 20  1  0
 19 24  4  0
 20 23  1  0
 21 22  4  0
 22 23  4  0
 25 26  4  0
 27 29  2  0
M  END
$$$$

 Created by Python create_sdf_string function

 30 33  0  0  0  0  0  0  0  0999 V2000
    8.3036    9.8571   18.4133 C   0  0  0  0  0  0  0  0  0  0  0  0
    8.3694    7.6612   22.6703 C   0  0  0  0  0  0  0  0  0  0  0  0
    8.4143    6.6863   16.2273 C   0  0  0  0  0  0  0  0  0  0  0  0
   10.7581    6.5674   21.7636 C   0  0  0  0  0  0  0  0  0  0  0  0
    8.4452    8.7960   19.2958 O   0  0  0  0  0  0  0  0  0  0  0  0
    8.7122    6.7842   24.8569 C   0  0  0  0  0  0  0  0  0  0  0  0
   10.3400    6.1726   14.3081 C   0  0  0  0  0  0  0  0  0  0  0  0
    7.4297    7.5873   24.8962 C   0  0  0  0  0  0  0  0  0  0  0  0
    8.1566   10.0536   16.0516 O   0  0  0  0  0  0  0  0  0  0  0  0
   12.4989    6.2074   20.1776 C   0  0  0  0  0  0  0  0  0  0  0  0
    6.9192    9.1053   20.9073 O   0  0  0  0  0  0  0  0  0  0  0  0
   14.3979    6.0729   18.7784 C   0  0  0  0  0  0  0  0  0  0  0  0
    8.6811    9.5354   16.9998 C   0  0  0  0  0  0  0  0  0  0  0  0
    9.2512    4.2713   13.7653 O   0  0  0  0  0  0  0  0  0  0  0  0
    9.6495    8.6317   16.8332 N   0  0  0  0  0  0  0  0  0  0  0  0
    6.2934    8.6988   23.1988 O   0  0  0  0  0  0  0  0  0  0  0  0
    7.9806    8.6543   20.5437 C   0  0  0  0  0  0  0  0  0  0  0  0
   13.7270    5.7144   19.8610 O   0  0  0  0  0  0  0  0  0  0  0  0
    8.3351    5.5235   15.4478 C   0  0  0  0  0  0  0  0  0  0  0  0
    8.7700    7.8434   21.3915 C   0  0  0  0  0  0  0  0  0  0  0  0
   11.7856    6.8851   19.2401 C   0  0  0  0  0  0  0  0  0  0  0  0
   10.5281    7.4276   19.5649 C   0  0  0  0  0  0  0  0  0  0  0  0
   10.0256    7.2907   20.8484 C   0  0  0  0  0  0  0  0  0  0  0  0
    9.3113    5.3049   14.4911 C   0  0  0  0  0  0  0  0  0  0  0  0
    9.4607    7.5646   16.0139 C   0  0  0  0  0  0  0  0  0  0  0  0
   10.4192    7.3157   15.0955 C   0  0  0  0  0  0  0  0  0  0  0  0
   10.2489    6.4227   23.0218 N   0  0  0  0  0  0  0  0  0  0  0  0
    7.2472    8.0746   23.5050 C   0  0  0  0  0  0  0  0  0  0  0  0
    9.2051    6.9101   23.4604 C   0  0  0  0  0  0  0  0  0  0  0  0
   11.9646    6.0299   21.4251 C   0  0  0  0  0  0  0  0  0  0  0  0
  1  5  1  0
  1 13  1  0
  2 20  2  0
  2 28  1  0
  2 29  1  0
  3 19  4  0
  3 25  4  0
  4 23  4  0
  4 27  1  0
  4 30  4  0
  5 17  1  0
  6  8  1  0
  6 29  1  0
  7 24  4  0
  7 26  4  0
  8 28  1  0
  9 13  2  0
 10 18  1  0
 10 21  4  0
 10 30  4  0
 11 17  2  0
 12 18  1  0
 13 15  1  0
 14 24  1  0
 15 25  1  0
 16 28  2  0
 17 20  1  0
 19 24  4  0
 20 23  1  0
 21 22  4  0
 22 23  4  0
 25 26  4  0
 27 29  2  0
M  END
$$$$

 Created by Python create_sdf_string function

 30 33  0  0  0  0  0  0  0  0999 V2000
    8.3036    9.8571   18.4133 C   0  0  0  0  0  0  0  0  0  0  0  0
    8.3694    7.6612   22.6703 C   0  0  0  0  0  0  0  0  0  0  0  0
    8.4143    6.6863   16.2273 C   0  0  0  0  0  0  0  0  0  0  0  0
   10.7581    6.5674   21.7636 C   0  0  0  0  0  0  0  0  0  0  0  0
    8.4452    8.7960   19.2958 O   0  0  0  0  0  0  0  0  0  0  0  0
    8.7122    6.7842   24.8569 C   0  0  0  0  0  0  0  0  0  0  0  0
   10.3400    6.1726   14.3081 C   0  0  0  0  0  0  0  0  0  0  0  0
    7.4297    7.5873   24.8962 C   0  0  0  0  0  0  0  0  0  0  0  0
    8.1566   10.0536   16.0516 O   0  0  0  0  0  0  0  0  0  0  0  0
   12.4989    6.2074   20.1776 C   0  0  0  0  0  0  0  0  0  0  0  0
    6.9192    9.1053   20.9073 O   0  0  0  0  0  0  0  0  0  0  0  0
   14.3979    6.0729   18.7784 C   0  0  0  0  0  0  0  0  0  0  0  0
    8.6811    9.5354   16.9998 C   0  0  0  0  0  0  0  0  0  0  0  0
    9.2512    4.2713   13.7653 O   0  0  0  0  0  0  0  0  0  0  0  0
    9.6495    8.6317   16.8332 N   0  0  0  0  0  0  0  0  0  0  0  0
    6.2934    8.6988   23.1988 O   0  0  0  0  0  0  0  0  0  0  0  0
    7.9806    8.6543   20.5437 C   0  0  0  0  0  0  0  0  0  0  0  0
   13.7270    5.7144   19.8610 O   0  0  0  0  0  0  0  0  0  0  0  0
    8.3351    5.5235   15.4478 C   0  0  0  0  0  0  0  0  0  0  0  0
    8.7700    7.8434   21.3915 C   0  0  0  0  0  0  0  0  0  0  0  0
   11.7856    6.8851   19.2401 C   0  0  0  0  0  0  0  0  0  0  0  0
   10.5281    7.4276   19.5649 C   0  0  0  0  0  0  0  0  0  0  0  0
   10.0256    7.2907   20.8484 C   0  0  0  0  0  0  0  0  0  0  0  0
    9.3113    5.3049   14.4911 C   0  0  0  0  0  0  0  0  0  0  0  0
    9.4607    7.5646   16.0139 C   0  0  0  0  0  0  0  0  0  0  0  0
   10.4192    7.3157   15.0955 C   0  0  0  0  0  0  0  0  0  0  0  0
   10.2489    6.4227   23.0218 N   0  0  0  0  0  0  0  0  0  0  0  0
    7.2472    8.0746   23.5050 C   0  0  0  0  0  0  0  0  0  0  0  0
    9.2051    6.9101   23.4604 C   0  0  0  0  0  0  0  0  0  0  0  0
   11.9646    6.0299   21.4251 C   0  0  0  0  0  0  0  0  0  0  0  0
  1  5  1  0
  1 13  1  0
  2 20  2  0
  2 28  1  0
  2 29  1  0
  3 19  4  0
  3 25  4  0
  4 23  4  0
  4 27  1  0
  4 30  4  0
  5 17  1  0
  6  8  1  0
  6 29  1  0
  7 24  4  0
  7 26  4  0
  8 28  1  0
  9 13  2  0
 10 18  1  0
 10 21  4  0
 10 30  4  0
 11 17  2  0
 12 18  1  0
 13 15  1  0
 14 24  1  0
 15 25  1  0
 16 28  2  0
 17 20  1  0
 19 24  4  0
 20 23  1  0
 21 22  4  0
 22 23  4  0
 25 26  4  0
 27 29  2  0
M  END
$$$$

 Created by Python create_sdf_string function

 30 33  0  0  0  0  0  0  0  0999 V2000
    8.3036    9.8571   18.4133 C   0  0  0  0  0  0  0  0  0  0  0  0
    8.3694    7.6612   22.6703 C   0  0  0  0  0  0  0  0  0  0  0  0
    8.4143    6.6863   16.2273 C   0  0  0  0  0  0  0  0  0  0  0  0
   10.7581    6.5674   21.7636 C   0  0  0  0  0  0  0  0  0  0  0  0
    8.4452    8.7960   19.2958 O   0  0  0  0  0  0  0  0  0  0  0  0
    8.7122    6.7842   24.8569 C   0  0  0  0  0  0  0  0  0  0  0  0
   10.3400    6.1726   14.3081 C   0  0  0  0  0  0  0  0  0  0  0  0
    7.4297    7.5873   24.8962 C   0  0  0  0  0  0  0  0  0  0  0  0
    8.1566   10.0536   16.0516 O   0  0  0  0  0  0  0  0  0  0  0  0
   12.4989    6.2074   20.1776 C   0  0  0  0  0  0  0  0  0  0  0  0
    6.9192    9.1053   20.9073 O   0  0  0  0  0  0  0  0  0  0  0  0
   14.3979    6.0729   18.7784 C   0  0  0  0  0  0  0  0  0  0  0  0
    8.6811    9.5354   16.9998 C   0  0  0  0  0  0  0  0  0  0  0  0
    9.2512    4.2713   13.7653 O   0  0  0  0  0  0  0  0  0  0  0  0
    9.6495    8.6317   16.8332 N   0  0  0  0  0  0  0  0  0  0  0  0
    6.2934    8.6988   23.1988 O   0  0  0  0  0  0  0  0  0  0  0  0
    7.9806    8.6543   20.5437 C   0  0  0  0  0  0  0  0  0  0  0  0
   13.7270    5.7144   19.8610 O   0  0  0  0  0  0  0  0  0  0  0  0
    8.3351    5.5235   15.4478 C   0  0  0  0  0  0  0  0  0  0  0  0
    8.7700    7.8434   21.3915 C   0  0  0  0  0  0  0  0  0  0  0  0
   11.7856    6.8851   19.2401 C   0  0  0  0  0  0  0  0  0  0  0  0
   10.5281    7.4276   19.5649 C   0  0  0  0  0  0  0  0  0  0  0  0
   10.0256    7.2907   20.8484 C   0  0  0  0  0  0  0  0  0  0  0  0
    9.3113    5.3049   14.4911 C   0  0  0  0  0  0  0  0  0  0  0  0
    9.4607    7.5646   16.0139 C   0  0  0  0  0  0  0  0  0  0  0  0
   10.4192    7.3157   15.0955 C   0  0  0  0  0  0  0  0  0  0  0  0
   10.2489    6.4227   23.0218 N   0  0  0  0  0  0  0  0  0  0  0  0
    7.2472    8.0746   23.5050 C   0  0  0  0  0  0  0  0  0  0  0  0
    9.2051    6.9101   23.4604 C   0  0  0  0  0  0  0  0  0  0  0  0
   11.9646    6.0299   21.4251 C   0  0  0  0  0  0  0  0  0  0  0  0
  1  5  1  0
  1 13  1  0
  2 20  2  0
  2 28  1  0
  2 29  1  0
  3 19  4  0
  3 25  4  0
  4 23  4  0
  4 27  1  0
  4 30  4  0
  5 17  1  0
  6  8  1  0
  6 29  1  0
  7 24  4  0
  7 26  4  0
  8 28  1  0
  9 13  2  0
 10 18  1  0
 10 21  4  0
 10 30  4  0
 11 17  2  0
 12 18  1  0
 13 15  1  0
 14 24  1  0
 15 25  1  0
 16 28  2  0
 17 20  1  0
 19 24  4  0
 20 23  1  0
 21 22  4  0
 22 23  4  0
 25 26  4  0
 27 29  2  0
M  END
$$$$

 Created by Python create_sdf_string function

 30 33  0  0  0  0  0  0  0  0999 V2000
    8.3036    9.8571   18.4133 C   0  0  0  0  0  0  0  0  0  0  0  0
    8.3694    7.6612   22.6703 C   0  0  0  0  0  0  0  0  0  0  0  0
    8.4143    6.6863   16.2273 C   0  0  0  0  0  0  0  0  0  0  0  0
   10.7581    6.5674   21.7636 C   0  0  0  0  0  0  0  0  0  0  0  0
    8.4452    8.7960   19.2958 O   0  0  0  0  0  0  0  0  0  0  0  0
    8.7122    6.7842   24.8569 C   0  0  0  0  0  0  0  0  0  0  0  0
   10.3400    6.1726   14.3081 C   0  0  0  0  0  0  0  0  0  0  0  0
    7.4297    7.5873   24.8962 C   0  0  0  0  0  0  0  0  0  0  0  0
    8.1566   10.0536   16.0516 O   0  0  0  0  0  0  0  0  0  0  0  0
   12.4989    6.2074   20.1776 C   0  0  0  0  0  0  0  0  0  0  0  0
    6.9192    9.1053   20.9073 O   0  0  0  0  0  0  0  0  0  0  0  0
   14.3979    6.0729   18.7784 C   0  0  0  0  0  0  0  0  0  0  0  0
    8.6811    9.5354   16.9998 C   0  0  0  0  0  0  0  0  0  0  0  0
    9.2512    4.2713   13.7653 O   0  0  0  0  0  0  0  0  0  0  0  0
    9.6495    8.6317   16.8332 N   0  0  0  0  0  0  0  0  0  0  0  0
    6.2934    8.6988   23.1988 O   0  0  0  0  0  0  0  0  0  0  0  0
    7.9806    8.6543   20.5437 C   0  0  0  0  0  0  0  0  0  0  0  0
   13.7270    5.7144   19.8610 O   0  0  0  0  0  0  0  0  0  0  0  0
    8.3351    5.5235   15.4478 C   0  0  0  0  0  0  0  0  0  0  0  0
    8.7700    7.8434   21.3915 C   0  0  0  0  0  0  0  0  0  0  0  0
   11.7856    6.8851   19.2401 C   0  0  0  0  0  0  0  0  0  0  0  0
   10.5281    7.4276   19.5649 C   0  0  0  0  0  0  0  0  0  0  0  0
   10.0256    7.2907   20.8484 C   0  0  0  0  0  0  0  0  0  0  0  0
    9.3113    5.3049   14.4911 C   0  0  0  0  0  0  0  0  0  0  0  0
    9.4607    7.5646   16.0139 C   0  0  0  0  0  0  0  0  0  0  0  0
   10.4192    7.3157   15.0955 C   0  0  0  0  0  0  0  0  0  0  0  0
   10.2489    6.4227   23.0218 N   0  0  0  0  0  0  0  0  0  0  0  0
    7.2472    8.0746   23.5050 C   0  0  0  0  0  0  0  0  0  0  0  0
    9.2051    6.9101   23.4604 C   0  0  0  0  0  0  0  0  0  0  0  0
   11.9646    6.0299   21.4251 C   0  0  0  0  0  0  0  0  0  0  0  0
  1  5  1  0
  1 13  1  0
  2 20  2  0
  2 28  1  0
  2 29  1  0
  3 19  4  0
  3 25  4  0
  4 23  4  0
  4 27  1  0
  4 30  4  0
  5 17  1  0
  6  8  1  0
  6 29  1  0
  7 24  4  0
  7 26  4  0
  8 28  1  0
  9 13  2  0
 10 18  1  0
 10 21  4  0
 10 30  4  0
 11 17  2  0
 12 18  1  0
 13 15  1  0
 14 24  1  0
 15 25  1  0
 16 28  2  0
 17 20  1  0
 19 24  4  0
 20 23  1  0
 21 22  4  0
 22 23  4  0
 25 26  4  0
 27 29  2  0
M  END
$$$$

 Created by Python create_sdf_string function

 30 33  0  0  0  0  0  0  0  0999 V2000
    8.3036    9.8571   18.4133 C   0  0  0  0  0  0  0  0  0  0  0  0
    8.3694    7.6612   22.6703 C   0  0  0  0  0  0  0  0  0  0  0  0
    8.4143    6.6863   16.2273 C   0  0  0  0  0  0  0  0  0  0  0  0
   10.7581    6.5674   21.7636 C   0  0  0  0  0  0  0  0  0  0  0  0
    8.4452    8.7960   19.2958 O   0  0  0  0  0  0  0  0  0  0  0  0
    8.7122    6.7842   24.8569 C   0  0  0  0  0  0  0  0  0  0  0  0
   10.3400    6.1726   14.3081 C   0  0  0  0  0  0  0  0  0  0  0  0
    7.4297    7.5873   24.8962 C   0  0  0  0  0  0  0  0  0  0  0  0
    8.1566   10.0536   16.0516 O   0  0  0  0  0  0  0  0  0  0  0  0
   12.4989    6.2074   20.1776 C   0  0  0  0  0  0  0  0  0  0  0  0
    6.9192    9.1053   20.9073 O   0  0  0  0  0  0  0  0  0  0  0  0
   14.3979    6.0729   18.7784 C   0  0  0  0  0  0  0  0  0  0  0  0
    8.6811    9.5354   16.9998 C   0  0  0  0  0  0  0  0  0  0  0  0
    9.2512    4.2713   13.7653 O   0  0  0  0  0  0  0  0  0  0  0  0
    9.6495    8.6317   16.8332 N   0  0  0  0  0  0  0  0  0  0  0  0
    6.2934    8.6988   23.1988 O   0  0  0  0  0  0  0  0  0  0  0  0
    7.9806    8.6543   20.5437 C   0  0  0  0  0  0  0  0  0  0  0  0
   13.7270    5.7144   19.8610 O   0  0  0  0  0  0  0  0  0  0  0  0
    8.3351    5.5235   15.4478 C   0  0  0  0  0  0  0  0  0  0  0  0
    8.7700    7.8434   21.3915 C   0  0  0  0  0  0  0  0  0  0  0  0
   11.7856    6.8851   19.2401 C   0  0  0  0  0  0  0  0  0  0  0  0
   10.5281    7.4276   19.5649 C   0  0  0  0  0  0  0  0  0  0  0  0
   10.0256    7.2907   20.8484 C   0  0  0  0  0  0  0  0  0  0  0  0
    9.3113    5.3049   14.4911 C   0  0  0  0  0  0  0  0  0  0  0  0
    9.4607    7.5646   16.0139 C   0  0  0  0  0  0  0  0  0  0  0  0
   10.4192    7.3157   15.0955 C   0  0  0  0  0  0  0  0  0  0  0  0
   10.2489    6.4227   23.0218 N   0  0  0  0  0  0  0  0  0  0  0  0
    7.2472    8.0746   23.5050 C   0  0  0  0  0  0  0  0  0  0  0  0
    9.2051    6.9101   23.4604 C   0  0  0  0  0  0  0  0  0  0  0  0
   11.9646    6.0299   21.4251 C   0  0  0  0  0  0  0  0  0  0  0  0
  1  5  1  0
  1 13  1  0
  2 20  2  0
  2 28  1  0
  2 29  1  0
  3 19  4  0
  3 25  4  0
  4 23  4  0
  4 27  1  0
  4 30  4  0
  5 17  1  0
  6  8  1  0
  6 29  1  0
  7 24  4  0
  7 26  4  0
  8 28  1  0
  9 13  2  0
 10 18  1  0
 10 21  4  0
 10 30  4  0
 11 17  2  0
 12 18  1  0
 13 15  1  0
 14 24  1  0
 15 25  1  0
 16 28  2  0
 17 20  1  0
 19 24  4  0
 20 23  1  0
 21 22  4  0
 22 23  4  0
 25 26  4  0
 27 29  2  0
M  END
$$$$

 Created by Python create_sdf_string function

 30 33  0  0  0  0  0  0  0  0999 V2000
    8.3036    9.8571   18.4133 C   0  0  0  0  0  0  0  0  0  0  0  0
    8.3694    7.6612   22.6703 C   0  0  0  0  0  0  0  0  0  0  0  0
    8.4143    6.6863   16.2273 C   0  0  0  0  0  0  0  0  0  0  0  0
   10.7581    6.5674   21.7636 C   0  0  0  0  0  0  0  0  0  0  0  0
    8.4452    8.7960   19.2958 O   0  0  0  0  0  0  0  0  0  0  0  0
    8.7122    6.7842   24.8569 C   0  0  0  0  0  0  0  0  0  0  0  0
   10.3400    6.1726   14.3081 C   0  0  0  0  0  0  0  0  0  0  0  0
    7.4297    7.5873   24.8962 C   0  0  0  0  0  0  0  0  0  0  0  0
    8.1566   10.0536   16.0516 O   0  0  0  0  0  0  0  0  0  0  0  0
   12.4989    6.2074   20.1776 C   0  0  0  0  0  0  0  0  0  0  0  0
    6.9192    9.1053   20.9073 O   0  0  0  0  0  0  0  0  0  0  0  0
   14.3979    6.0729   18.7784 C   0  0  0  0  0  0  0  0  0  0  0  0
    8.6811    9.5354   16.9998 C   0  0  0  0  0  0  0  0  0  0  0  0
    9.2512    4.2713   13.7653 O   0  0  0  0  0  0  0  0  0  0  0  0
    9.6495    8.6317   16.8332 N   0  0  0  0  0  0  0  0  0  0  0  0
    6.2934    8.6988   23.1988 O   0  0  0  0  0  0  0  0  0  0  0  0
    7.9806    8.6543   20.5437 C   0  0  0  0  0  0  0  0  0  0  0  0
   13.7270    5.7144   19.8610 O   0  0  0  0  0  0  0  0  0  0  0  0
    8.3351    5.5235   15.4478 C   0  0  0  0  0  0  0  0  0  0  0  0
    8.7700    7.8434   21.3915 C   0  0  0  0  0  0  0  0  0  0  0  0
   11.7856    6.8851   19.2401 C   0  0  0  0  0  0  0  0  0  0  0  0
   10.5281    7.4276   19.5649 C   0  0  0  0  0  0  0  0  0  0  0  0
   10.0256    7.2907   20.8484 C   0  0  0  0  0  0  0  0  0  0  0  0
    9.3113    5.3049   14.4911 C   0  0  0  0  0  0  0  0  0  0  0  0
    9.4607    7.5646   16.0139 C   0  0  0  0  0  0  0  0  0  0  0  0
   10.4192    7.3157   15.0955 C   0  0  0  0  0  0  0  0  0  0  0  0
   10.2489    6.4227   23.0218 N   0  0  0  0  0  0  0  0  0  0  0  0
    7.2472    8.0746   23.5050 C   0  0  0  0  0  0  0  0  0  0  0  0
    9.2051    6.9101   23.4604 C   0  0  0  0  0  0  0  0  0  0  0  0
   11.9646    6.0299   21.4251 C   0  0  0  0  0  0  0  0  0  0  0  0
  1  5  1  0
  1 13  1  0
  2 20  2  0
  2 28  1  0
  2 29  1  0
  3 19  4  0
  3 25  4  0
  4 23  4  0
  4 27  1  0
  4 30  4  0
  5 17  1  0
  6  8  1  0
  6 29  1  0
  7 24  4  0
  7 26  4  0
  8 28  1  0
  9 13  2  0
 10 18  1  0
 10 21  4  0
 10 30  4  0
 11 17  2  0
 12 18  1  0
 13 15  1  0
 14 24  1  0
 15 25  1  0
 16 28  2  0
 17 20  1  0
 19 24  4  0
 20 23  1  0
 21 22  4  0
 22 23  4  0
 25 26  4  0
 27 29  2  0
M  END
$$$$

 Created by Python create_sdf_string function

 30 33  0  0  0  0  0  0  0  0999 V2000
    8.3036    9.8571   18.4133 C   0  0  0  0  0  0  0  0  0  0  0  0
    8.3694    7.6612   22.6703 C   0  0  0  0  0  0  0  0  0  0  0  0
    8.4143    6.6863   16.2273 C   0  0  0  0  0  0  0  0  0  0  0  0
   10.7581    6.5674   21.7636 C   0  0  0  0  0  0  0  0  0  0  0  0
    8.4452    8.7960   19.2958 O   0  0  0  0  0  0  0  0  0  0  0  0
    8.7122    6.7842   24.8569 C   0  0  0  0  0  0  0  0  0  0  0  0
   10.3400    6.1726   14.3081 C   0  0  0  0  0  0  0  0  0  0  0  0
    7.4297    7.5873   24.8962 C   0  0  0  0  0  0  0  0  0  0  0  0
    8.1566   10.0536   16.0516 O   0  0  0  0  0  0  0  0  0  0  0  0
   12.4989    6.2074   20.1776 C   0  0  0  0  0  0  0  0  0  0  0  0
    6.9192    9.1053   20.9073 O   0  0  0  0  0  0  0  0  0  0  0  0
   14.3979    6.0729   18.7784 C   0  0  0  0  0  0  0  0  0  0  0  0
    8.6811    9.5354   16.9998 C   0  0  0  0  0  0  0  0  0  0  0  0
    9.2512    4.2713   13.7653 O   0  0  0  0  0  0  0  0  0  0  0  0
    9.6495    8.6317   16.8332 N   0  0  0  0  0  0  0  0  0  0  0  0
    6.2934    8.6988   23.1988 O   0  0  0  0  0  0  0  0  0  0  0  0
    7.9806    8.6543   20.5437 C   0  0  0  0  0  0  0  0  0  0  0  0
   13.7270    5.7144   19.8610 O   0  0  0  0  0  0  0  0  0  0  0  0
    8.3351    5.5235   15.4478 C   0  0  0  0  0  0  0  0  0  0  0  0
    8.7700    7.8434   21.3915 C   0  0  0  0  0  0  0  0  0  0  0  0
   11.7856    6.8851   19.2401 C   0  0  0  0  0  0  0  0  0  0  0  0
   10.5281    7.4276   19.5649 C   0  0  0  0  0  0  0  0  0  0  0  0
   10.0256    7.2907   20.8484 C   0  0  0  0  0  0  0  0  0  0  0  0
    9.3113    5.3049   14.4911 C   0  0  0  0  0  0  0  0  0  0  0  0
    9.4607    7.5646   16.0139 C   0  0  0  0  0  0  0  0  0  0  0  0
   10.4192    7.3157   15.0955 C   0  0  0  0  0  0  0  0  0  0  0  0
   10.2489    6.4227   23.0218 N   0  0  0  0  0  0  0  0  0  0  0  0
    7.2472    8.0746   23.5050 C   0  0  0  0  0  0  0  0  0  0  0  0
    9.2051    6.9101   23.4604 C   0  0  0  0  0  0  0  0  0  0  0  0
   11.9646    6.0299   21.4251 C   0  0  0  0  0  0  0  0  0  0  0  0
  1  5  1  0
  1 13  1  0
  2 20  2  0
  2 28  1  0
  2 29  1  0
  3 19  4  0
  3 25  4  0
  4 23  4  0
  4 27  1  0
  4 30  4  0
  5 17  1  0
  6  8  1  0
  6 29  1  0
  7 24  4  0
  7 26  4  0
  8 28  1  0
  9 13  2  0
 10 18  1  0
 10 21  4  0
 10 30  4  0
 11 17  2  0
 12 18  1  0
 13 15  1  0
 14 24  1  0
 15 25  1  0
 16 28  2  0
 17 20  1  0
 19 24  4  0
 20 23  1  0
 21 22  4  0
 22 23  4  0
 25 26  4  0
 27 29  2  0
M  END
$$$$

 Created by Python create_sdf_string function

 30 33  0  0  0  0  0  0  0  0999 V2000
    8.3036    9.8571   18.4133 C   0  0  0  0  0  0  0  0  0  0  0  0
    8.3694    7.6612   22.6703 C   0  0  0  0  0  0  0  0  0  0  0  0
    8.4143    6.6863   16.2273 C   0  0  0  0  0  0  0  0  0  0  0  0
   10.7581    6.5674   21.7636 C   0  0  0  0  0  0  0  0  0  0  0  0
    8.4452    8.7960   19.2958 O   0  0  0  0  0  0  0  0  0  0  0  0
    8.7122    6.7842   24.8569 C   0  0  0  0  0  0  0  0  0  0  0  0
   10.3400    6.1726   14.3081 C   0  0  0  0  0  0  0  0  0  0  0  0
    7.4297    7.5873   24.8962 C   0  0  0  0  0  0  0  0  0  0  0  0
    8.1566   10.0536   16.0516 O   0  0  0  0  0  0  0  0  0  0  0  0
   12.4989    6.2074   20.1776 C   0  0  0  0  0  0  0  0  0  0  0  0
    6.9192    9.1053   20.9073 O   0  0  0  0  0  0  0  0  0  0  0  0
   14.3979    6.0729   18.7784 C   0  0  0  0  0  0  0  0  0  0  0  0
    8.6811    9.5354   16.9998 C   0  0  0  0  0  0  0  0  0  0  0  0
    9.2512    4.2713   13.7653 O   0  0  0  0  0  0  0  0  0  0  0  0
    9.6495    8.6317   16.8332 N   0  0  0  0  0  0  0  0  0  0  0  0
    6.2934    8.6988   23.1988 O   0  0  0  0  0  0  0  0  0  0  0  0
    7.9806    8.6543   20.5437 C   0  0  0  0  0  0  0  0  0  0  0  0
   13.7270    5.7144   19.8610 O   0  0  0  0  0  0  0  0  0  0  0  0
    8.3351    5.5235   15.4478 C   0  0  0  0  0  0  0  0  0  0  0  0
    8.7700    7.8434   21.3915 C   0  0  0  0  0  0  0  0  0  0  0  0
   11.7856    6.8851   19.2401 C   0  0  0  0  0  0  0  0  0  0  0  0
   10.5281    7.4276   19.5649 C   0  0  0  0  0  0  0  0  0  0  0  0
   10.0256    7.2907   20.8484 C   0  0  0  0  0  0  0  0  0  0  0  0
    9.3113    5.3049   14.4911 C   0  0  0  0  0  0  0  0  0  0  0  0
    9.4607    7.5646   16.0139 C   0  0  0  0  0  0  0  0  0  0  0  0
   10.4192    7.3157   15.0955 C   0  0  0  0  0  0  0  0  0  0  0  0
   10.2489    6.4227   23.0218 N   0  0  0  0  0  0  0  0  0  0  0  0
    7.2472    8.0746   23.5050 C   0  0  0  0  0  0  0  0  0  0  0  0
    9.2051    6.9101   23.4604 C   0  0  0  0  0  0  0  0  0  0  0  0
   11.9646    6.0299   21.4251 C   0  0  0  0  0  0  0  0  0  0  0  0
  1  5  1  0
  1 13  1  0
  2 20  2  0
  2 28  1  0
  2 29  1  0
  3 19  4  0
  3 25  4  0
  4 23  4  0
  4 27  1  0
  4 30  4  0
  5 17  1  0
  6  8  1  0
  6 29  1  0
  7 24  4  0
  7 26  4  0
  8 28  1  0
  9 13  2  0
 10 18  1  0
 10 21  4  0
 10 30  4  0
 11 17  2  0
 12 18  1  0
 13 15  1  0
 14 24  1  0
 15 25  1  0
 16 28  2  0
 17 20  1  0
 19 24  4  0
 20 23  1  0
 21 22  4  0
 22 23  4  0
 25 26  4  0
 27 29  2  0
M  END
$$$$

 Created by Python create_sdf_string function

 30 33  0  0  0  0  0  0  0  0999 V2000
    8.3036    9.8571   18.4133 C   0  0  0  0  0  0  0  0  0  0  0  0
    8.3694    7.6612   22.6703 C   0  0  0  0  0  0  0  0  0  0  0  0
    8.4143    6.6863   16.2273 C   0  0  0  0  0  0  0  0  0  0  0  0
   10.7581    6.5674   21.7636 C   0  0  0  0  0  0  0  0  0  0  0  0
    8.4452    8.7960   19.2958 O   0  0  0  0  0  0  0  0  0  0  0  0
    8.7122    6.7842   24.8569 C   0  0  0  0  0  0  0  0  0  0  0  0
   10.3400    6.1726   14.3081 C   0  0  0  0  0  0  0  0  0  0  0  0
    7.4297    7.5873   24.8962 C   0  0  0  0  0  0  0  0  0  0  0  0
    8.1566   10.0536   16.0516 O   0  0  0  0  0  0  0  0  0  0  0  0
   12.4989    6.2074   20.1776 C   0  0  0  0  0  0  0  0  0  0  0  0
    6.9192    9.1053   20.9073 O   0  0  0  0  0  0  0  0  0  0  0  0
   14.3979    6.0729   18.7784 C   0  0  0  0  0  0  0  0  0  0  0  0
    8.6811    9.5354   16.9998 C   0  0  0  0  0  0  0  0  0  0  0  0
    9.2512    4.2713   13.7653 O   0  0  0  0  0  0  0  0  0  0  0  0
    9.6495    8.6317   16.8332 N   0  0  0  0  0  0  0  0  0  0  0  0
    6.2934    8.6988   23.1988 O   0  0  0  0  0  0  0  0  0  0  0  0
    7.9806    8.6543   20.5437 C   0  0  0  0  0  0  0  0  0  0  0  0
   13.7270    5.7144   19.8610 O   0  0  0  0  0  0  0  0  0  0  0  0
    8.3351    5.5235   15.4478 C   0  0  0  0  0  0  0  0  0  0  0  0
    8.7700    7.8434   21.3915 C   0  0  0  0  0  0  0  0  0  0  0  0
   11.7856    6.8851   19.2401 C   0  0  0  0  0  0  0  0  0  0  0  0
   10.5281    7.4276   19.5649 C   0  0  0  0  0  0  0  0  0  0  0  0
   10.0256    7.2907   20.8484 C   0  0  0  0  0  0  0  0  0  0  0  0
    9.3113    5.3049   14.4911 C   0  0  0  0  0  0  0  0  0  0  0  0
    9.4607    7.5646   16.0139 C   0  0  0  0  0  0  0  0  0  0  0  0
   10.4192    7.3157   15.0955 C   0  0  0  0  0  0  0  0  0  0  0  0
   10.2489    6.4227   23.0218 N   0  0  0  0  0  0  0  0  0  0  0  0
    7.2472    8.0746   23.5050 C   0  0  0  0  0  0  0  0  0  0  0  0
    9.2051    6.9101   23.4604 C   0  0  0  0  0  0  0  0  0  0  0  0
   11.9646    6.0299   21.4251 C   0  0  0  0  0  0  0  0  0  0  0  0
  1  5  1  0
  1 13  1  0
  2 20  2  0
  2 28  1  0
  2 29  1  0
  3 19  4  0
  3 25  4  0
  4 23  4  0
  4 27  1  0
  4 30  4  0
  5 17  1  0
  6  8  1  0
  6 29  1  0
  7 24  4  0
  7 26  4  0
  8 28  1  0
  9 13  2  0
 10 18  1  0
 10 21  4  0
 10 30  4  0
 11 17  2  0
 12 18  1  0
 13 15  1  0
 14 24  1  0
 15 25  1  0
 16 28  2  0
 17 20  1  0
 19 24  4  0
 20 23  1  0
 21 22  4  0
 22 23  4  0
 25 26  4  0
 27 29  2  0
M  END
$$$$

 Created by Python create_sdf_string function

 30 33  0  0  0  0  0  0  0  0999 V2000
    8.3036    9.8571   18.4133 C   0  0  0  0  0  0  0  0  0  0  0  0
    8.3694    7.6612   22.6703 C   0  0  0  0  0  0  0  0  0  0  0  0
    8.4143    6.6863   16.2273 C   0  0  0  0  0  0  0  0  0  0  0  0
   10.7581    6.5674   21.7636 C   0  0  0  0  0  0  0  0  0  0  0  0
    8.4452    8.7960   19.2958 O   0  0  0  0  0  0  0  0  0  0  0  0
    8.7122    6.7842   24.8569 C   0  0  0  0  0  0  0  0  0  0  0  0
   10.3400    6.1726   14.3081 C   0  0  0  0  0  0  0  0  0  0  0  0
    7.4297    7.5873   24.8962 C   0  0  0  0  0  0  0  0  0  0  0  0
    8.1566   10.0536   16.0516 O   0  0  0  0  0  0  0  0  0  0  0  0
   12.4989    6.2074   20.1776 C   0  0  0  0  0  0  0  0  0  0  0  0
    6.9192    9.1053   20.9073 O   0  0  0  0  0  0  0  0  0  0  0  0
   14.3979    6.0729   18.7784 C   0  0  0  0  0  0  0  0  0  0  0  0
    8.6811    9.5354   16.9998 C   0  0  0  0  0  0  0  0  0  0  0  0
    9.2512    4.2713   13.7653 O   0  0  0  0  0  0  0  0  0  0  0  0
    9.6495    8.6317   16.8332 N   0  0  0  0  0  0  0  0  0  0  0  0
    6.2934    8.6988   23.1988 O   0  0  0  0  0  0  0  0  0  0  0  0
    7.9806    8.6543   20.5437 C   0  0  0  0  0  0  0  0  0  0  0  0
   13.7270    5.7144   19.8610 O   0  0  0  0  0  0  0  0  0  0  0  0
    8.3351    5.5235   15.4478 C   0  0  0  0  0  0  0  0  0  0  0  0
    8.7700    7.8434   21.3915 C   0  0  0  0  0  0  0  0  0  0  0  0
   11.7856    6.8851   19.2401 C   0  0  0  0  0  0  0  0  0  0  0  0
   10.5281    7.4276   19.5649 C   0  0  0  0  0  0  0  0  0  0  0  0
   10.0256    7.2907   20.8484 C   0  0  0  0  0  0  0  0  0  0  0  0
    9.3113    5.3049   14.4911 C   0  0  0  0  0  0  0  0  0  0  0  0
    9.4607    7.5646   16.0139 C   0  0  0  0  0  0  0  0  0  0  0  0
   10.4192    7.3157   15.0955 C   0  0  0  0  0  0  0  0  0  0  0  0
   10.2489    6.4227   23.0218 N   0  0  0  0  0  0  0  0  0  0  0  0
    7.2472    8.0746   23.5050 C   0  0  0  0  0  0  0  0  0  0  0  0
    9.2051    6.9101   23.4604 C   0  0  0  0  0  0  0  0  0  0  0  0
   11.9646    6.0299   21.4251 C   0  0  0  0  0  0  0  0  0  0  0  0
  1  5  1  0
  1 13  1  0
  2 20  2  0
  2 28  1  0
  2 29  1  0
  3 19  4  0
  3 25  4  0
  4 23  4  0
  4 27  1  0
  4 30  4  0
  5 17  1  0
  6  8  1  0
  6 29  1  0
  7 24  4  0
  7 26  4  0
  8 28  1  0
  9 13  2  0
 10 18  1  0
 10 21  4  0
 10 30  4  0
 11 17  2  0
 12 18  1  0
 13 15  1  0
 14 24  1  0
 15 25  1  0
 16 28  2  0
 17 20  1  0
 19 24  4  0
 20 23  1  0
 21 22  4  0
 22 23  4  0
 25 26  4  0
 27 29  2  0
M  END
$$$$

 Created by Python create_sdf_string function

 30 33  0  0  0  0  0  0  0  0999 V2000
    8.3036    9.8571   18.4133 C   0  0  0  0  0  0  0  0  0  0  0  0
    8.3694    7.6612   22.6703 C   0  0  0  0  0  0  0  0  0  0  0  0
    8.4143    6.6863   16.2273 C   0  0  0  0  0  0  0  0  0  0  0  0
   10.7581    6.5674   21.7636 C   0  0  0  0  0  0  0  0  0  0  0  0
    8.4452    8.7960   19.2958 O   0  0  0  0  0  0  0  0  0  0  0  0
    8.7122    6.7842   24.8569 C   0  0  0  0  0  0  0  0  0  0  0  0
   10.3400    6.1726   14.3081 C   0  0  0  0  0  0  0  0  0  0  0  0
    7.4297    7.5873   24.8962 C   0  0  0  0  0  0  0  0  0  0  0  0
    8.1566   10.0536   16.0516 O   0  0  0  0  0  0  0  0  0  0  0  0
   12.4989    6.2074   20.1776 C   0  0  0  0  0  0  0  0  0  0  0  0
    6.9192    9.1053   20.9073 O   0  0  0  0  0  0  0  0  0  0  0  0
   14.3979    6.0729   18.7784 C   0  0  0  0  0  0  0  0  0  0  0  0
    8.6811    9.5354   16.9998 C   0  0  0  0  0  0  0  0  0  0  0  0
    9.2512    4.2713   13.7653 O   0  0  0  0  0  0  0  0  0  0  0  0
    9.6495    8.6317   16.8332 N   0  0  0  0  0  0  0  0  0  0  0  0
    6.2934    8.6988   23.1988 O   0  0  0  0  0  0  0  0  0  0  0  0
    7.9806    8.6543   20.5437 C   0  0  0  0  0  0  0  0  0  0  0  0
   13.7270    5.7144   19.8610 O   0  0  0  0  0  0  0  0  0  0  0  0
    8.3351    5.5235   15.4478 C   0  0  0  0  0  0  0  0  0  0  0  0
    8.7700    7.8434   21.3915 C   0  0  0  0  0  0  0  0  0  0  0  0
   11.7856    6.8851   19.2401 C   0  0  0  0  0  0  0  0  0  0  0  0
   10.5281    7.4276   19.5649 C   0  0  0  0  0  0  0  0  0  0  0  0
   10.0256    7.2907   20.8484 C   0  0  0  0  0  0  0  0  0  0  0  0
    9.3113    5.3049   14.4911 C   0  0  0  0  0  0  0  0  0  0  0  0
    9.4607    7.5646   16.0139 C   0  0  0  0  0  0  0  0  0  0  0  0
   10.4192    7.3157   15.0955 C   0  0  0  0  0  0  0  0  0  0  0  0
   10.2489    6.4227   23.0218 N   0  0  0  0  0  0  0  0  0  0  0  0
    7.2472    8.0746   23.5050 C   0  0  0  0  0  0  0  0  0  0  0  0
    9.2051    6.9101   23.4604 C   0  0  0  0  0  0  0  0  0  0  0  0
   11.9646    6.0299   21.4251 C   0  0  0  0  0  0  0  0  0  0  0  0
  1  5  1  0
  1 13  1  0
  2 20  2  0
  2 28  1  0
  2 29  1  0
  3 19  4  0
  3 25  4  0
  4 23  4  0
  4 27  1  0
  4 30  4  0
  5 17  1  0
  6  8  1  0
  6 29  1  0
  7 24  4  0
  7 26  4  0
  8 28  1  0
  9 13  2  0
 10 18  1  0
 10 21  4  0
 10 30  4  0
 11 17  2  0
 12 18  1  0
 13 15  1  0
 14 24  1  0
 15 25  1  0
 16 28  2  0
 17 20  1  0
 19 24  4  0
 20 23  1  0
 21 22  4  0
 22 23  4  0
 25 26  4  0
 27 29  2  0
M  END
$$$$

 Created by Python create_sdf_string function

 30 33  0  0  0  0  0  0  0  0999 V2000
    8.3036    9.8571   18.4133 C   0  0  0  0  0  0  0  0  0  0  0  0
    8.3694    7.6612   22.6703 C   0  0  0  0  0  0  0  0  0  0  0  0
    8.4143    6.6863   16.2273 C   0  0  0  0  0  0  0  0  0  0  0  0
   10.7581    6.5674   21.7636 C   0  0  0  0  0  0  0  0  0  0  0  0
    8.4452    8.7960   19.2958 O   0  0  0  0  0  0  0  0  0  0  0  0
    8.7122    6.7842   24.8569 C   0  0  0  0  0  0  0  0  0  0  0  0
   10.3400    6.1726   14.3081 C   0  0  0  0  0  0  0  0  0  0  0  0
    7.4297    7.5873   24.8962 C   0  0  0  0  0  0  0  0  0  0  0  0
    8.1566   10.0536   16.0516 O   0  0  0  0  0  0  0  0  0  0  0  0
   12.4989    6.2074   20.1776 C   0  0  0  0  0  0  0  0  0  0  0  0
    6.9192    9.1053   20.9073 O   0  0  0  0  0  0  0  0  0  0  0  0
   14.3979    6.0729   18.7784 C   0  0  0  0  0  0  0  0  0  0  0  0
    8.6811    9.5354   16.9998 C   0  0  0  0  0  0  0  0  0  0  0  0
    9.2512    4.2713   13.7653 O   0  0  0  0  0  0  0  0  0  0  0  0
    9.6495    8.6317   16.8332 N   0  0  0  0  0  0  0  0  0  0  0  0
    6.2934    8.6988   23.1988 O   0  0  0  0  0  0  0  0  0  0  0  0
    7.9806    8.6543   20.5437 C   0  0  0  0  0  0  0  0  0  0  0  0
   13.7270    5.7144   19.8610 O   0  0  0  0  0  0  0  0  0  0  0  0
    8.3351    5.5235   15.4478 C   0  0  0  0  0  0  0  0  0  0  0  0
    8.7700    7.8434   21.3915 C   0  0  0  0  0  0  0  0  0  0  0  0
   11.7856    6.8851   19.2401 C   0  0  0  0  0  0  0  0  0  0  0  0
   10.5281    7.4276   19.5649 C   0  0  0  0  0  0  0  0  0  0  0  0
   10.0256    7.2907   20.8484 C   0  0  0  0  0  0  0  0  0  0  0  0
    9.3113    5.3049   14.4911 C   0  0  0  0  0  0  0  0  0  0  0  0
    9.4607    7.5646   16.0139 C   0  0  0  0  0  0  0  0  0  0  0  0
   10.4192    7.3157   15.0955 C   0  0  0  0  0  0  0  0  0  0  0  0
   10.2489    6.4227   23.0218 N   0  0  0  0  0  0  0  0  0  0  0  0
    7.2472    8.0746   23.5050 C   0  0  0  0  0  0  0  0  0  0  0  0
    9.2051    6.9101   23.4604 C   0  0  0  0  0  0  0  0  0  0  0  0
   11.9646    6.0299   21.4251 C   0  0  0  0  0  0  0  0  0  0  0  0
  1  5  1  0
  1 13  1  0
  2 20  2  0
  2 28  1  0
  2 29  1  0
  3 19  4  0
  3 25  4  0
  4 23  4  0
  4 27  1  0
  4 30  4  0
  5 17  1  0
  6  8  1  0
  6 29  1  0
  7 24  4  0
  7 26  4  0
  8 28  1  0
  9 13  2  0
 10 18  1  0
 10 21  4  0
 10 30  4  0
 11 17  2  0
 12 18  1  0
 13 15  1  0
 14 24  1  0
 15 25  1  0
 16 28  2  0
 17 20  1  0
 19 24  4  0
 20 23  1  0
 21 22  4  0
 22 23  4  0
 25 26  4  0
 27 29  2  0
M  END
$$$$

 Created by Python create_sdf_string function

 30 33  0  0  0  0  0  0  0  0999 V2000
    8.3036    9.8571   18.4133 C   0  0  0  0  0  0  0  0  0  0  0  0
    8.3694    7.6612   22.6703 C   0  0  0  0  0  0  0  0  0  0  0  0
    8.4143    6.6863   16.2273 C   0  0  0  0  0  0  0  0  0  0  0  0
   10.7581    6.5674   21.7636 C   0  0  0  0  0  0  0  0  0  0  0  0
    8.4452    8.7960   19.2958 O   0  0  0  0  0  0  0  0  0  0  0  0
    8.7122    6.7842   24.8569 C   0  0  0  0  0  0  0  0  0  0  0  0
   10.3400    6.1726   14.3081 C   0  0  0  0  0  0  0  0  0  0  0  0
    7.4297    7.5873   24.8962 C   0  0  0  0  0  0  0  0  0  0  0  0
    8.1566   10.0536   16.0516 O   0  0  0  0  0  0  0  0  0  0  0  0
   12.4989    6.2074   20.1776 C   0  0  0  0  0  0  0  0  0  0  0  0
    6.9192    9.1053   20.9073 O   0  0  0  0  0  0  0  0  0  0  0  0
   14.3979    6.0729   18.7784 C   0  0  0  0  0  0  0  0  0  0  0  0
    8.6811    9.5354   16.9998 C   0  0  0  0  0  0  0  0  0  0  0  0
    9.2512    4.2713   13.7653 O   0  0  0  0  0  0  0  0  0  0  0  0
    9.6495    8.6317   16.8332 N   0  0  0  0  0  0  0  0  0  0  0  0
    6.2934    8.6988   23.1988 O   0  0  0  0  0  0  0  0  0  0  0  0
    7.9806    8.6543   20.5437 C   0  0  0  0  0  0  0  0  0  0  0  0
   13.7270    5.7144   19.8610 O   0  0  0  0  0  0  0  0  0  0  0  0
    8.3351    5.5235   15.4478 C   0  0  0  0  0  0  0  0  0  0  0  0
    8.7700    7.8434   21.3915 C   0  0  0  0  0  0  0  0  0  0  0  0
   11.7856    6.8851   19.2401 C   0  0  0  0  0  0  0  0  0  0  0  0
   10.5281    7.4276   19.5649 C   0  0  0  0  0  0  0  0  0  0  0  0
   10.0256    7.2907   20.8484 C   0  0  0  0  0  0  0  0  0  0  0  0
    9.3113    5.3049   14.4911 C   0  0  0  0  0  0  0  0  0  0  0  0
    9.4607    7.5646   16.0139 C   0  0  0  0  0  0  0  0  0  0  0  0
   10.4192    7.3157   15.0955 C   0  0  0  0  0  0  0  0  0  0  0  0
   10.2489    6.4227   23.0218 N   0  0  0  0  0  0  0  0  0  0  0  0
    7.2472    8.0746   23.5050 C   0  0  0  0  0  0  0  0  0  0  0  0
    9.2051    6.9101   23.4604 C   0  0  0  0  0  0  0  0  0  0  0  0
   11.9646    6.0299   21.4251 C   0  0  0  0  0  0  0  0  0  0  0  0
  1  5  1  0
  1 13  1  0
  2 20  2  0
  2 28  1  0
  2 29  1  0
  3 19  4  0
  3 25  4  0
  4 23  4  0
  4 27  1  0
  4 30  4  0
  5 17  1  0
  6  8  1  0
  6 29  1  0
  7 24  4  0
  7 26  4  0
  8 28  1  0
  9 13  2  0
 10 18  1  0
 10 21  4  0
 10 30  4  0
 11 17  2  0
 12 18  1  0
 13 15  1  0
 14 24  1  0
 15 25  1  0
 16 28  2  0
 17 20  1  0
 19 24  4  0
 20 23  1  0
 21 22  4  0
 22 23  4  0
 25 26  4  0
 27 29  2  0
M  END
$$$$

 Created by Python create_sdf_string function

 30 33  0  0  0  0  0  0  0  0999 V2000
    8.3036    9.8571   18.4133 C   0  0  0  0  0  0  0  0  0  0  0  0
    8.3694    7.6612   22.6703 C   0  0  0  0  0  0  0  0  0  0  0  0
    8.4143    6.6863   16.2273 C   0  0  0  0  0  0  0  0  0  0  0  0
   10.7581    6.5674   21.7636 C   0  0  0  0  0  0  0  0  0  0  0  0
    8.4452    8.7960   19.2958 O   0  0  0  0  0  0  0  0  0  0  0  0
    8.7122    6.7842   24.8569 C   0  0  0  0  0  0  0  0  0  0  0  0
   10.3400    6.1726   14.3081 C   0  0  0  0  0  0  0  0  0  0  0  0
    7.4297    7.5873   24.8962 C   0  0  0  0  0  0  0  0  0  0  0  0
    8.1566   10.0536   16.0516 O   0  0  0  0  0  0  0  0  0  0  0  0
   12.4989    6.2074   20.1776 C   0  0  0  0  0  0  0  0  0  0  0  0
    6.9192    9.1053   20.9073 O   0  0  0  0  0  0  0  0  0  0  0  0
   14.3979    6.0729   18.7784 C   0  0  0  0  0  0  0  0  0  0  0  0
    8.6811    9.5354   16.9998 C   0  0  0  0  0  0  0  0  0  0  0  0
    9.2512    4.2713   13.7653 O   0  0  0  0  0  0  0  0  0  0  0  0
    9.6495    8.6317   16.8332 N   0  0  0  0  0  0  0  0  0  0  0  0
    6.2934    8.6988   23.1988 O   0  0  0  0  0  0  0  0  0  0  0  0
    7.9806    8.6543   20.5437 C   0  0  0  0  0  0  0  0  0  0  0  0
   13.7270    5.7144   19.8610 O   0  0  0  0  0  0  0  0  0  0  0  0
    8.3351    5.5235   15.4478 C   0  0  0  0  0  0  0  0  0  0  0  0
    8.7700    7.8434   21.3915 C   0  0  0  0  0  0  0  0  0  0  0  0
   11.7856    6.8851   19.2401 C   0  0  0  0  0  0  0  0  0  0  0  0
   10.5281    7.4276   19.5649 C   0  0  0  0  0  0  0  0  0  0  0  0
   10.0256    7.2907   20.8484 C   0  0  0  0  0  0  0  0  0  0  0  0
    9.3113    5.3049   14.4911 C   0  0  0  0  0  0  0  0  0  0  0  0
    9.4607    7.5646   16.0139 C   0  0  0  0  0  0  0  0  0  0  0  0
   10.4192    7.3157   15.0955 C   0  0  0  0  0  0  0  0  0  0  0  0
   10.2489    6.4227   23.0218 N   0  0  0  0  0  0  0  0  0  0  0  0
    7.2472    8.0746   23.5050 C   0  0  0  0  0  0  0  0  0  0  0  0
    9.2051    6.9101   23.4604 C   0  0  0  0  0  0  0  0  0  0  0  0
   11.9646    6.0299   21.4251 C   0  0  0  0  0  0  0  0  0  0  0  0
  1  5  1  0
  1 13  1  0
  2 20  2  0
  2 28  1  0
  2 29  1  0
  3 19  4  0
  3 25  4  0
  4 23  4  0
  4 27  1  0
  4 30  4  0
  5 17  1  0
  6  8  1  0
  6 29  1  0
  7 24  4  0
  7 26  4  0
  8 28  1  0
  9 13  2  0
 10 18  1  0
 10 21  4  0
 10 30  4  0
 11 17  2  0
 12 18  1  0
 13 15  1  0
 14 24  1  0
 15 25  1  0
 16 28  2  0
 17 20  1  0
 19 24  4  0
 20 23  1  0
 21 22  4  0
 22 23  4  0
 25 26  4  0
 27 29  2  0
M  END
$$$$

 Created by Python create_sdf_string function

 30 33  0  0  0  0  0  0  0  0999 V2000
    8.3036    9.8571   18.4133 C   0  0  0  0  0  0  0  0  0  0  0  0
    8.3694    7.6612   22.6703 C   0  0  0  0  0  0  0  0  0  0  0  0
    8.4143    6.6863   16.2273 C   0  0  0  0  0  0  0  0  0  0  0  0
   10.7581    6.5674   21.7636 C   0  0  0  0  0  0  0  0  0  0  0  0
    8.4452    8.7960   19.2958 O   0  0  0  0  0  0  0  0  0  0  0  0
    8.7122    6.7842   24.8569 C   0  0  0  0  0  0  0  0  0  0  0  0
   10.3400    6.1726   14.3081 C   0  0  0  0  0  0  0  0  0  0  0  0
    7.4297    7.5873   24.8962 C   0  0  0  0  0  0  0  0  0  0  0  0
    8.1566   10.0536   16.0516 O   0  0  0  0  0  0  0  0  0  0  0  0
   12.4989    6.2074   20.1776 C   0  0  0  0  0  0  0  0  0  0  0  0
    6.9192    9.1053   20.9073 O   0  0  0  0  0  0  0  0  0  0  0  0
   14.3979    6.0729   18.7784 C   0  0  0  0  0  0  0  0  0  0  0  0
    8.6811    9.5354   16.9998 C   0  0  0  0  0  0  0  0  0  0  0  0
    9.2512    4.2713   13.7653 O   0  0  0  0  0  0  0  0  0  0  0  0
    9.6495    8.6317   16.8332 N   0  0  0  0  0  0  0  0  0  0  0  0
    6.2934    8.6988   23.1988 O   0  0  0  0  0  0  0  0  0  0  0  0
    7.9806    8.6543   20.5437 C   0  0  0  0  0  0  0  0  0  0  0  0
   13.7270    5.7144   19.8610 O   0  0  0  0  0  0  0  0  0  0  0  0
    8.3351    5.5235   15.4478 C   0  0  0  0  0  0  0  0  0  0  0  0
    8.7700    7.8434   21.3915 C   0  0  0  0  0  0  0  0  0  0  0  0
   11.7856    6.8851   19.2401 C   0  0  0  0  0  0  0  0  0  0  0  0
   10.5281    7.4276   19.5649 C   0  0  0  0  0  0  0  0  0  0  0  0
   10.0256    7.2907   20.8484 C   0  0  0  0  0  0  0  0  0  0  0  0
    9.3113    5.3049   14.4911 C   0  0  0  0  0  0  0  0  0  0  0  0
    9.4607    7.5646   16.0139 C   0  0  0  0  0  0  0  0  0  0  0  0
   10.4192    7.3157   15.0955 C   0  0  0  0  0  0  0  0  0  0  0  0
   10.2489    6.4227   23.0218 N   0  0  0  0  0  0  0  0  0  0  0  0
    7.2472    8.0746   23.5050 C   0  0  0  0  0  0  0  0  0  0  0  0
    9.2051    6.9101   23.4604 C   0  0  0  0  0  0  0  0  0  0  0  0
   11.9646    6.0299   21.4251 C   0  0  0  0  0  0  0  0  0  0  0  0
  1  5  1  0
  1 13  1  0
  2 20  2  0
  2 28  1  0
  2 29  1  0
  3 19  4  0
  3 25  4  0
  4 23  4  0
  4 27  1  0
  4 30  4  0
  5 17  1  0
  6  8  1  0
  6 29  1  0
  7 24  4  0
  7 26  4  0
  8 28  1  0
  9 13  2  0
 10 18  1  0
 10 21  4  0
 10 30  4  0
 11 17  2  0
 12 18  1  0
 13 15  1  0
 14 24  1  0
 15 25  1  0
 16 28  2  0
 17 20  1  0
 19 24  4  0
 20 23  1  0
 21 22  4  0
 22 23  4  0
 25 26  4  0
 27 29  2  0
M  END
$$$$

 Created by Python create_sdf_string function

 30 33  0  0  0  0  0  0  0  0999 V2000
    8.3036    9.8571   18.4133 C   0  0  0  0  0  0  0  0  0  0  0  0
    8.3694    7.6612   22.6703 C   0  0  0  0  0  0  0  0  0  0  0  0
    8.4143    6.6863   16.2273 C   0  0  0  0  0  0  0  0  0  0  0  0
   10.7581    6.5674   21.7636 C   0  0  0  0  0  0  0  0  0  0  0  0
    8.4452    8.7960   19.2958 O   0  0  0  0  0  0  0  0  0  0  0  0
    8.7122    6.7842   24.8569 C   0  0  0  0  0  0  0  0  0  0  0  0
   10.3400    6.1726   14.3081 C   0  0  0  0  0  0  0  0  0  0  0  0
    7.4297    7.5873   24.8962 C   0  0  0  0  0  0  0  0  0  0  0  0
    8.1566   10.0536   16.0516 O   0  0  0  0  0  0  0  0  0  0  0  0
   12.4989    6.2074   20.1776 C   0  0  0  0  0  0  0  0  0  0  0  0
    6.9192    9.1053   20.9073 O   0  0  0  0  0  0  0  0  0  0  0  0
   14.3979    6.0729   18.7784 C   0  0  0  0  0  0  0  0  0  0  0  0
    8.6811    9.5354   16.9998 C   0  0  0  0  0  0  0  0  0  0  0  0
    9.2512    4.2713   13.7653 O   0  0  0  0  0  0  0  0  0  0  0  0
    9.6495    8.6317   16.8332 N   0  0  0  0  0  0  0  0  0  0  0  0
    6.2934    8.6988   23.1988 O   0  0  0  0  0  0  0  0  0  0  0  0
    7.9806    8.6543   20.5437 C   0  0  0  0  0  0  0  0  0  0  0  0
   13.7270    5.7144   19.8610 O   0  0  0  0  0  0  0  0  0  0  0  0
    8.3351    5.5235   15.4478 C   0  0  0  0  0  0  0  0  0  0  0  0
    8.7700    7.8434   21.3915 C   0  0  0  0  0  0  0  0  0  0  0  0
   11.7856    6.8851   19.2401 C   0  0  0  0  0  0  0  0  0  0  0  0
   10.5281    7.4276   19.5649 C   0  0  0  0  0  0  0  0  0  0  0  0
   10.0256    7.2907   20.8484 C   0  0  0  0  0  0  0  0  0  0  0  0
    9.3113    5.3049   14.4911 C   0  0  0  0  0  0  0  0  0  0  0  0
    9.4607    7.5646   16.0139 C   0  0  0  0  0  0  0  0  0  0  0  0
   10.4192    7.3157   15.0955 C   0  0  0  0  0  0  0  0  0  0  0  0
   10.2489    6.4227   23.0218 N   0  0  0  0  0  0  0  0  0  0  0  0
    7.2472    8.0746   23.5050 C   0  0  0  0  0  0  0  0  0  0  0  0
    9.2051    6.9101   23.4604 C   0  0  0  0  0  0  0  0  0  0  0  0
   11.9646    6.0299   21.4251 C   0  0  0  0  0  0  0  0  0  0  0  0
  1  5  1  0
  1 13  1  0
  2 20  2  0
  2 28  1  0
  2 29  1  0
  3 19  4  0
  3 25  4  0
  4 23  4  0
  4 27  1  0
  4 30  4  0
  5 17  1  0
  6  8  1  0
  6 29  1  0
  7 24  4  0
  7 26  4  0
  8 28  1  0
  9 13  2  0
 10 18  1  0
 10 21  4  0
 10 30  4  0
 11 17  2  0
 12 18  1  0
 13 15  1  0
 14 24  1  0
 15 25  1  0
 16 28  2  0
 17 20  1  0
 19 24  4  0
 20 23  1  0
 21 22  4  0
 22 23  4  0
 25 26  4  0
 27 29  2  0
M  END
$$$$

 Created by Python create_sdf_string function

 30 33  0  0  0  0  0  0  0  0999 V2000
    8.3036    9.8571   18.4133 C   0  0  0  0  0  0  0  0  0  0  0  0
    8.3694    7.6612   22.6703 C   0  0  0  0  0  0  0  0  0  0  0  0
    8.4143    6.6863   16.2273 C   0  0  0  0  0  0  0  0  0  0  0  0
   10.7581    6.5674   21.7636 C   0  0  0  0  0  0  0  0  0  0  0  0
    8.4452    8.7960   19.2958 O   0  0  0  0  0  0  0  0  0  0  0  0
    8.7122    6.7842   24.8569 C   0  0  0  0  0  0  0  0  0  0  0  0
   10.3400    6.1726   14.3081 C   0  0  0  0  0  0  0  0  0  0  0  0
    7.4297    7.5873   24.8962 C   0  0  0  0  0  0  0  0  0  0  0  0
    8.1566   10.0536   16.0516 O   0  0  0  0  0  0  0  0  0  0  0  0
   12.4989    6.2074   20.1776 C   0  0  0  0  0  0  0  0  0  0  0  0
    6.9192    9.1053   20.9073 O   0  0  0  0  0  0  0  0  0  0  0  0
   14.3979    6.0729   18.7784 C   0  0  0  0  0  0  0  0  0  0  0  0
    8.6811    9.5354   16.9998 C   0  0  0  0  0  0  0  0  0  0  0  0
    9.2512    4.2713   13.7653 O   0  0  0  0  0  0  0  0  0  0  0  0
    9.6495    8.6317   16.8332 N   0  0  0  0  0  0  0  0  0  0  0  0
    6.2934    8.6988   23.1988 O   0  0  0  0  0  0  0  0  0  0  0  0
    7.9806    8.6543   20.5437 C   0  0  0  0  0  0  0  0  0  0  0  0
   13.7270    5.7144   19.8610 O   0  0  0  0  0  0  0  0  0  0  0  0
    8.3351    5.5235   15.4478 C   0  0  0  0  0  0  0  0  0  0  0  0
    8.7700    7.8434   21.3915 C   0  0  0  0  0  0  0  0  0  0  0  0
   11.7856    6.8851   19.2401 C   0  0  0  0  0  0  0  0  0  0  0  0
   10.5281    7.4276   19.5649 C   0  0  0  0  0  0  0  0  0  0  0  0
   10.0256    7.2907   20.8484 C   0  0  0  0  0  0  0  0  0  0  0  0
    9.3113    5.3049   14.4911 C   0  0  0  0  0  0  0  0  0  0  0  0
    9.4607    7.5646   16.0139 C   0  0  0  0  0  0  0  0  0  0  0  0
   10.4192    7.3157   15.0955 C   0  0  0  0  0  0  0  0  0  0  0  0
   10.2489    6.4227   23.0218 N   0  0  0  0  0  0  0  0  0  0  0  0
    7.2472    8.0746   23.5050 C   0  0  0  0  0  0  0  0  0  0  0  0
    9.2051    6.9101   23.4604 C   0  0  0  0  0  0  0  0  0  0  0  0
   11.9646    6.0299   21.4251 C   0  0  0  0  0  0  0  0  0  0  0  0
  1  5  1  0
  1 13  1  0
  2 20  2  0
  2 28  1  0
  2 29  1  0
  3 19  4  0
  3 25  4  0
  4 23  4  0
  4 27  1  0
  4 30  4  0
  5 17  1  0
  6  8  1  0
  6 29  1  0
  7 24  4  0
  7 26  4  0
  8 28  1  0
  9 13  2  0
 10 18  1  0
 10 21  4  0
 10 30  4  0
 11 17  2  0
 12 18  1  0
 13 15  1  0
 14 24  1  0
 15 25  1  0
 16 28  2  0
 17 20  1  0
 19 24  4  0
 20 23  1  0
 21 22  4  0
 22 23  4  0
 25 26  4  0
 27 29  2  0
M  END
$$$$

 Created by Python create_sdf_string function

 30 33  0  0  0  0  0  0  0  0999 V2000
    8.3036    9.8571   18.4133 C   0  0  0  0  0  0  0  0  0  0  0  0
    8.3694    7.6612   22.6703 C   0  0  0  0  0  0  0  0  0  0  0  0
    8.4143    6.6863   16.2273 C   0  0  0  0  0  0  0  0  0  0  0  0
   10.7581    6.5674   21.7636 C   0  0  0  0  0  0  0  0  0  0  0  0
    8.4452    8.7960   19.2958 O   0  0  0  0  0  0  0  0  0  0  0  0
    8.7122    6.7842   24.8569 C   0  0  0  0  0  0  0  0  0  0  0  0
   10.3400    6.1726   14.3081 C   0  0  0  0  0  0  0  0  0  0  0  0
    7.4297    7.5873   24.8962 C   0  0  0  0  0  0  0  0  0  0  0  0
    8.1566   10.0536   16.0516 O   0  0  0  0  0  0  0  0  0  0  0  0
   12.4989    6.2074   20.1776 C   0  0  0  0  0  0  0  0  0  0  0  0
    6.9192    9.1053   20.9073 O   0  0  0  0  0  0  0  0  0  0  0  0
   14.3979    6.0729   18.7784 C   0  0  0  0  0  0  0  0  0  0  0  0
    8.6811    9.5354   16.9998 C   0  0  0  0  0  0  0  0  0  0  0  0
    9.2512    4.2713   13.7653 O   0  0  0  0  0  0  0  0  0  0  0  0
    9.6495    8.6317   16.8332 N   0  0  0  0  0  0  0  0  0  0  0  0
    6.2934    8.6988   23.1988 O   0  0  0  0  0  0  0  0  0  0  0  0
    7.9806    8.6543   20.5437 C   0  0  0  0  0  0  0  0  0  0  0  0
   13.7270    5.7144   19.8610 O   0  0  0  0  0  0  0  0  0  0  0  0
    8.3351    5.5235   15.4478 C   0  0  0  0  0  0  0  0  0  0  0  0
    8.7700    7.8434   21.3915 C   0  0  0  0  0  0  0  0  0  0  0  0
   11.7856    6.8851   19.2401 C   0  0  0  0  0  0  0  0  0  0  0  0
   10.5281    7.4276   19.5649 C   0  0  0  0  0  0  0  0  0  0  0  0
   10.0256    7.2907   20.8484 C   0  0  0  0  0  0  0  0  0  0  0  0
    9.3113    5.3049   14.4911 C   0  0  0  0  0  0  0  0  0  0  0  0
    9.4607    7.5646   16.0139 C   0  0  0  0  0  0  0  0  0  0  0  0
   10.4192    7.3157   15.0955 C   0  0  0  0  0  0  0  0  0  0  0  0
   10.2489    6.4227   23.0218 N   0  0  0  0  0  0  0  0  0  0  0  0
    7.2472    8.0746   23.5050 C   0  0  0  0  0  0  0  0  0  0  0  0
    9.2051    6.9101   23.4604 C   0  0  0  0  0  0  0  0  0  0  0  0
   11.9646    6.0299   21.4251 C   0  0  0  0  0  0  0  0  0  0  0  0
  1  5  1  0
  1 13  1  0
  2 20  2  0
  2 28  1  0
  2 29  1  0
  3 19  4  0
  3 25  4  0
  4 23  4  0
  4 27  1  0
  4 30  4  0
  5 17  1  0
  6  8  1  0
  6 29  1  0
  7 24  4  0
  7 26  4  0
  8 28  1  0
  9 13  2  0
 10 18  1  0
 10 21  4  0
 10 30  4  0
 11 17  2  0
 12 18  1  0
 13 15  1  0
 14 24  1  0
 15 25  1  0
 16 28  2  0
 17 20  1  0
 19 24  4  0
 20 23  1  0
 21 22  4  0
 22 23  4  0
 25 26  4  0
 27 29  2  0
M  END
$$$$

 Created by Python create_sdf_string function

 30 33  0  0  0  0  0  0  0  0999 V2000
    8.3036    9.8571   18.4133 C   0  0  0  0  0  0  0  0  0  0  0  0
    8.3694    7.6612   22.6703 C   0  0  0  0  0  0  0  0  0  0  0  0
    8.4143    6.6863   16.2273 C   0  0  0  0  0  0  0  0  0  0  0  0
   10.7581    6.5674   21.7636 C   0  0  0  0  0  0  0  0  0  0  0  0
    8.4452    8.7960   19.2958 O   0  0  0  0  0  0  0  0  0  0  0  0
    8.7122    6.7842   24.8569 C   0  0  0  0  0  0  0  0  0  0  0  0
   10.3400    6.1726   14.3081 C   0  0  0  0  0  0  0  0  0  0  0  0
    7.4297    7.5873   24.8962 C   0  0  0  0  0  0  0  0  0  0  0  0
    8.1566   10.0536   16.0516 O   0  0  0  0  0  0  0  0  0  0  0  0
   12.4989    6.2074   20.1776 C   0  0  0  0  0  0  0  0  0  0  0  0
    6.9192    9.1053   20.9073 O   0  0  0  0  0  0  0  0  0  0  0  0
   14.3979    6.0729   18.7784 C   0  0  0  0  0  0  0  0  0  0  0  0
    8.6811    9.5354   16.9998 C   0  0  0  0  0  0  0  0  0  0  0  0
    9.2512    4.2713   13.7653 O   0  0  0  0  0  0  0  0  0  0  0  0
    9.6495    8.6317   16.8332 N   0  0  0  0  0  0  0  0  0  0  0  0
    6.2934    8.6988   23.1988 O   0  0  0  0  0  0  0  0  0  0  0  0
    7.9806    8.6543   20.5437 C   0  0  0  0  0  0  0  0  0  0  0  0
   13.7270    5.7144   19.8610 O   0  0  0  0  0  0  0  0  0  0  0  0
    8.3351    5.5235   15.4478 C   0  0  0  0  0  0  0  0  0  0  0  0
    8.7700    7.8434   21.3915 C   0  0  0  0  0  0  0  0  0  0  0  0
   11.7856    6.8851   19.2401 C   0  0  0  0  0  0  0  0  0  0  0  0
   10.5281    7.4276   19.5649 C   0  0  0  0  0  0  0  0  0  0  0  0
   10.0256    7.2907   20.8484 C   0  0  0  0  0  0  0  0  0  0  0  0
    9.3113    5.3049   14.4911 C   0  0  0  0  0  0  0  0  0  0  0  0
    9.4607    7.5646   16.0139 C   0  0  0  0  0  0  0  0  0  0  0  0
   10.4192    7.3157   15.0955 C   0  0  0  0  0  0  0  0  0  0  0  0
   10.2489    6.4227   23.0218 N   0  0  0  0  0  0  0  0  0  0  0  0
    7.2472    8.0746   23.5050 C   0  0  0  0  0  0  0  0  0  0  0  0
    9.2051    6.9101   23.4604 C   0  0  0  0  0  0  0  0  0  0  0  0
   11.9646    6.0299   21.4251 C   0  0  0  0  0  0  0  0  0  0  0  0
  1  5  1  0
  1 13  1  0
  2 20  2  0
  2 28  1  0
  2 29  1  0
  3 19  4  0
  3 25  4  0
  4 23  4  0
  4 27  1  0
  4 30  4  0
  5 17  1  0
  6  8  1  0
  6 29  1  0
  7 24  4  0
  7 26  4  0
  8 28  1  0
  9 13  2  0
 10 18  1  0
 10 21  4  0
 10 30  4  0
 11 17  2  0
 12 18  1  0
 13 15  1  0
 14 24  1  0
 15 25  1  0
 16 28  2  0
 17 20  1  0
 19 24  4  0
 20 23  1  0
 21 22  4  0
 22 23  4  0
 25 26  4  0
 27 29  2  0
M  END
$$$$

 Created by Python create_sdf_string function

 30 33  0  0  0  0  0  0  0  0999 V2000
    8.3036    9.8571   18.4133 C   0  0  0  0  0  0  0  0  0  0  0  0
    8.3694    7.6612   22.6703 C   0  0  0  0  0  0  0  0  0  0  0  0
    8.4143    6.6863   16.2273 C   0  0  0  0  0  0  0  0  0  0  0  0
   10.7581    6.5674   21.7636 C   0  0  0  0  0  0  0  0  0  0  0  0
    8.4452    8.7960   19.2958 O   0  0  0  0  0  0  0  0  0  0  0  0
    8.7122    6.7842   24.8569 C   0  0  0  0  0  0  0  0  0  0  0  0
   10.3400    6.1726   14.3081 C   0  0  0  0  0  0  0  0  0  0  0  0
    7.4297    7.5873   24.8962 C   0  0  0  0  0  0  0  0  0  0  0  0
    8.1566   10.0536   16.0516 O   0  0  0  0  0  0  0  0  0  0  0  0
   12.4989    6.2074   20.1776 C   0  0  0  0  0  0  0  0  0  0  0  0
    6.9192    9.1053   20.9073 O   0  0  0  0  0  0  0  0  0  0  0  0
   14.3979    6.0729   18.7784 C   0  0  0  0  0  0  0  0  0  0  0  0
    8.6811    9.5354   16.9998 C   0  0  0  0  0  0  0  0  0  0  0  0
    9.2512    4.2713   13.7653 O   0  0  0  0  0  0  0  0  0  0  0  0
    9.6495    8.6317   16.8332 N   0  0  0  0  0  0  0  0  0  0  0  0
    6.2934    8.6988   23.1988 O   0  0  0  0  0  0  0  0  0  0  0  0
    7.9806    8.6543   20.5437 C   0  0  0  0  0  0  0  0  0  0  0  0
   13.7270    5.7144   19.8610 O   0  0  0  0  0  0  0  0  0  0  0  0
    8.3351    5.5235   15.4478 C   0  0  0  0  0  0  0  0  0  0  0  0
    8.7700    7.8434   21.3915 C   0  0  0  0  0  0  0  0  0  0  0  0
   11.7856    6.8851   19.2401 C   0  0  0  0  0  0  0  0  0  0  0  0
   10.5281    7.4276   19.5649 C   0  0  0  0  0  0  0  0  0  0  0  0
   10.0256    7.2907   20.8484 C   0  0  0  0  0  0  0  0  0  0  0  0
    9.3113    5.3049   14.4911 C   0  0  0  0  0  0  0  0  0  0  0  0
    9.4607    7.5646   16.0139 C   0  0  0  0  0  0  0  0  0  0  0  0
   10.4192    7.3157   15.0955 C   0  0  0  0  0  0  0  0  0  0  0  0
   10.2489    6.4227   23.0218 N   0  0  0  0  0  0  0  0  0  0  0  0
    7.2472    8.0746   23.5050 C   0  0  0  0  0  0  0  0  0  0  0  0
    9.2051    6.9101   23.4604 C   0  0  0  0  0  0  0  0  0  0  0  0
   11.9646    6.0299   21.4251 C   0  0  0  0  0  0  0  0  0  0  0  0
  1  5  1  0
  1 13  1  0
  2 20  2  0
  2 28  1  0
  2 29  1  0
  3 19  4  0
  3 25  4  0
  4 23  4  0
  4 27  1  0
  4 30  4  0
  5 17  1  0
  6  8  1  0
  6 29  1  0
  7 24  4  0
  7 26  4  0
  8 28  1  0
  9 13  2  0
 10 18  1  0
 10 21  4  0
 10 30  4  0
 11 17  2  0
 12 18  1  0
 13 15  1  0
 14 24  1  0
 15 25  1  0
 16 28  2  0
 17 20  1  0
 19 24  4  0
 20 23  1  0
 21 22  4  0
 22 23  4  0
 25 26  4  0
 27 29  2  0
M  END
$$$$

 Created by Python create_sdf_string function

 30 33  0  0  0  0  0  0  0  0999 V2000
    8.3036    9.8571   18.4133 C   0  0  0  0  0  0  0  0  0  0  0  0
    8.3694    7.6612   22.6703 C   0  0  0  0  0  0  0  0  0  0  0  0
    8.4143    6.6863   16.2273 C   0  0  0  0  0  0  0  0  0  0  0  0
   10.7581    6.5674   21.7636 C   0  0  0  0  0  0  0  0  0  0  0  0
    8.4452    8.7960   19.2958 O   0  0  0  0  0  0  0  0  0  0  0  0
    8.7122    6.7842   24.8569 C   0  0  0  0  0  0  0  0  0  0  0  0
   10.3400    6.1726   14.3081 C   0  0  0  0  0  0  0  0  0  0  0  0
    7.4297    7.5873   24.8962 C   0  0  0  0  0  0  0  0  0  0  0  0
    8.1566   10.0536   16.0516 O   0  0  0  0  0  0  0  0  0  0  0  0
   12.4989    6.2074   20.1776 C   0  0  0  0  0  0  0  0  0  0  0  0
    6.9192    9.1053   20.9073 O   0  0  0  0  0  0  0  0  0  0  0  0
   14.3979    6.0729   18.7784 C   0  0  0  0  0  0  0  0  0  0  0  0
    8.6811    9.5354   16.9998 C   0  0  0  0  0  0  0  0  0  0  0  0
    9.2512    4.2713   13.7653 O   0  0  0  0  0  0  0  0  0  0  0  0
    9.6495    8.6317   16.8332 N   0  0  0  0  0  0  0  0  0  0  0  0
    6.2934    8.6988   23.1988 O   0  0  0  0  0  0  0  0  0  0  0  0
    7.9806    8.6543   20.5437 C   0  0  0  0  0  0  0  0  0  0  0  0
   13.7270    5.7144   19.8610 O   0  0  0  0  0  0  0  0  0  0  0  0
    8.3351    5.5235   15.4478 C   0  0  0  0  0  0  0  0  0  0  0  0
    8.7700    7.8434   21.3915 C   0  0  0  0  0  0  0  0  0  0  0  0
   11.7856    6.8851   19.2401 C   0  0  0  0  0  0  0  0  0  0  0  0
   10.5281    7.4276   19.5649 C   0  0  0  0  0  0  0  0  0  0  0  0
   10.0256    7.2907   20.8484 C   0  0  0  0  0  0  0  0  0  0  0  0
    9.3113    5.3049   14.4911 C   0  0  0  0  0  0  0  0  0  0  0  0
    9.4607    7.5646   16.0139 C   0  0  0  0  0  0  0  0  0  0  0  0
   10.4192    7.3157   15.0955 C   0  0  0  0  0  0  0  0  0  0  0  0
   10.2489    6.4227   23.0218 N   0  0  0  0  0  0  0  0  0  0  0  0
    7.2472    8.0746   23.5050 C   0  0  0  0  0  0  0  0  0  0  0  0
    9.2051    6.9101   23.4604 C   0  0  0  0  0  0  0  0  0  0  0  0
   11.9646    6.0299   21.4251 C   0  0  0  0  0  0  0  0  0  0  0  0
  1  5  1  0
  1 13  1  0
  2 20  2  0
  2 28  1  0
  2 29  1  0
  3 19  4  0
  3 25  4  0
  4 23  4  0
  4 27  1  0
  4 30  4  0
  5 17  1  0
  6  8  1  0
  6 29  1  0
  7 24  4  0
  7 26  4  0
  8 28  1  0
  9 13  2  0
 10 18  1  0
 10 21  4  0
 10 30  4  0
 11 17  2  0
 12 18  1  0
 13 15  1  0
 14 24  1  0
 15 25  1  0
 16 28  2  0
 17 20  1  0
 19 24  4  0
 20 23  1  0
 21 22  4  0
 22 23  4  0
 25 26  4  0
 27 29  2  0
M  END
$$$$

 Created by Python create_sdf_string function

 30 33  0  0  0  0  0  0  0  0999 V2000
    8.3036    9.8571   18.4133 C   0  0  0  0  0  0  0  0  0  0  0  0
    8.3694    7.6612   22.6703 C   0  0  0  0  0  0  0  0  0  0  0  0
    8.4143    6.6863   16.2273 C   0  0  0  0  0  0  0  0  0  0  0  0
   10.7581    6.5674   21.7636 C   0  0  0  0  0  0  0  0  0  0  0  0
    8.4452    8.7960   19.2958 O   0  0  0  0  0  0  0  0  0  0  0  0
    8.7122    6.7842   24.8569 C   0  0  0  0  0  0  0  0  0  0  0  0
   10.3400    6.1726   14.3081 C   0  0  0  0  0  0  0  0  0  0  0  0
    7.4297    7.5873   24.8962 C   0  0  0  0  0  0  0  0  0  0  0  0
    8.1566   10.0536   16.0516 O   0  0  0  0  0  0  0  0  0  0  0  0
   12.4989    6.2074   20.1776 C   0  0  0  0  0  0  0  0  0  0  0  0
    6.9192    9.1053   20.9073 O   0  0  0  0  0  0  0  0  0  0  0  0
   14.3979    6.0729   18.7784 C   0  0  0  0  0  0  0  0  0  0  0  0
    8.6811    9.5354   16.9998 C   0  0  0  0  0  0  0  0  0  0  0  0
    9.2512    4.2713   13.7653 O   0  0  0  0  0  0  0  0  0  0  0  0
    9.6495    8.6317   16.8332 N   0  0  0  0  0  0  0  0  0  0  0  0
    6.2934    8.6988   23.1988 O   0  0  0  0  0  0  0  0  0  0  0  0
    7.9806    8.6543   20.5437 C   0  0  0  0  0  0  0  0  0  0  0  0
   13.7270    5.7144   19.8610 O   0  0  0  0  0  0  0  0  0  0  0  0
    8.3351    5.5235   15.4478 C   0  0  0  0  0  0  0  0  0  0  0  0
    8.7700    7.8434   21.3915 C   0  0  0  0  0  0  0  0  0  0  0  0
   11.7856    6.8851   19.2401 C   0  0  0  0  0  0  0  0  0  0  0  0
   10.5281    7.4276   19.5649 C   0  0  0  0  0  0  0  0  0  0  0  0
   10.0256    7.2907   20.8484 C   0  0  0  0  0  0  0  0  0  0  0  0
    9.3113    5.3049   14.4911 C   0  0  0  0  0  0  0  0  0  0  0  0
    9.4607    7.5646   16.0139 C   0  0  0  0  0  0  0  0  0  0  0  0
   10.4192    7.3157   15.0955 C   0  0  0  0  0  0  0  0  0  0  0  0
   10.2489    6.4227   23.0218 N   0  0  0  0  0  0  0  0  0  0  0  0
    7.2472    8.0746   23.5050 C   0  0  0  0  0  0  0  0  0  0  0  0
    9.2051    6.9101   23.4604 C   0  0  0  0  0  0  0  0  0  0  0  0
   11.9646    6.0299   21.4251 C   0  0  0  0  0  0  0  0  0  0  0  0
  1  5  1  0
  1 13  1  0
  2 20  2  0
  2 28  1  0
  2 29  1  0
  3 19  4  0
  3 25  4  0
  4 23  4  0
  4 27  1  0
  4 30  4  0
  5 17  1  0
  6  8  1  0
  6 29  1  0
  7 24  4  0
  7 26  4  0
  8 28  1  0
  9 13  2  0
 10 18  1  0
 10 21  4  0
 10 30  4  0
 11 17  2  0
 12 18  1  0
 13 15  1  0
 14 24  1  0
 15 25  1  0
 16 28  2  0
 17 20  1  0
 19 24  4  0
 20 23  1  0
 21 22  4  0
 22 23  4  0
 25 26  4  0
 27 29  2  0
M  END
$$$$

 Created by Python create_sdf_string function

 30 33  0  0  0  0  0  0  0  0999 V2000
    8.3036    9.8571   18.4133 C   0  0  0  0  0  0  0  0  0  0  0  0
    8.3694    7.6612   22.6703 C   0  0  0  0  0  0  0  0  0  0  0  0
    8.4143    6.6863   16.2273 C   0  0  0  0  0  0  0  0  0  0  0  0
   10.7581    6.5674   21.7636 C   0  0  0  0  0  0  0  0  0  0  0  0
    8.4452    8.7960   19.2958 O   0  0  0  0  0  0  0  0  0  0  0  0
    8.7122    6.7842   24.8569 C   0  0  0  0  0  0  0  0  0  0  0  0
   10.3400    6.1726   14.3081 C   0  0  0  0  0  0  0  0  0  0  0  0
    7.4297    7.5873   24.8962 C   0  0  0  0  0  0  0  0  0  0  0  0
    8.1566   10.0536   16.0516 O   0  0  0  0  0  0  0  0  0  0  0  0
   12.4989    6.2074   20.1776 C   0  0  0  0  0  0  0  0  0  0  0  0
    6.9192    9.1053   20.9073 O   0  0  0  0  0  0  0  0  0  0  0  0
   14.3979    6.0729   18.7784 C   0  0  0  0  0  0  0  0  0  0  0  0
    8.6811    9.5354   16.9998 C   0  0  0  0  0  0  0  0  0  0  0  0
    9.2512    4.2713   13.7653 O   0  0  0  0  0  0  0  0  0  0  0  0
    9.6495    8.6317   16.8332 N   0  0  0  0  0  0  0  0  0  0  0  0
    6.2934    8.6988   23.1988 O   0  0  0  0  0  0  0  0  0  0  0  0
    7.9806    8.6543   20.5437 C   0  0  0  0  0  0  0  0  0  0  0  0
   13.7270    5.7144   19.8610 O   0  0  0  0  0  0  0  0  0  0  0  0
    8.3351    5.5235   15.4478 C   0  0  0  0  0  0  0  0  0  0  0  0
    8.7700    7.8434   21.3915 C   0  0  0  0  0  0  0  0  0  0  0  0
   11.7856    6.8851   19.2401 C   0  0  0  0  0  0  0  0  0  0  0  0
   10.5281    7.4276   19.5649 C   0  0  0  0  0  0  0  0  0  0  0  0
   10.0256    7.2907   20.8484 C   0  0  0  0  0  0  0  0  0  0  0  0
    9.3113    5.3049   14.4911 C   0  0  0  0  0  0  0  0  0  0  0  0
    9.4607    7.5646   16.0139 C   0  0  0  0  0  0  0  0  0  0  0  0
   10.4192    7.3157   15.0955 C   0  0  0  0  0  0  0  0  0  0  0  0
   10.2489    6.4227   23.0218 N   0  0  0  0  0  0  0  0  0  0  0  0
    7.2472    8.0746   23.5050 C   0  0  0  0  0  0  0  0  0  0  0  0
    9.2051    6.9101   23.4604 C   0  0  0  0  0  0  0  0  0  0  0  0
   11.9646    6.0299   21.4251 C   0  0  0  0  0  0  0  0  0  0  0  0
  1  5  1  0
  1 13  1  0
  2 20  2  0
  2 28  1  0
  2 29  1  0
  3 19  4  0
  3 25  4  0
  4 23  4  0
  4 27  1  0
  4 30  4  0
  5 17  1  0
  6  8  1  0
  6 29  1  0
  7 24  4  0
  7 26  4  0
  8 28  1  0
  9 13  2  0
 10 18  1  0
 10 21  4  0
 10 30  4  0
 11 17  2  0
 12 18  1  0
 13 15  1  0
 14 24  1  0
 15 25  1  0
 16 28  2  0
 17 20  1  0
 19 24  4  0
 20 23  1  0
 21 22  4  0
 22 23  4  0
 25 26  4  0
 27 29  2  0
M  END
$$$$

 Created by Python create_sdf_string function

 30 33  0  0  0  0  0  0  0  0999 V2000
    8.3036    9.8571   18.4133 C   0  0  0  0  0  0  0  0  0  0  0  0
    8.3694    7.6612   22.6703 C   0  0  0  0  0  0  0  0  0  0  0  0
    8.4143    6.6863   16.2273 C   0  0  0  0  0  0  0  0  0  0  0  0
   10.7581    6.5674   21.7636 C   0  0  0  0  0  0  0  0  0  0  0  0
    8.4452    8.7960   19.2958 O   0  0  0  0  0  0  0  0  0  0  0  0
    8.7122    6.7842   24.8569 C   0  0  0  0  0  0  0  0  0  0  0  0
   10.3400    6.1726   14.3081 C   0  0  0  0  0  0  0  0  0  0  0  0
    7.4297    7.5873   24.8962 C   0  0  0  0  0  0  0  0  0  0  0  0
    8.1566   10.0536   16.0516 O   0  0  0  0  0  0  0  0  0  0  0  0
   12.4989    6.2074   20.1776 C   0  0  0  0  0  0  0  0  0  0  0  0
    6.9192    9.1053   20.9073 O   0  0  0  0  0  0  0  0  0  0  0  0
   14.3979    6.0729   18.7784 C   0  0  0  0  0  0  0  0  0  0  0  0
    8.6811    9.5354   16.9998 C   0  0  0  0  0  0  0  0  0  0  0  0
    9.2512    4.2713   13.7653 O   0  0  0  0  0  0  0  0  0  0  0  0
    9.6495    8.6317   16.8332 N   0  0  0  0  0  0  0  0  0  0  0  0
    6.2934    8.6988   23.1988 O   0  0  0  0  0  0  0  0  0  0  0  0
    7.9806    8.6543   20.5437 C   0  0  0  0  0  0  0  0  0  0  0  0
   13.7270    5.7144   19.8610 O   0  0  0  0  0  0  0  0  0  0  0  0
    8.3351    5.5235   15.4478 C   0  0  0  0  0  0  0  0  0  0  0  0
    8.7700    7.8434   21.3915 C   0  0  0  0  0  0  0  0  0  0  0  0
   11.7856    6.8851   19.2401 C   0  0  0  0  0  0  0  0  0  0  0  0
   10.5281    7.4276   19.5649 C   0  0  0  0  0  0  0  0  0  0  0  0
   10.0256    7.2907   20.8484 C   0  0  0  0  0  0  0  0  0  0  0  0
    9.3113    5.3049   14.4911 C   0  0  0  0  0  0  0  0  0  0  0  0
    9.4607    7.5646   16.0139 C   0  0  0  0  0  0  0  0  0  0  0  0
   10.4192    7.3157   15.0955 C   0  0  0  0  0  0  0  0  0  0  0  0
   10.2489    6.4227   23.0218 N   0  0  0  0  0  0  0  0  0  0  0  0
    7.2472    8.0746   23.5050 C   0  0  0  0  0  0  0  0  0  0  0  0
    9.2051    6.9101   23.4604 C   0  0  0  0  0  0  0  0  0  0  0  0
   11.9646    6.0299   21.4251 C   0  0  0  0  0  0  0  0  0  0  0  0
  1  5  1  0
  1 13  1  0
  2 20  2  0
  2 28  1  0
  2 29  1  0
  3 19  4  0
  3 25  4  0
  4 23  4  0
  4 27  1  0
  4 30  4  0
  5 17  1  0
  6  8  1  0
  6 29  1  0
  7 24  4  0
  7 26  4  0
  8 28  1  0
  9 13  2  0
 10 18  1  0
 10 21  4  0
 10 30  4  0
 11 17  2  0
 12 18  1  0
 13 15  1  0
 14 24  1  0
 15 25  1  0
 16 28  2  0
 17 20  1  0
 19 24  4  0
 20 23  1  0
 21 22  4  0
 22 23  4  0
 25 26  4  0
 27 29  2  0
M  END
$$$$

 Created by Python create_sdf_string function

 30 33  0  0  0  0  0  0  0  0999 V2000
    8.3036    9.8571   18.4133 C   0  0  0  0  0  0  0  0  0  0  0  0
    8.3694    7.6612   22.6703 C   0  0  0  0  0  0  0  0  0  0  0  0
    8.4143    6.6863   16.2273 C   0  0  0  0  0  0  0  0  0  0  0  0
   10.7581    6.5674   21.7636 C   0  0  0  0  0  0  0  0  0  0  0  0
    8.4452    8.7960   19.2958 O   0  0  0  0  0  0  0  0  0  0  0  0
    8.7122    6.7842   24.8569 C   0  0  0  0  0  0  0  0  0  0  0  0
   10.3400    6.1726   14.3081 C   0  0  0  0  0  0  0  0  0  0  0  0
    7.4297    7.5873   24.8962 C   0  0  0  0  0  0  0  0  0  0  0  0
    8.1566   10.0536   16.0516 O   0  0  0  0  0  0  0  0  0  0  0  0
   12.4989    6.2074   20.1776 C   0  0  0  0  0  0  0  0  0  0  0  0
    6.9192    9.1053   20.9073 O   0  0  0  0  0  0  0  0  0  0  0  0
   14.3979    6.0729   18.7784 C   0  0  0  0  0  0  0  0  0  0  0  0
    8.6811    9.5354   16.9998 C   0  0  0  0  0  0  0  0  0  0  0  0
    9.2512    4.2713   13.7653 O   0  0  0  0  0  0  0  0  0  0  0  0
    9.6495    8.6317   16.8332 N   0  0  0  0  0  0  0  0  0  0  0  0
    6.2934    8.6988   23.1988 O   0  0  0  0  0  0  0  0  0  0  0  0
    7.9806    8.6543   20.5437 C   0  0  0  0  0  0  0  0  0  0  0  0
   13.7270    5.7144   19.8610 O   0  0  0  0  0  0  0  0  0  0  0  0
    8.3351    5.5235   15.4478 C   0  0  0  0  0  0  0  0  0  0  0  0
    8.7700    7.8434   21.3915 C   0  0  0  0  0  0  0  0  0  0  0  0
   11.7856    6.8851   19.2401 C   0  0  0  0  0  0  0  0  0  0  0  0
   10.5281    7.4276   19.5649 C   0  0  0  0  0  0  0  0  0  0  0  0
   10.0256    7.2907   20.8484 C   0  0  0  0  0  0  0  0  0  0  0  0
    9.3113    5.3049   14.4911 C   0  0  0  0  0  0  0  0  0  0  0  0
    9.4607    7.5646   16.0139 C   0  0  0  0  0  0  0  0  0  0  0  0
   10.4192    7.3157   15.0955 C   0  0  0  0  0  0  0  0  0  0  0  0
   10.2489    6.4227   23.0218 N   0  0  0  0  0  0  0  0  0  0  0  0
    7.2472    8.0746   23.5050 C   0  0  0  0  0  0  0  0  0  0  0  0
    9.2051    6.9101   23.4604 C   0  0  0  0  0  0  0  0  0  0  0  0
   11.9646    6.0299   21.4251 C   0  0  0  0  0  0  0  0  0  0  0  0
  1  5  1  0
  1 13  1  0
  2 20  2  0
  2 28  1  0
  2 29  1  0
  3 19  4  0
  3 25  4  0
  4 23  4  0
  4 27  1  0
  4 30  4  0
  5 17  1  0
  6  8  1  0
  6 29  1  0
  7 24  4  0
  7 26  4  0
  8 28  1  0
  9 13  2  0
 10 18  1  0
 10 21  4  0
 10 30  4  0
 11 17  2  0
 12 18  1  0
 13 15  1  0
 14 24  1  0
 15 25  1  0
 16 28  2  0
 17 20  1  0
 19 24  4  0
 20 23  1  0
 21 22  4  0
 22 23  4  0
 25 26  4  0
 27 29  2  0
M  END
$$$$

 Created by Python create_sdf_string function

 30 33  0  0  0  0  0  0  0  0999 V2000
    8.3036    9.8571   18.4133 C   0  0  0  0  0  0  0  0  0  0  0  0
    8.3694    7.6612   22.6703 C   0  0  0  0  0  0  0  0  0  0  0  0
    8.4143    6.6863   16.2273 C   0  0  0  0  0  0  0  0  0  0  0  0
   10.7581    6.5674   21.7636 C   0  0  0  0  0  0  0  0  0  0  0  0
    8.4452    8.7960   19.2958 O   0  0  0  0  0  0  0  0  0  0  0  0
    8.7122    6.7842   24.8569 C   0  0  0  0  0  0  0  0  0  0  0  0
   10.3400    6.1726   14.3081 C   0  0  0  0  0  0  0  0  0  0  0  0
    7.4297    7.5873   24.8962 C   0  0  0  0  0  0  0  0  0  0  0  0
    8.1566   10.0536   16.0516 O   0  0  0  0  0  0  0  0  0  0  0  0
   12.4989    6.2074   20.1776 C   0  0  0  0  0  0  0  0  0  0  0  0
    6.9192    9.1053   20.9073 O   0  0  0  0  0  0  0  0  0  0  0  0
   14.3979    6.0729   18.7784 C   0  0  0  0  0  0  0  0  0  0  0  0
    8.6811    9.5354   16.9998 C   0  0  0  0  0  0  0  0  0  0  0  0
    9.2512    4.2713   13.7653 O   0  0  0  0  0  0  0  0  0  0  0  0
    9.6495    8.6317   16.8332 N   0  0  0  0  0  0  0  0  0  0  0  0
    6.2934    8.6988   23.1988 O   0  0  0  0  0  0  0  0  0  0  0  0
    7.9806    8.6543   20.5437 C   0  0  0  0  0  0  0  0  0  0  0  0
   13.7270    5.7144   19.8610 O   0  0  0  0  0  0  0  0  0  0  0  0
    8.3351    5.5235   15.4478 C   0  0  0  0  0  0  0  0  0  0  0  0
    8.7700    7.8434   21.3915 C   0  0  0  0  0  0  0  0  0  0  0  0
   11.7856    6.8851   19.2401 C   0  0  0  0  0  0  0  0  0  0  0  0
   10.5281    7.4276   19.5649 C   0  0  0  0  0  0  0  0  0  0  0  0
   10.0256    7.2907   20.8484 C   0  0  0  0  0  0  0  0  0  0  0  0
    9.3113    5.3049   14.4911 C   0  0  0  0  0  0  0  0  0  0  0  0
    9.4607    7.5646   16.0139 C   0  0  0  0  0  0  0  0  0  0  0  0
   10.4192    7.3157   15.0955 C   0  0  0  0  0  0  0  0  0  0  0  0
   10.2489    6.4227   23.0218 N   0  0  0  0  0  0  0  0  0  0  0  0
    7.2472    8.0746   23.5050 C   0  0  0  0  0  0  0  0  0  0  0  0
    9.2051    6.9101   23.4604 C   0  0  0  0  0  0  0  0  0  0  0  0
   11.9646    6.0299   21.4251 C   0  0  0  0  0  0  0  0  0  0  0  0
  1  5  1  0
  1 13  1  0
  2 20  2  0
  2 28  1  0
  2 29  1  0
  3 19  4  0
  3 25  4  0
  4 23  4  0
  4 27  1  0
  4 30  4  0
  5 17  1  0
  6  8  1  0
  6 29  1  0
  7 24  4  0
  7 26  4  0
  8 28  1  0
  9 13  2  0
 10 18  1  0
 10 21  4  0
 10 30  4  0
 11 17  2  0
 12 18  1  0
 13 15  1  0
 14 24  1  0
 15 25  1  0
 16 28  2  0
 17 20  1  0
 19 24  4  0
 20 23  1  0
 21 22  4  0
 22 23  4  0
 25 26  4  0
 27 29  2  0
M  END
$$$$

 Created by Python create_sdf_string function

 30 33  0  0  0  0  0  0  0  0999 V2000
    8.3036    9.8571   18.4133 C   0  0  0  0  0  0  0  0  0  0  0  0
    8.3694    7.6612   22.6703 C   0  0  0  0  0  0  0  0  0  0  0  0
    8.4143    6.6863   16.2273 C   0  0  0  0  0  0  0  0  0  0  0  0
   10.7581    6.5674   21.7636 C   0  0  0  0  0  0  0  0  0  0  0  0
    8.4452    8.7960   19.2958 O   0  0  0  0  0  0  0  0  0  0  0  0
    8.7122    6.7842   24.8569 C   0  0  0  0  0  0  0  0  0  0  0  0
   10.3400    6.1726   14.3081 C   0  0  0  0  0  0  0  0  0  0  0  0
    7.4297    7.5873   24.8962 C   0  0  0  0  0  0  0  0  0  0  0  0
    8.1566   10.0536   16.0516 O   0  0  0  0  0  0  0  0  0  0  0  0
   12.4989    6.2074   20.1776 C   0  0  0  0  0  0  0  0  0  0  0  0
    6.9192    9.1053   20.9073 O   0  0  0  0  0  0  0  0  0  0  0  0
   14.3979    6.0729   18.7784 C   0  0  0  0  0  0  0  0  0  0  0  0
    8.6811    9.5354   16.9998 C   0  0  0  0  0  0  0  0  0  0  0  0
    9.2512    4.2713   13.7653 O   0  0  0  0  0  0  0  0  0  0  0  0
    9.6495    8.6317   16.8332 N   0  0  0  0  0  0  0  0  0  0  0  0
    6.2934    8.6988   23.1988 O   0  0  0  0  0  0  0  0  0  0  0  0
    7.9806    8.6543   20.5437 C   0  0  0  0  0  0  0  0  0  0  0  0
   13.7270    5.7144   19.8610 O   0  0  0  0  0  0  0  0  0  0  0  0
    8.3351    5.5235   15.4478 C   0  0  0  0  0  0  0  0  0  0  0  0
    8.7700    7.8434   21.3915 C   0  0  0  0  0  0  0  0  0  0  0  0
   11.7856    6.8851   19.2401 C   0  0  0  0  0  0  0  0  0  0  0  0
   10.5281    7.4276   19.5649 C   0  0  0  0  0  0  0  0  0  0  0  0
   10.0256    7.2907   20.8484 C   0  0  0  0  0  0  0  0  0  0  0  0
    9.3113    5.3049   14.4911 C   0  0  0  0  0  0  0  0  0  0  0  0
    9.4607    7.5646   16.0139 C   0  0  0  0  0  0  0  0  0  0  0  0
   10.4192    7.3157   15.0955 C   0  0  0  0  0  0  0  0  0  0  0  0
   10.2489    6.4227   23.0218 N   0  0  0  0  0  0  0  0  0  0  0  0
    7.2472    8.0746   23.5050 C   0  0  0  0  0  0  0  0  0  0  0  0
    9.2051    6.9101   23.4604 C   0  0  0  0  0  0  0  0  0  0  0  0
   11.9646    6.0299   21.4251 C   0  0  0  0  0  0  0  0  0  0  0  0
  1  5  1  0
  1 13  1  0
  2 20  2  0
  2 28  1  0
  2 29  1  0
  3 19  4  0
  3 25  4  0
  4 23  4  0
  4 27  1  0
  4 30  4  0
  5 17  1  0
  6  8  1  0
  6 29  1  0
  7 24  4  0
  7 26  4  0
  8 28  1  0
  9 13  2  0
 10 18  1  0
 10 21  4  0
 10 30  4  0
 11 17  2  0
 12 18  1  0
 13 15  1  0
 14 24  1  0
 15 25  1  0
 16 28  2  0
 17 20  1  0
 19 24  4  0
 20 23  1  0
 21 22  4  0
 22 23  4  0
 25 26  4  0
 27 29  2  0
M  END
$$$$

 Created by Python create_sdf_string function

 30 33  0  0  0  0  0  0  0  0999 V2000
    8.3036    9.8571   18.4133 C   0  0  0  0  0  0  0  0  0  0  0  0
    8.3694    7.6612   22.6703 C   0  0  0  0  0  0  0  0  0  0  0  0
    8.4143    6.6863   16.2273 C   0  0  0  0  0  0  0  0  0  0  0  0
   10.7581    6.5674   21.7636 C   0  0  0  0  0  0  0  0  0  0  0  0
    8.4452    8.7960   19.2958 O   0  0  0  0  0  0  0  0  0  0  0  0
    8.7122    6.7842   24.8569 C   0  0  0  0  0  0  0  0  0  0  0  0
   10.3400    6.1726   14.3081 C   0  0  0  0  0  0  0  0  0  0  0  0
    7.4297    7.5873   24.8962 C   0  0  0  0  0  0  0  0  0  0  0  0
    8.1566   10.0536   16.0516 O   0  0  0  0  0  0  0  0  0  0  0  0
   12.4989    6.2074   20.1776 C   0  0  0  0  0  0  0  0  0  0  0  0
    6.9192    9.1053   20.9073 O   0  0  0  0  0  0  0  0  0  0  0  0
   14.3979    6.0729   18.7784 C   0  0  0  0  0  0  0  0  0  0  0  0
    8.6811    9.5354   16.9998 C   0  0  0  0  0  0  0  0  0  0  0  0
    9.2512    4.2713   13.7653 O   0  0  0  0  0  0  0  0  0  0  0  0
    9.6495    8.6317   16.8332 N   0  0  0  0  0  0  0  0  0  0  0  0
    6.2934    8.6988   23.1988 O   0  0  0  0  0  0  0  0  0  0  0  0
    7.9806    8.6543   20.5437 C   0  0  0  0  0  0  0  0  0  0  0  0
   13.7270    5.7144   19.8610 O   0  0  0  0  0  0  0  0  0  0  0  0
    8.3351    5.5235   15.4478 C   0  0  0  0  0  0  0  0  0  0  0  0
    8.7700    7.8434   21.3915 C   0  0  0  0  0  0  0  0  0  0  0  0
   11.7856    6.8851   19.2401 C   0  0  0  0  0  0  0  0  0  0  0  0
   10.5281    7.4276   19.5649 C   0  0  0  0  0  0  0  0  0  0  0  0
   10.0256    7.2907   20.8484 C   0  0  0  0  0  0  0  0  0  0  0  0
    9.3113    5.3049   14.4911 C   0  0  0  0  0  0  0  0  0  0  0  0
    9.4607    7.5646   16.0139 C   0  0  0  0  0  0  0  0  0  0  0  0
   10.4192    7.3157   15.0955 C   0  0  0  0  0  0  0  0  0  0  0  0
   10.2489    6.4227   23.0218 N   0  0  0  0  0  0  0  0  0  0  0  0
    7.2472    8.0746   23.5050 C   0  0  0  0  0  0  0  0  0  0  0  0
    9.2051    6.9101   23.4604 C   0  0  0  0  0  0  0  0  0  0  0  0
   11.9646    6.0299   21.4251 C   0  0  0  0  0  0  0  0  0  0  0  0
  1  5  1  0
  1 13  1  0
  2 20  2  0
  2 28  1  0
  2 29  1  0
  3 19  4  0
  3 25  4  0
  4 23  4  0
  4 27  1  0
  4 30  4  0
  5 17  1  0
  6  8  1  0
  6 29  1  0
  7 24  4  0
  7 26  4  0
  8 28  1  0
  9 13  2  0
 10 18  1  0
 10 21  4  0
 10 30  4  0
 11 17  2  0
 12 18  1  0
 13 15  1  0
 14 24  1  0
 15 25  1  0
 16 28  2  0
 17 20  1  0
 19 24  4  0
 20 23  1  0
 21 22  4  0
 22 23  4  0
 25 26  4  0
 27 29  2  0
M  END
$$$$

 Created by Python create_sdf_string function

 30 33  0  0  0  0  0  0  0  0999 V2000
    8.3036    9.8571   18.4133 C   0  0  0  0  0  0  0  0  0  0  0  0
    8.3694    7.6612   22.6703 C   0  0  0  0  0  0  0  0  0  0  0  0
    8.4143    6.6863   16.2273 C   0  0  0  0  0  0  0  0  0  0  0  0
   10.7581    6.5674   21.7636 C   0  0  0  0  0  0  0  0  0  0  0  0
    8.4452    8.7960   19.2958 O   0  0  0  0  0  0  0  0  0  0  0  0
    8.7122    6.7842   24.8569 C   0  0  0  0  0  0  0  0  0  0  0  0
   10.3400    6.1726   14.3081 C   0  0  0  0  0  0  0  0  0  0  0  0
    7.4297    7.5873   24.8962 C   0  0  0  0  0  0  0  0  0  0  0  0
    8.1566   10.0536   16.0516 O   0  0  0  0  0  0  0  0  0  0  0  0
   12.4989    6.2074   20.1776 C   0  0  0  0  0  0  0  0  0  0  0  0
    6.9192    9.1053   20.9073 O   0  0  0  0  0  0  0  0  0  0  0  0
   14.3979    6.0729   18.7784 C   0  0  0  0  0  0  0  0  0  0  0  0
    8.6811    9.5354   16.9998 C   0  0  0  0  0  0  0  0  0  0  0  0
    9.2512    4.2713   13.7653 O   0  0  0  0  0  0  0  0  0  0  0  0
    9.6495    8.6317   16.8332 N   0  0  0  0  0  0  0  0  0  0  0  0
    6.2934    8.6988   23.1988 O   0  0  0  0  0  0  0  0  0  0  0  0
    7.9806    8.6543   20.5437 C   0  0  0  0  0  0  0  0  0  0  0  0
   13.7270    5.7144   19.8610 O   0  0  0  0  0  0  0  0  0  0  0  0
    8.3351    5.5235   15.4478 C   0  0  0  0  0  0  0  0  0  0  0  0
    8.7700    7.8434   21.3915 C   0  0  0  0  0  0  0  0  0  0  0  0
   11.7856    6.8851   19.2401 C   0  0  0  0  0  0  0  0  0  0  0  0
   10.5281    7.4276   19.5649 C   0  0  0  0  0  0  0  0  0  0  0  0
   10.0256    7.2907   20.8484 C   0  0  0  0  0  0  0  0  0  0  0  0
    9.3113    5.3049   14.4911 C   0  0  0  0  0  0  0  0  0  0  0  0
    9.4607    7.5646   16.0139 C   0  0  0  0  0  0  0  0  0  0  0  0
   10.4192    7.3157   15.0955 C   0  0  0  0  0  0  0  0  0  0  0  0
   10.2489    6.4227   23.0218 N   0  0  0  0  0  0  0  0  0  0  0  0
    7.2472    8.0746   23.5050 C   0  0  0  0  0  0  0  0  0  0  0  0
    9.2051    6.9101   23.4604 C   0  0  0  0  0  0  0  0  0  0  0  0
   11.9646    6.0299   21.4251 C   0  0  0  0  0  0  0  0  0  0  0  0
  1  5  1  0
  1 13  1  0
  2 20  2  0
  2 28  1  0
  2 29  1  0
  3 19  4  0
  3 25  4  0
  4 23  4  0
  4 27  1  0
  4 30  4  0
  5 17  1  0
  6  8  1  0
  6 29  1  0
  7 24  4  0
  7 26  4  0
  8 28  1  0
  9 13  2  0
 10 18  1  0
 10 21  4  0
 10 30  4  0
 11 17  2  0
 12 18  1  0
 13 15  1  0
 14 24  1  0
 15 25  1  0
 16 28  2  0
 17 20  1  0
 19 24  4  0
 20 23  1  0
 21 22  4  0
 22 23  4  0
 25 26  4  0
 27 29  2  0
M  END
$$$$

 Created by Python create_sdf_string function

 30 33  0  0  0  0  0  0  0  0999 V2000
    8.3036    9.8571   18.4133 C   0  0  0  0  0  0  0  0  0  0  0  0
    8.3694    7.6612   22.6703 C   0  0  0  0  0  0  0  0  0  0  0  0
    8.4143    6.6863   16.2273 C   0  0  0  0  0  0  0  0  0  0  0  0
   10.7581    6.5674   21.7636 C   0  0  0  0  0  0  0  0  0  0  0  0
    8.4452    8.7960   19.2958 O   0  0  0  0  0  0  0  0  0  0  0  0
    8.7122    6.7842   24.8569 C   0  0  0  0  0  0  0  0  0  0  0  0
   10.3400    6.1726   14.3081 C   0  0  0  0  0  0  0  0  0  0  0  0
    7.4297    7.5873   24.8962 C   0  0  0  0  0  0  0  0  0  0  0  0
    8.1566   10.0536   16.0516 O   0  0  0  0  0  0  0  0  0  0  0  0
   12.4989    6.2074   20.1776 C   0  0  0  0  0  0  0  0  0  0  0  0
    6.9192    9.1053   20.9073 O   0  0  0  0  0  0  0  0  0  0  0  0
   14.3979    6.0729   18.7784 C   0  0  0  0  0  0  0  0  0  0  0  0
    8.6811    9.5354   16.9998 C   0  0  0  0  0  0  0  0  0  0  0  0
    9.2512    4.2713   13.7653 O   0  0  0  0  0  0  0  0  0  0  0  0
    9.6495    8.6317   16.8332 N   0  0  0  0  0  0  0  0  0  0  0  0
    6.2934    8.6988   23.1988 O   0  0  0  0  0  0  0  0  0  0  0  0
    7.9806    8.6543   20.5437 C   0  0  0  0  0  0  0  0  0  0  0  0
   13.7270    5.7144   19.8610 O   0  0  0  0  0  0  0  0  0  0  0  0
    8.3351    5.5235   15.4478 C   0  0  0  0  0  0  0  0  0  0  0  0
    8.7700    7.8434   21.3915 C   0  0  0  0  0  0  0  0  0  0  0  0
   11.7856    6.8851   19.2401 C   0  0  0  0  0  0  0  0  0  0  0  0
   10.5281    7.4276   19.5649 C   0  0  0  0  0  0  0  0  0  0  0  0
   10.0256    7.2907   20.8484 C   0  0  0  0  0  0  0  0  0  0  0  0
    9.3113    5.3049   14.4911 C   0  0  0  0  0  0  0  0  0  0  0  0
    9.4607    7.5646   16.0139 C   0  0  0  0  0  0  0  0  0  0  0  0
   10.4192    7.3157   15.0955 C   0  0  0  0  0  0  0  0  0  0  0  0
   10.2489    6.4227   23.0218 N   0  0  0  0  0  0  0  0  0  0  0  0
    7.2472    8.0746   23.5050 C   0  0  0  0  0  0  0  0  0  0  0  0
    9.2051    6.9101   23.4604 C   0  0  0  0  0  0  0  0  0  0  0  0
   11.9646    6.0299   21.4251 C   0  0  0  0  0  0  0  0  0  0  0  0
  1  5  1  0
  1 13  1  0
  2 20  2  0
  2 28  1  0
  2 29  1  0
  3 19  4  0
  3 25  4  0
  4 23  4  0
  4 27  1  0
  4 30  4  0
  5 17  1  0
  6  8  1  0
  6 29  1  0
  7 24  4  0
  7 26  4  0
  8 28  1  0
  9 13  2  0
 10 18  1  0
 10 21  4  0
 10 30  4  0
 11 17  2  0
 12 18  1  0
 13 15  1  0
 14 24  1  0
 15 25  1  0
 16 28  2  0
 17 20  1  0
 19 24  4  0
 20 23  1  0
 21 22  4  0
 22 23  4  0
 25 26  4  0
 27 29  2  0
M  END
$$$$

 Created by Python create_sdf_string function

 30 33  0  0  0  0  0  0  0  0999 V2000
    8.3036    9.8571   18.4133 C   0  0  0  0  0  0  0  0  0  0  0  0
    8.3694    7.6612   22.6703 C   0  0  0  0  0  0  0  0  0  0  0  0
    8.4143    6.6863   16.2273 C   0  0  0  0  0  0  0  0  0  0  0  0
   10.7581    6.5674   21.7636 C   0  0  0  0  0  0  0  0  0  0  0  0
    8.4452    8.7960   19.2958 O   0  0  0  0  0  0  0  0  0  0  0  0
    8.7122    6.7842   24.8569 C   0  0  0  0  0  0  0  0  0  0  0  0
   10.3400    6.1726   14.3081 C   0  0  0  0  0  0  0  0  0  0  0  0
    7.4297    7.5873   24.8962 C   0  0  0  0  0  0  0  0  0  0  0  0
    8.1566   10.0536   16.0516 O   0  0  0  0  0  0  0  0  0  0  0  0
   12.4989    6.2074   20.1776 C   0  0  0  0  0  0  0  0  0  0  0  0
    6.9192    9.1053   20.9073 O   0  0  0  0  0  0  0  0  0  0  0  0
   14.3979    6.0729   18.7784 C   0  0  0  0  0  0  0  0  0  0  0  0
    8.6811    9.5354   16.9998 C   0  0  0  0  0  0  0  0  0  0  0  0
    9.2512    4.2713   13.7653 O   0  0  0  0  0  0  0  0  0  0  0  0
    9.6495    8.6317   16.8332 N   0  0  0  0  0  0  0  0  0  0  0  0
    6.2934    8.6988   23.1988 O   0  0  0  0  0  0  0  0  0  0  0  0
    7.9806    8.6543   20.5437 C   0  0  0  0  0  0  0  0  0  0  0  0
   13.7270    5.7144   19.8610 O   0  0  0  0  0  0  0  0  0  0  0  0
    8.3351    5.5235   15.4478 C   0  0  0  0  0  0  0  0  0  0  0  0
    8.7700    7.8434   21.3915 C   0  0  0  0  0  0  0  0  0  0  0  0
   11.7856    6.8851   19.2401 C   0  0  0  0  0  0  0  0  0  0  0  0
   10.5281    7.4276   19.5649 C   0  0  0  0  0  0  0  0  0  0  0  0
   10.0256    7.2907   20.8484 C   0  0  0  0  0  0  0  0  0  0  0  0
    9.3113    5.3049   14.4911 C   0  0  0  0  0  0  0  0  0  0  0  0
    9.4607    7.5646   16.0139 C   0  0  0  0  0  0  0  0  0  0  0  0
   10.4192    7.3157   15.0955 C   0  0  0  0  0  0  0  0  0  0  0  0
   10.2489    6.4227   23.0218 N   0  0  0  0  0  0  0  0  0  0  0  0
    7.2472    8.0746   23.5050 C   0  0  0  0  0  0  0  0  0  0  0  0
    9.2051    6.9101   23.4604 C   0  0  0  0  0  0  0  0  0  0  0  0
   11.9646    6.0299   21.4251 C   0  0  0  0  0  0  0  0  0  0  0  0
  1  5  1  0
  1 13  1  0
  2 20  2  0
  2 28  1  0
  2 29  1  0
  3 19  4  0
  3 25  4  0
  4 23  4  0
  4 27  1  0
  4 30  4  0
  5 17  1  0
  6  8  1  0
  6 29  1  0
  7 24  4  0
  7 26  4  0
  8 28  1  0
  9 13  2  0
 10 18  1  0
 10 21  4  0
 10 30  4  0
 11 17  2  0
 12 18  1  0
 13 15  1  0
 14 24  1  0
 15 25  1  0
 16 28  2  0
 17 20  1  0
 19 24  4  0
 20 23  1  0
 21 22  4  0
 22 23  4  0
 25 26  4  0
 27 29  2  0
M  END
$$$$

 Created by Python create_sdf_string function

 30 33  0  0  0  0  0  0  0  0999 V2000
    8.3036    9.8571   18.4133 C   0  0  0  0  0  0  0  0  0  0  0  0
    8.3694    7.6612   22.6703 C   0  0  0  0  0  0  0  0  0  0  0  0
    8.4143    6.6863   16.2273 C   0  0  0  0  0  0  0  0  0  0  0  0
   10.7581    6.5674   21.7636 C   0  0  0  0  0  0  0  0  0  0  0  0
    8.4452    8.7960   19.2958 O   0  0  0  0  0  0  0  0  0  0  0  0
    8.7122    6.7842   24.8569 C   0  0  0  0  0  0  0  0  0  0  0  0
   10.3400    6.1726   14.3081 C   0  0  0  0  0  0  0  0  0  0  0  0
    7.4297    7.5873   24.8962 C   0  0  0  0  0  0  0  0  0  0  0  0
    8.1566   10.0536   16.0516 O   0  0  0  0  0  0  0  0  0  0  0  0
   12.4989    6.2074   20.1776 C   0  0  0  0  0  0  0  0  0  0  0  0
    6.9192    9.1053   20.9073 O   0  0  0  0  0  0  0  0  0  0  0  0
   14.3979    6.0729   18.7784 C   0  0  0  0  0  0  0  0  0  0  0  0
    8.6811    9.5354   16.9998 C   0  0  0  0  0  0  0  0  0  0  0  0
    9.2512    4.2713   13.7653 O   0  0  0  0  0  0  0  0  0  0  0  0
    9.6495    8.6317   16.8332 N   0  0  0  0  0  0  0  0  0  0  0  0
    6.2934    8.6988   23.1988 O   0  0  0  0  0  0  0  0  0  0  0  0
    7.9806    8.6543   20.5437 C   0  0  0  0  0  0  0  0  0  0  0  0
   13.7270    5.7144   19.8610 O   0  0  0  0  0  0  0  0  0  0  0  0
    8.3351    5.5235   15.4478 C   0  0  0  0  0  0  0  0  0  0  0  0
    8.7700    7.8434   21.3915 C   0  0  0  0  0  0  0  0  0  0  0  0
   11.7856    6.8851   19.2401 C   0  0  0  0  0  0  0  0  0  0  0  0
   10.5281    7.4276   19.5649 C   0  0  0  0  0  0  0  0  0  0  0  0
   10.0256    7.2907   20.8484 C   0  0  0  0  0  0  0  0  0  0  0  0
    9.3113    5.3049   14.4911 C   0  0  0  0  0  0  0  0  0  0  0  0
    9.4607    7.5646   16.0139 C   0  0  0  0  0  0  0  0  0  0  0  0
   10.4192    7.3157   15.0955 C   0  0  0  0  0  0  0  0  0  0  0  0
   10.2489    6.4227   23.0218 N   0  0  0  0  0  0  0  0  0  0  0  0
    7.2472    8.0746   23.5050 C   0  0  0  0  0  0  0  0  0  0  0  0
    9.2051    6.9101   23.4604 C   0  0  0  0  0  0  0  0  0  0  0  0
   11.9646    6.0299   21.4251 C   0  0  0  0  0  0  0  0  0  0  0  0
  1  5  1  0
  1 13  1  0
  2 20  2  0
  2 28  1  0
  2 29  1  0
  3 19  4  0
  3 25  4  0
  4 23  4  0
  4 27  1  0
  4 30  4  0
  5 17  1  0
  6  8  1  0
  6 29  1  0
  7 24  4  0
  7 26  4  0
  8 28  1  0
  9 13  2  0
 10 18  1  0
 10 21  4  0
 10 30  4  0
 11 17  2  0
 12 18  1  0
 13 15  1  0
 14 24  1  0
 15 25  1  0
 16 28  2  0
 17 20  1  0
 19 24  4  0
 20 23  1  0
 21 22  4  0
 22 23  4  0
 25 26  4  0
 27 29  2  0
M  END
$$$$

 Created by Python create_sdf_string function

 30 33  0  0  0  0  0  0  0  0999 V2000
    8.3036    9.8571   18.4133 C   0  0  0  0  0  0  0  0  0  0  0  0
    8.3694    7.6612   22.6703 C   0  0  0  0  0  0  0  0  0  0  0  0
    8.4143    6.6863   16.2273 C   0  0  0  0  0  0  0  0  0  0  0  0
   10.7581    6.5674   21.7636 C   0  0  0  0  0  0  0  0  0  0  0  0
    8.4452    8.7960   19.2958 O   0  0  0  0  0  0  0  0  0  0  0  0
    8.7122    6.7842   24.8569 C   0  0  0  0  0  0  0  0  0  0  0  0
   10.3400    6.1726   14.3081 C   0  0  0  0  0  0  0  0  0  0  0  0
    7.4297    7.5873   24.8962 C   0  0  0  0  0  0  0  0  0  0  0  0
    8.1566   10.0536   16.0516 O   0  0  0  0  0  0  0  0  0  0  0  0
   12.4989    6.2074   20.1776 C   0  0  0  0  0  0  0  0  0  0  0  0
    6.9192    9.1053   20.9073 O   0  0  0  0  0  0  0  0  0  0  0  0
   14.3979    6.0729   18.7784 C   0  0  0  0  0  0  0  0  0  0  0  0
    8.6811    9.5354   16.9998 C   0  0  0  0  0  0  0  0  0  0  0  0
    9.2512    4.2713   13.7653 O   0  0  0  0  0  0  0  0  0  0  0  0
    9.6495    8.6317   16.8332 N   0  0  0  0  0  0  0  0  0  0  0  0
    6.2934    8.6988   23.1988 O   0  0  0  0  0  0  0  0  0  0  0  0
    7.9806    8.6543   20.5437 C   0  0  0  0  0  0  0  0  0  0  0  0
   13.7270    5.7144   19.8610 O   0  0  0  0  0  0  0  0  0  0  0  0
    8.3351    5.5235   15.4478 C   0  0  0  0  0  0  0  0  0  0  0  0
    8.7700    7.8434   21.3915 C   0  0  0  0  0  0  0  0  0  0  0  0
   11.7856    6.8851   19.2401 C   0  0  0  0  0  0  0  0  0  0  0  0
   10.5281    7.4276   19.5649 C   0  0  0  0  0  0  0  0  0  0  0  0
   10.0256    7.2907   20.8484 C   0  0  0  0  0  0  0  0  0  0  0  0
    9.3113    5.3049   14.4911 C   0  0  0  0  0  0  0  0  0  0  0  0
    9.4607    7.5646   16.0139 C   0  0  0  0  0  0  0  0  0  0  0  0
   10.4192    7.3157   15.0955 C   0  0  0  0  0  0  0  0  0  0  0  0
   10.2489    6.4227   23.0218 N   0  0  0  0  0  0  0  0  0  0  0  0
    7.2472    8.0746   23.5050 C   0  0  0  0  0  0  0  0  0  0  0  0
    9.2051    6.9101   23.4604 C   0  0  0  0  0  0  0  0  0  0  0  0
   11.9646    6.0299   21.4251 C   0  0  0  0  0  0  0  0  0  0  0  0
  1  5  1  0
  1 13  1  0
  2 20  2  0
  2 28  1  0
  2 29  1  0
  3 19  4  0
  3 25  4  0
  4 23  4  0
  4 27  1  0
  4 30  4  0
  5 17  1  0
  6  8  1  0
  6 29  1  0
  7 24  4  0
  7 26  4  0
  8 28  1  0
  9 13  2  0
 10 18  1  0
 10 21  4  0
 10 30  4  0
 11 17  2  0
 12 18  1  0
 13 15  1  0
 14 24  1  0
 15 25  1  0
 16 28  2  0
 17 20  1  0
 19 24  4  0
 20 23  1  0
 21 22  4  0
 22 23  4  0
 25 26  4  0
 27 29  2  0
M  END
$$$$

 Created by Python create_sdf_string function

 30 33  0  0  0  0  0  0  0  0999 V2000
    8.3036    9.8571   18.4133 C   0  0  0  0  0  0  0  0  0  0  0  0
    8.3694    7.6612   22.6703 C   0  0  0  0  0  0  0  0  0  0  0  0
    8.4143    6.6863   16.2273 C   0  0  0  0  0  0  0  0  0  0  0  0
   10.7581    6.5674   21.7636 C   0  0  0  0  0  0  0  0  0  0  0  0
    8.4452    8.7960   19.2958 O   0  0  0  0  0  0  0  0  0  0  0  0
    8.7122    6.7842   24.8569 C   0  0  0  0  0  0  0  0  0  0  0  0
   10.3400    6.1726   14.3081 C   0  0  0  0  0  0  0  0  0  0  0  0
    7.4297    7.5873   24.8962 C   0  0  0  0  0  0  0  0  0  0  0  0
    8.1566   10.0536   16.0516 O   0  0  0  0  0  0  0  0  0  0  0  0
   12.4989    6.2074   20.1776 C   0  0  0  0  0  0  0  0  0  0  0  0
    6.9192    9.1053   20.9073 O   0  0  0  0  0  0  0  0  0  0  0  0
   14.3979    6.0729   18.7784 C   0  0  0  0  0  0  0  0  0  0  0  0
    8.6811    9.5354   16.9998 C   0  0  0  0  0  0  0  0  0  0  0  0
    9.2512    4.2713   13.7653 O   0  0  0  0  0  0  0  0  0  0  0  0
    9.6495    8.6317   16.8332 N   0  0  0  0  0  0  0  0  0  0  0  0
    6.2934    8.6988   23.1988 O   0  0  0  0  0  0  0  0  0  0  0  0
    7.9806    8.6543   20.5437 C   0  0  0  0  0  0  0  0  0  0  0  0
   13.7270    5.7144   19.8610 O   0  0  0  0  0  0  0  0  0  0  0  0
    8.3351    5.5235   15.4478 C   0  0  0  0  0  0  0  0  0  0  0  0
    8.7700    7.8434   21.3915 C   0  0  0  0  0  0  0  0  0  0  0  0
   11.7856    6.8851   19.2401 C   0  0  0  0  0  0  0  0  0  0  0  0
   10.5281    7.4276   19.5649 C   0  0  0  0  0  0  0  0  0  0  0  0
   10.0256    7.2907   20.8484 C   0  0  0  0  0  0  0  0  0  0  0  0
    9.3113    5.3049   14.4911 C   0  0  0  0  0  0  0  0  0  0  0  0
    9.4607    7.5646   16.0139 C   0  0  0  0  0  0  0  0  0  0  0  0
   10.4192    7.3157   15.0955 C   0  0  0  0  0  0  0  0  0  0  0  0
   10.2489    6.4227   23.0218 N   0  0  0  0  0  0  0  0  0  0  0  0
    7.2472    8.0746   23.5050 C   0  0  0  0  0  0  0  0  0  0  0  0
    9.2051    6.9101   23.4604 C   0  0  0  0  0  0  0  0  0  0  0  0
   11.9646    6.0299   21.4251 C   0  0  0  0  0  0  0  0  0  0  0  0
  1  5  1  0
  1 13  1  0
  2 20  2  0
  2 28  1  0
  2 29  1  0
  3 19  4  0
  3 25  4  0
  4 23  4  0
  4 27  1  0
  4 30  4  0
  5 17  1  0
  6  8  1  0
  6 29  1  0
  7 24  4  0
  7 26  4  0
  8 28  1  0
  9 13  2  0
 10 18  1  0
 10 21  4  0
 10 30  4  0
 11 17  2  0
 12 18  1  0
 13 15  1  0
 14 24  1  0
 15 25  1  0
 16 28  2  0
 17 20  1  0
 19 24  4  0
 20 23  1  0
 21 22  4  0
 22 23  4  0
 25 26  4  0
 27 29  2  0
M  END
$$$$

 Created by Python create_sdf_string function

 30 33  0  0  0  0  0  0  0  0999 V2000
    8.3036    9.8571   18.4133 C   0  0  0  0  0  0  0  0  0  0  0  0
    8.3694    7.6612   22.6703 C   0  0  0  0  0  0  0  0  0  0  0  0
    8.4143    6.6863   16.2273 C   0  0  0  0  0  0  0  0  0  0  0  0
   10.7581    6.5674   21.7636 C   0  0  0  0  0  0  0  0  0  0  0  0
    8.4452    8.7960   19.2958 O   0  0  0  0  0  0  0  0  0  0  0  0
    8.7122    6.7842   24.8569 C   0  0  0  0  0  0  0  0  0  0  0  0
   10.3400    6.1726   14.3081 C   0  0  0  0  0  0  0  0  0  0  0  0
    7.4297    7.5873   24.8962 C   0  0  0  0  0  0  0  0  0  0  0  0
    8.1566   10.0536   16.0516 O   0  0  0  0  0  0  0  0  0  0  0  0
   12.4989    6.2074   20.1776 C   0  0  0  0  0  0  0  0  0  0  0  0
    6.9192    9.1053   20.9073 O   0  0  0  0  0  0  0  0  0  0  0  0
   14.3979    6.0729   18.7784 C   0  0  0  0  0  0  0  0  0  0  0  0
    8.6811    9.5354   16.9998 C   0  0  0  0  0  0  0  0  0  0  0  0
    9.2512    4.2713   13.7653 O   0  0  0  0  0  0  0  0  0  0  0  0
    9.6495    8.6317   16.8332 N   0  0  0  0  0  0  0  0  0  0  0  0
    6.2934    8.6988   23.1988 O   0  0  0  0  0  0  0  0  0  0  0  0
    7.9806    8.6543   20.5437 C   0  0  0  0  0  0  0  0  0  0  0  0
   13.7270    5.7144   19.8610 O   0  0  0  0  0  0  0  0  0  0  0  0
    8.3351    5.5235   15.4478 C   0  0  0  0  0  0  0  0  0  0  0  0
    8.7700    7.8434   21.3915 C   0  0  0  0  0  0  0  0  0  0  0  0
   11.7856    6.8851   19.2401 C   0  0  0  0  0  0  0  0  0  0  0  0
   10.5281    7.4276   19.5649 C   0  0  0  0  0  0  0  0  0  0  0  0
   10.0256    7.2907   20.8484 C   0  0  0  0  0  0  0  0  0  0  0  0
    9.3113    5.3049   14.4911 C   0  0  0  0  0  0  0  0  0  0  0  0
    9.4607    7.5646   16.0139 C   0  0  0  0  0  0  0  0  0  0  0  0
   10.4192    7.3157   15.0955 C   0  0  0  0  0  0  0  0  0  0  0  0
   10.2489    6.4227   23.0218 N   0  0  0  0  0  0  0  0  0  0  0  0
    7.2472    8.0746   23.5050 C   0  0  0  0  0  0  0  0  0  0  0  0
    9.2051    6.9101   23.4604 C   0  0  0  0  0  0  0  0  0  0  0  0
   11.9646    6.0299   21.4251 C   0  0  0  0  0  0  0  0  0  0  0  0
  1  5  1  0
  1 13  1  0
  2 20  2  0
  2 28  1  0
  2 29  1  0
  3 19  4  0
  3 25  4  0
  4 23  4  0
  4 27  1  0
  4 30  4  0
  5 17  1  0
  6  8  1  0
  6 29  1  0
  7 24  4  0
  7 26  4  0
  8 28  1  0
  9 13  2  0
 10 18  1  0
 10 21  4  0
 10 30  4  0
 11 17  2  0
 12 18  1  0
 13 15  1  0
 14 24  1  0
 15 25  1  0
 16 28  2  0
 17 20  1  0
 19 24  4  0
 20 23  1  0
 21 22  4  0
 22 23  4  0
 25 26  4  0
 27 29  2  0
M  END
$$$$

 Created by Python create_sdf_string function

 30 33  0  0  0  0  0  0  0  0999 V2000
    8.3036    9.8571   18.4133 C   0  0  0  0  0  0  0  0  0  0  0  0
    8.3694    7.6612   22.6703 C   0  0  0  0  0  0  0  0  0  0  0  0
    8.4143    6.6863   16.2273 C   0  0  0  0  0  0  0  0  0  0  0  0
   10.7581    6.5674   21.7636 C   0  0  0  0  0  0  0  0  0  0  0  0
    8.4452    8.7960   19.2958 O   0  0  0  0  0  0  0  0  0  0  0  0
    8.7122    6.7842   24.8569 C   0  0  0  0  0  0  0  0  0  0  0  0
   10.3400    6.1726   14.3081 C   0  0  0  0  0  0  0  0  0  0  0  0
    7.4297    7.5873   24.8962 C   0  0  0  0  0  0  0  0  0  0  0  0
    8.1566   10.0536   16.0516 O   0  0  0  0  0  0  0  0  0  0  0  0
   12.4989    6.2074   20.1776 C   0  0  0  0  0  0  0  0  0  0  0  0
    6.9192    9.1053   20.9073 O   0  0  0  0  0  0  0  0  0  0  0  0
   14.3979    6.0729   18.7784 C   0  0  0  0  0  0  0  0  0  0  0  0
    8.6811    9.5354   16.9998 C   0  0  0  0  0  0  0  0  0  0  0  0
    9.2512    4.2713   13.7653 O   0  0  0  0  0  0  0  0  0  0  0  0
    9.6495    8.6317   16.8332 N   0  0  0  0  0  0  0  0  0  0  0  0
    6.2934    8.6988   23.1988 O   0  0  0  0  0  0  0  0  0  0  0  0
    7.9806    8.6543   20.5437 C   0  0  0  0  0  0  0  0  0  0  0  0
   13.7270    5.7144   19.8610 O   0  0  0  0  0  0  0  0  0  0  0  0
    8.3351    5.5235   15.4478 C   0  0  0  0  0  0  0  0  0  0  0  0
    8.7700    7.8434   21.3915 C   0  0  0  0  0  0  0  0  0  0  0  0
   11.7856    6.8851   19.2401 C   0  0  0  0  0  0  0  0  0  0  0  0
   10.5281    7.4276   19.5649 C   0  0  0  0  0  0  0  0  0  0  0  0
   10.0256    7.2907   20.8484 C   0  0  0  0  0  0  0  0  0  0  0  0
    9.3113    5.3049   14.4911 C   0  0  0  0  0  0  0  0  0  0  0  0
    9.4607    7.5646   16.0139 C   0  0  0  0  0  0  0  0  0  0  0  0
   10.4192    7.3157   15.0955 C   0  0  0  0  0  0  0  0  0  0  0  0
   10.2489    6.4227   23.0218 N   0  0  0  0  0  0  0  0  0  0  0  0
    7.2472    8.0746   23.5050 C   0  0  0  0  0  0  0  0  0  0  0  0
    9.2051    6.9101   23.4604 C   0  0  0  0  0  0  0  0  0  0  0  0
   11.9646    6.0299   21.4251 C   0  0  0  0  0  0  0  0  0  0  0  0
  1  5  1  0
  1 13  1  0
  2 20  2  0
  2 28  1  0
  2 29  1  0
  3 19  4  0
  3 25  4  0
  4 23  4  0
  4 27  1  0
  4 30  4  0
  5 17  1  0
  6  8  1  0
  6 29  1  0
  7 24  4  0
  7 26  4  0
  8 28  1  0
  9 13  2  0
 10 18  1  0
 10 21  4  0
 10 30  4  0
 11 17  2  0
 12 18  1  0
 13 15  1  0
 14 24  1  0
 15 25  1  0
 16 28  2  0
 17 20  1  0
 19 24  4  0
 20 23  1  0
 21 22  4  0
 22 23  4  0
 25 26  4  0
 27 29  2  0
M  END
$$$$

 Created by Python create_sdf_string function

 30 33  0  0  0  0  0  0  0  0999 V2000
    8.3036    9.8571   18.4133 C   0  0  0  0  0  0  0  0  0  0  0  0
    8.3694    7.6612   22.6703 C   0  0  0  0  0  0  0  0  0  0  0  0
    8.4143    6.6863   16.2273 C   0  0  0  0  0  0  0  0  0  0  0  0
   10.7581    6.5674   21.7636 C   0  0  0  0  0  0  0  0  0  0  0  0
    8.4452    8.7960   19.2958 O   0  0  0  0  0  0  0  0  0  0  0  0
    8.7122    6.7842   24.8569 C   0  0  0  0  0  0  0  0  0  0  0  0
   10.3400    6.1726   14.3081 C   0  0  0  0  0  0  0  0  0  0  0  0
    7.4297    7.5873   24.8962 C   0  0  0  0  0  0  0  0  0  0  0  0
    8.1566   10.0536   16.0516 O   0  0  0  0  0  0  0  0  0  0  0  0
   12.4989    6.2074   20.1776 C   0  0  0  0  0  0  0  0  0  0  0  0
    6.9192    9.1053   20.9073 O   0  0  0  0  0  0  0  0  0  0  0  0
   14.3979    6.0729   18.7784 C   0  0  0  0  0  0  0  0  0  0  0  0
    8.6811    9.5354   16.9998 C   0  0  0  0  0  0  0  0  0  0  0  0
    9.2512    4.2713   13.7653 O   0  0  0  0  0  0  0  0  0  0  0  0
    9.6495    8.6317   16.8332 N   0  0  0  0  0  0  0  0  0  0  0  0
    6.2934    8.6988   23.1988 O   0  0  0  0  0  0  0  0  0  0  0  0
    7.9806    8.6543   20.5437 C   0  0  0  0  0  0  0  0  0  0  0  0
   13.7270    5.7144   19.8610 O   0  0  0  0  0  0  0  0  0  0  0  0
    8.3351    5.5235   15.4478 C   0  0  0  0  0  0  0  0  0  0  0  0
    8.7700    7.8434   21.3915 C   0  0  0  0  0  0  0  0  0  0  0  0
   11.7856    6.8851   19.2401 C   0  0  0  0  0  0  0  0  0  0  0  0
   10.5281    7.4276   19.5649 C   0  0  0  0  0  0  0  0  0  0  0  0
   10.0256    7.2907   20.8484 C   0  0  0  0  0  0  0  0  0  0  0  0
    9.3113    5.3049   14.4911 C   0  0  0  0  0  0  0  0  0  0  0  0
    9.4607    7.5646   16.0139 C   0  0  0  0  0  0  0  0  0  0  0  0
   10.4192    7.3157   15.0955 C   0  0  0  0  0  0  0  0  0  0  0  0
   10.2489    6.4227   23.0218 N   0  0  0  0  0  0  0  0  0  0  0  0
    7.2472    8.0746   23.5050 C   0  0  0  0  0  0  0  0  0  0  0  0
    9.2051    6.9101   23.4604 C   0  0  0  0  0  0  0  0  0  0  0  0
   11.9646    6.0299   21.4251 C   0  0  0  0  0  0  0  0  0  0  0  0
  1  5  1  0
  1 13  1  0
  2 20  2  0
  2 28  1  0
  2 29  1  0
  3 19  4  0
  3 25  4  0
  4 23  4  0
  4 27  1  0
  4 30  4  0
  5 17  1  0
  6  8  1  0
  6 29  1  0
  7 24  4  0
  7 26  4  0
  8 28  1  0
  9 13  2  0
 10 18  1  0
 10 21  4  0
 10 30  4  0
 11 17  2  0
 12 18  1  0
 13 15  1  0
 14 24  1  0
 15 25  1  0
 16 28  2  0
 17 20  1  0
 19 24  4  0
 20 23  1  0
 21 22  4  0
 22 23  4  0
 25 26  4  0
 27 29  2  0
M  END
$$$$

 Created by Python create_sdf_string function

 30 33  0  0  0  0  0  0  0  0999 V2000
    8.3036    9.8571   18.4133 C   0  0  0  0  0  0  0  0  0  0  0  0
    8.3694    7.6612   22.6703 C   0  0  0  0  0  0  0  0  0  0  0  0
    8.4143    6.6863   16.2273 C   0  0  0  0  0  0  0  0  0  0  0  0
   10.7581    6.5674   21.7636 C   0  0  0  0  0  0  0  0  0  0  0  0
    8.4452    8.7960   19.2958 O   0  0  0  0  0  0  0  0  0  0  0  0
    8.7122    6.7842   24.8569 C   0  0  0  0  0  0  0  0  0  0  0  0
   10.3400    6.1726   14.3081 C   0  0  0  0  0  0  0  0  0  0  0  0
    7.4297    7.5873   24.8962 C   0  0  0  0  0  0  0  0  0  0  0  0
    8.1566   10.0536   16.0516 O   0  0  0  0  0  0  0  0  0  0  0  0
   12.4989    6.2074   20.1776 C   0  0  0  0  0  0  0  0  0  0  0  0
    6.9192    9.1053   20.9073 O   0  0  0  0  0  0  0  0  0  0  0  0
   14.3979    6.0729   18.7784 C   0  0  0  0  0  0  0  0  0  0  0  0
    8.6811    9.5354   16.9998 C   0  0  0  0  0  0  0  0  0  0  0  0
    9.2512    4.2713   13.7653 O   0  0  0  0  0  0  0  0  0  0  0  0
    9.6495    8.6317   16.8332 N   0  0  0  0  0  0  0  0  0  0  0  0
    6.2934    8.6988   23.1988 O   0  0  0  0  0  0  0  0  0  0  0  0
    7.9806    8.6543   20.5437 C   0  0  0  0  0  0  0  0  0  0  0  0
   13.7270    5.7144   19.8610 O   0  0  0  0  0  0  0  0  0  0  0  0
    8.3351    5.5235   15.4478 C   0  0  0  0  0  0  0  0  0  0  0  0
    8.7700    7.8434   21.3915 C   0  0  0  0  0  0  0  0  0  0  0  0
   11.7856    6.8851   19.2401 C   0  0  0  0  0  0  0  0  0  0  0  0
   10.5281    7.4276   19.5649 C   0  0  0  0  0  0  0  0  0  0  0  0
   10.0256    7.2907   20.8484 C   0  0  0  0  0  0  0  0  0  0  0  0
    9.3113    5.3049   14.4911 C   0  0  0  0  0  0  0  0  0  0  0  0
    9.4607    7.5646   16.0139 C   0  0  0  0  0  0  0  0  0  0  0  0
   10.4192    7.3157   15.0955 C   0  0  0  0  0  0  0  0  0  0  0  0
   10.2489    6.4227   23.0218 N   0  0  0  0  0  0  0  0  0  0  0  0
    7.2472    8.0746   23.5050 C   0  0  0  0  0  0  0  0  0  0  0  0
    9.2051    6.9101   23.4604 C   0  0  0  0  0  0  0  0  0  0  0  0
   11.9646    6.0299   21.4251 C   0  0  0  0  0  0  0  0  0  0  0  0
  1  5  1  0
  1 13  1  0
  2 20  2  0
  2 28  1  0
  2 29  1  0
  3 19  4  0
  3 25  4  0
  4 23  4  0
  4 27  1  0
  4 30  4  0
  5 17  1  0
  6  8  1  0
  6 29  1  0
  7 24  4  0
  7 26  4  0
  8 28  1  0
  9 13  2  0
 10 18  1  0
 10 21  4  0
 10 30  4  0
 11 17  2  0
 12 18  1  0
 13 15  1  0
 14 24  1  0
 15 25  1  0
 16 28  2  0
 17 20  1  0
 19 24  4  0
 20 23  1  0
 21 22  4  0
 22 23  4  0
 25 26  4  0
 27 29  2  0
M  END
$$$$

 Created by Python create_sdf_string function

 30 33  0  0  0  0  0  0  0  0999 V2000
    8.3036    9.8571   18.4133 C   0  0  0  0  0  0  0  0  0  0  0  0
    8.3694    7.6612   22.6703 C   0  0  0  0  0  0  0  0  0  0  0  0
    8.4143    6.6863   16.2273 C   0  0  0  0  0  0  0  0  0  0  0  0
   10.7581    6.5674   21.7636 C   0  0  0  0  0  0  0  0  0  0  0  0
    8.4452    8.7960   19.2958 O   0  0  0  0  0  0  0  0  0  0  0  0
    8.7122    6.7842   24.8569 C   0  0  0  0  0  0  0  0  0  0  0  0
   10.3400    6.1726   14.3081 C   0  0  0  0  0  0  0  0  0  0  0  0
    7.4297    7.5873   24.8962 C   0  0  0  0  0  0  0  0  0  0  0  0
    8.1566   10.0536   16.0516 O   0  0  0  0  0  0  0  0  0  0  0  0
   12.4989    6.2074   20.1776 C   0  0  0  0  0  0  0  0  0  0  0  0
    6.9192    9.1053   20.9073 O   0  0  0  0  0  0  0  0  0  0  0  0
   14.3979    6.0729   18.7784 C   0  0  0  0  0  0  0  0  0  0  0  0
    8.6811    9.5354   16.9998 C   0  0  0  0  0  0  0  0  0  0  0  0
    9.2512    4.2713   13.7653 O   0  0  0  0  0  0  0  0  0  0  0  0
    9.6495    8.6317   16.8332 N   0  0  0  0  0  0  0  0  0  0  0  0
    6.2934    8.6988   23.1988 O   0  0  0  0  0  0  0  0  0  0  0  0
    7.9806    8.6543   20.5437 C   0  0  0  0  0  0  0  0  0  0  0  0
   13.7270    5.7144   19.8610 O   0  0  0  0  0  0  0  0  0  0  0  0
    8.3351    5.5235   15.4478 C   0  0  0  0  0  0  0  0  0  0  0  0
    8.7700    7.8434   21.3915 C   0  0  0  0  0  0  0  0  0  0  0  0
   11.7856    6.8851   19.2401 C   0  0  0  0  0  0  0  0  0  0  0  0
   10.5281    7.4276   19.5649 C   0  0  0  0  0  0  0  0  0  0  0  0
   10.0256    7.2907   20.8484 C   0  0  0  0  0  0  0  0  0  0  0  0
    9.3113    5.3049   14.4911 C   0  0  0  0  0  0  0  0  0  0  0  0
    9.4607    7.5646   16.0139 C   0  0  0  0  0  0  0  0  0  0  0  0
   10.4192    7.3157   15.0955 C   0  0  0  0  0  0  0  0  0  0  0  0
   10.2489    6.4227   23.0218 N   0  0  0  0  0  0  0  0  0  0  0  0
    7.2472    8.0746   23.5050 C   0  0  0  0  0  0  0  0  0  0  0  0
    9.2051    6.9101   23.4604 C   0  0  0  0  0  0  0  0  0  0  0  0
   11.9646    6.0299   21.4251 C   0  0  0  0  0  0  0  0  0  0  0  0
  1  5  1  0
  1 13  1  0
  2 20  2  0
  2 28  1  0
  2 29  1  0
  3 19  4  0
  3 25  4  0
  4 23  4  0
  4 27  1  0
  4 30  4  0
  5 17  1  0
  6  8  1  0
  6 29  1  0
  7 24  4  0
  7 26  4  0
  8 28  1  0
  9 13  2  0
 10 18  1  0
 10 21  4  0
 10 30  4  0
 11 17  2  0
 12 18  1  0
 13 15  1  0
 14 24  1  0
 15 25  1  0
 16 28  2  0
 17 20  1  0
 19 24  4  0
 20 23  1  0
 21 22  4  0
 22 23  4  0
 25 26  4  0
 27 29  2  0
M  END
$$$$

 Created by Python create_sdf_string function

 30 33  0  0  0  0  0  0  0  0999 V2000
    8.3036    9.8571   18.4133 C   0  0  0  0  0  0  0  0  0  0  0  0
    8.3694    7.6612   22.6703 C   0  0  0  0  0  0  0  0  0  0  0  0
    8.4143    6.6863   16.2273 C   0  0  0  0  0  0  0  0  0  0  0  0
   10.7581    6.5674   21.7636 C   0  0  0  0  0  0  0  0  0  0  0  0
    8.4452    8.7960   19.2958 O   0  0  0  0  0  0  0  0  0  0  0  0
    8.7122    6.7842   24.8569 C   0  0  0  0  0  0  0  0  0  0  0  0
   10.3400    6.1726   14.3081 C   0  0  0  0  0  0  0  0  0  0  0  0
    7.4297    7.5873   24.8962 C   0  0  0  0  0  0  0  0  0  0  0  0
    8.1566   10.0536   16.0516 O   0  0  0  0  0  0  0  0  0  0  0  0
   12.4989    6.2074   20.1776 C   0  0  0  0  0  0  0  0  0  0  0  0
    6.9192    9.1053   20.9073 O   0  0  0  0  0  0  0  0  0  0  0  0
   14.3979    6.0729   18.7784 C   0  0  0  0  0  0  0  0  0  0  0  0
    8.6811    9.5354   16.9998 C   0  0  0  0  0  0  0  0  0  0  0  0
    9.2512    4.2713   13.7653 O   0  0  0  0  0  0  0  0  0  0  0  0
    9.6495    8.6317   16.8332 N   0  0  0  0  0  0  0  0  0  0  0  0
    6.2934    8.6988   23.1988 O   0  0  0  0  0  0  0  0  0  0  0  0
    7.9806    8.6543   20.5437 C   0  0  0  0  0  0  0  0  0  0  0  0
   13.7270    5.7144   19.8610 O   0  0  0  0  0  0  0  0  0  0  0  0
    8.3351    5.5235   15.4478 C   0  0  0  0  0  0  0  0  0  0  0  0
    8.7700    7.8434   21.3915 C   0  0  0  0  0  0  0  0  0  0  0  0
   11.7856    6.8851   19.2401 C   0  0  0  0  0  0  0  0  0  0  0  0
   10.5281    7.4276   19.5649 C   0  0  0  0  0  0  0  0  0  0  0  0
   10.0256    7.2907   20.8484 C   0  0  0  0  0  0  0  0  0  0  0  0
    9.3113    5.3049   14.4911 C   0  0  0  0  0  0  0  0  0  0  0  0
    9.4607    7.5646   16.0139 C   0  0  0  0  0  0  0  0  0  0  0  0
   10.4192    7.3157   15.0955 C   0  0  0  0  0  0  0  0  0  0  0  0
   10.2489    6.4227   23.0218 N   0  0  0  0  0  0  0  0  0  0  0  0
    7.2472    8.0746   23.5050 C   0  0  0  0  0  0  0  0  0  0  0  0
    9.2051    6.9101   23.4604 C   0  0  0  0  0  0  0  0  0  0  0  0
   11.9646    6.0299   21.4251 C   0  0  0  0  0  0  0  0  0  0  0  0
  1  5  1  0
  1 13  1  0
  2 20  2  0
  2 28  1  0
  2 29  1  0
  3 19  4  0
  3 25  4  0
  4 23  4  0
  4 27  1  0
  4 30  4  0
  5 17  1  0
  6  8  1  0
  6 29  1  0
  7 24  4  0
  7 26  4  0
  8 28  1  0
  9 13  2  0
 10 18  1  0
 10 21  4  0
 10 30  4  0
 11 17  2  0
 12 18  1  0
 13 15  1  0
 14 24  1  0
 15 25  1  0
 16 28  2  0
 17 20  1  0
 19 24  4  0
 20 23  1  0
 21 22  4  0
 22 23  4  0
 25 26  4  0
 27 29  2  0
M  END
$$$$

 Created by Python create_sdf_string function

 30 33  0  0  0  0  0  0  0  0999 V2000
    8.3036    9.8571   18.4133 C   0  0  0  0  0  0  0  0  0  0  0  0
    8.3694    7.6612   22.6703 C   0  0  0  0  0  0  0  0  0  0  0  0
    8.4143    6.6863   16.2273 C   0  0  0  0  0  0  0  0  0  0  0  0
   10.7581    6.5674   21.7636 C   0  0  0  0  0  0  0  0  0  0  0  0
    8.4452    8.7960   19.2958 O   0  0  0  0  0  0  0  0  0  0  0  0
    8.7122    6.7842   24.8569 C   0  0  0  0  0  0  0  0  0  0  0  0
   10.3400    6.1726   14.3081 C   0  0  0  0  0  0  0  0  0  0  0  0
    7.4297    7.5873   24.8962 C   0  0  0  0  0  0  0  0  0  0  0  0
    8.1566   10.0536   16.0516 O   0  0  0  0  0  0  0  0  0  0  0  0
   12.4989    6.2074   20.1776 C   0  0  0  0  0  0  0  0  0  0  0  0
    6.9192    9.1053   20.9073 O   0  0  0  0  0  0  0  0  0  0  0  0
   14.3979    6.0729   18.7784 C   0  0  0  0  0  0  0  0  0  0  0  0
    8.6811    9.5354   16.9998 C   0  0  0  0  0  0  0  0  0  0  0  0
    9.2512    4.2713   13.7653 O   0  0  0  0  0  0  0  0  0  0  0  0
    9.6495    8.6317   16.8332 N   0  0  0  0  0  0  0  0  0  0  0  0
    6.2934    8.6988   23.1988 O   0  0  0  0  0  0  0  0  0  0  0  0
    7.9806    8.6543   20.5437 C   0  0  0  0  0  0  0  0  0  0  0  0
   13.7270    5.7144   19.8610 O   0  0  0  0  0  0  0  0  0  0  0  0
    8.3351    5.5235   15.4478 C   0  0  0  0  0  0  0  0  0  0  0  0
    8.7700    7.8434   21.3915 C   0  0  0  0  0  0  0  0  0  0  0  0
   11.7856    6.8851   19.2401 C   0  0  0  0  0  0  0  0  0  0  0  0
   10.5281    7.4276   19.5649 C   0  0  0  0  0  0  0  0  0  0  0  0
   10.0256    7.2907   20.8484 C   0  0  0  0  0  0  0  0  0  0  0  0
    9.3113    5.3049   14.4911 C   0  0  0  0  0  0  0  0  0  0  0  0
    9.4607    7.5646   16.0139 C   0  0  0  0  0  0  0  0  0  0  0  0
   10.4192    7.3157   15.0955 C   0  0  0  0  0  0  0  0  0  0  0  0
   10.2489    6.4227   23.0218 N   0  0  0  0  0  0  0  0  0  0  0  0
    7.2472    8.0746   23.5050 C   0  0  0  0  0  0  0  0  0  0  0  0
    9.2051    6.9101   23.4604 C   0  0  0  0  0  0  0  0  0  0  0  0
   11.9646    6.0299   21.4251 C   0  0  0  0  0  0  0  0  0  0  0  0
  1  5  1  0
  1 13  1  0
  2 20  2  0
  2 28  1  0
  2 29  1  0
  3 19  4  0
  3 25  4  0
  4 23  4  0
  4 27  1  0
  4 30  4  0
  5 17  1  0
  6  8  1  0
  6 29  1  0
  7 24  4  0
  7 26  4  0
  8 28  1  0
  9 13  2  0
 10 18  1  0
 10 21  4  0
 10 30  4  0
 11 17  2  0
 12 18  1  0
 13 15  1  0
 14 24  1  0
 15 25  1  0
 16 28  2  0
 17 20  1  0
 19 24  4  0
 20 23  1  0
 21 22  4  0
 22 23  4  0
 25 26  4  0
 27 29  2  0
M  END
$$$$

 Created by Python create_sdf_string function

 30 33  0  0  0  0  0  0  0  0999 V2000
    8.3036    9.8571   18.4133 C   0  0  0  0  0  0  0  0  0  0  0  0
    8.3694    7.6612   22.6703 C   0  0  0  0  0  0  0  0  0  0  0  0
    8.4143    6.6863   16.2273 C   0  0  0  0  0  0  0  0  0  0  0  0
   10.7581    6.5674   21.7636 C   0  0  0  0  0  0  0  0  0  0  0  0
    8.4452    8.7960   19.2958 O   0  0  0  0  0  0  0  0  0  0  0  0
    8.7122    6.7842   24.8569 C   0  0  0  0  0  0  0  0  0  0  0  0
   10.3400    6.1726   14.3081 C   0  0  0  0  0  0  0  0  0  0  0  0
    7.4297    7.5873   24.8962 C   0  0  0  0  0  0  0  0  0  0  0  0
    8.1566   10.0536   16.0516 O   0  0  0  0  0  0  0  0  0  0  0  0
   12.4989    6.2074   20.1776 C   0  0  0  0  0  0  0  0  0  0  0  0
    6.9192    9.1053   20.9073 O   0  0  0  0  0  0  0  0  0  0  0  0
   14.3979    6.0729   18.7784 C   0  0  0  0  0  0  0  0  0  0  0  0
    8.6811    9.5354   16.9998 C   0  0  0  0  0  0  0  0  0  0  0  0
    9.2512    4.2713   13.7653 O   0  0  0  0  0  0  0  0  0  0  0  0
    9.6495    8.6317   16.8332 N   0  0  0  0  0  0  0  0  0  0  0  0
    6.2934    8.6988   23.1988 O   0  0  0  0  0  0  0  0  0  0  0  0
    7.9806    8.6543   20.5437 C   0  0  0  0  0  0  0  0  0  0  0  0
   13.7270    5.7144   19.8610 O   0  0  0  0  0  0  0  0  0  0  0  0
    8.3351    5.5235   15.4478 C   0  0  0  0  0  0  0  0  0  0  0  0
    8.7700    7.8434   21.3915 C   0  0  0  0  0  0  0  0  0  0  0  0
   11.7856    6.8851   19.2401 C   0  0  0  0  0  0  0  0  0  0  0  0
   10.5281    7.4276   19.5649 C   0  0  0  0  0  0  0  0  0  0  0  0
   10.0256    7.2907   20.8484 C   0  0  0  0  0  0  0  0  0  0  0  0
    9.3113    5.3049   14.4911 C   0  0  0  0  0  0  0  0  0  0  0  0
    9.4607    7.5646   16.0139 C   0  0  0  0  0  0  0  0  0  0  0  0
   10.4192    7.3157   15.0955 C   0  0  0  0  0  0  0  0  0  0  0  0
   10.2489    6.4227   23.0218 N   0  0  0  0  0  0  0  0  0  0  0  0
    7.2472    8.0746   23.5050 C   0  0  0  0  0  0  0  0  0  0  0  0
    9.2051    6.9101   23.4604 C   0  0  0  0  0  0  0  0  0  0  0  0
   11.9646    6.0299   21.4251 C   0  0  0  0  0  0  0  0  0  0  0  0
  1  5  1  0
  1 13  1  0
  2 20  2  0
  2 28  1  0
  2 29  1  0
  3 19  4  0
  3 25  4  0
  4 23  4  0
  4 27  1  0
  4 30  4  0
  5 17  1  0
  6  8  1  0
  6 29  1  0
  7 24  4  0
  7 26  4  0
  8 28  1  0
  9 13  2  0
 10 18  1  0
 10 21  4  0
 10 30  4  0
 11 17  2  0
 12 18  1  0
 13 15  1  0
 14 24  1  0
 15 25  1  0
 16 28  2  0
 17 20  1  0
 19 24  4  0
 20 23  1  0
 21 22  4  0
 22 23  4  0
 25 26  4  0
 27 29  2  0
M  END
$$$$

 Created by Python create_sdf_string function

 30 33  0  0  0  0  0  0  0  0999 V2000
    8.3036    9.8571   18.4133 C   0  0  0  0  0  0  0  0  0  0  0  0
    8.3694    7.6612   22.6703 C   0  0  0  0  0  0  0  0  0  0  0  0
    8.4143    6.6863   16.2273 C   0  0  0  0  0  0  0  0  0  0  0  0
   10.7581    6.5674   21.7636 C   0  0  0  0  0  0  0  0  0  0  0  0
    8.4452    8.7960   19.2958 O   0  0  0  0  0  0  0  0  0  0  0  0
    8.7122    6.7842   24.8569 C   0  0  0  0  0  0  0  0  0  0  0  0
   10.3400    6.1726   14.3081 C   0  0  0  0  0  0  0  0  0  0  0  0
    7.4297    7.5873   24.8962 C   0  0  0  0  0  0  0  0  0  0  0  0
    8.1566   10.0536   16.0516 O   0  0  0  0  0  0  0  0  0  0  0  0
   12.4989    6.2074   20.1776 C   0  0  0  0  0  0  0  0  0  0  0  0
    6.9192    9.1053   20.9073 O   0  0  0  0  0  0  0  0  0  0  0  0
   14.3979    6.0729   18.7784 C   0  0  0  0  0  0  0  0  0  0  0  0
    8.6811    9.5354   16.9998 C   0  0  0  0  0  0  0  0  0  0  0  0
    9.2512    4.2713   13.7653 O   0  0  0  0  0  0  0  0  0  0  0  0
    9.6495    8.6317   16.8332 N   0  0  0  0  0  0  0  0  0  0  0  0
    6.2934    8.6988   23.1988 O   0  0  0  0  0  0  0  0  0  0  0  0
    7.9806    8.6543   20.5437 C   0  0  0  0  0  0  0  0  0  0  0  0
   13.7270    5.7144   19.8610 O   0  0  0  0  0  0  0  0  0  0  0  0
    8.3351    5.5235   15.4478 C   0  0  0  0  0  0  0  0  0  0  0  0
    8.7700    7.8434   21.3915 C   0  0  0  0  0  0  0  0  0  0  0  0
   11.7856    6.8851   19.2401 C   0  0  0  0  0  0  0  0  0  0  0  0
   10.5281    7.4276   19.5649 C   0  0  0  0  0  0  0  0  0  0  0  0
   10.0256    7.2907   20.8484 C   0  0  0  0  0  0  0  0  0  0  0  0
    9.3113    5.3049   14.4911 C   0  0  0  0  0  0  0  0  0  0  0  0
    9.4607    7.5646   16.0139 C   0  0  0  0  0  0  0  0  0  0  0  0
   10.4192    7.3157   15.0955 C   0  0  0  0  0  0  0  0  0  0  0  0
   10.2489    6.4227   23.0218 N   0  0  0  0  0  0  0  0  0  0  0  0
    7.2472    8.0746   23.5050 C   0  0  0  0  0  0  0  0  0  0  0  0
    9.2051    6.9101   23.4604 C   0  0  0  0  0  0  0  0  0  0  0  0
   11.9646    6.0299   21.4251 C   0  0  0  0  0  0  0  0  0  0  0  0
  1  5  1  0
  1 13  1  0
  2 20  2  0
  2 28  1  0
  2 29  1  0
  3 19  4  0
  3 25  4  0
  4 23  4  0
  4 27  1  0
  4 30  4  0
  5 17  1  0
  6  8  1  0
  6 29  1  0
  7 24  4  0
  7 26  4  0
  8 28  1  0
  9 13  2  0
 10 18  1  0
 10 21  4  0
 10 30  4  0
 11 17  2  0
 12 18  1  0
 13 15  1  0
 14 24  1  0
 15 25  1  0
 16 28  2  0
 17 20  1  0
 19 24  4  0
 20 23  1  0
 21 22  4  0
 22 23  4  0
 25 26  4  0
 27 29  2  0
M  END
$$$$

 Created by Python create_sdf_string function

 30 33  0  0  0  0  0  0  0  0999 V2000
    8.3036    9.8571   18.4133 C   0  0  0  0  0  0  0  0  0  0  0  0
    8.3694    7.6612   22.6703 C   0  0  0  0  0  0  0  0  0  0  0  0
    8.4143    6.6863   16.2273 C   0  0  0  0  0  0  0  0  0  0  0  0
   10.7581    6.5674   21.7636 C   0  0  0  0  0  0  0  0  0  0  0  0
    8.4452    8.7960   19.2958 O   0  0  0  0  0  0  0  0  0  0  0  0
    8.7122    6.7842   24.8569 C   0  0  0  0  0  0  0  0  0  0  0  0
   10.3400    6.1726   14.3081 C   0  0  0  0  0  0  0  0  0  0  0  0
    7.4297    7.5873   24.8962 C   0  0  0  0  0  0  0  0  0  0  0  0
    8.1566   10.0536   16.0516 O   0  0  0  0  0  0  0  0  0  0  0  0
   12.4989    6.2074   20.1776 C   0  0  0  0  0  0  0  0  0  0  0  0
    6.9192    9.1053   20.9073 O   0  0  0  0  0  0  0  0  0  0  0  0
   14.3979    6.0729   18.7784 C   0  0  0  0  0  0  0  0  0  0  0  0
    8.6811    9.5354   16.9998 C   0  0  0  0  0  0  0  0  0  0  0  0
    9.2512    4.2713   13.7653 O   0  0  0  0  0  0  0  0  0  0  0  0
    9.6495    8.6317   16.8332 N   0  0  0  0  0  0  0  0  0  0  0  0
    6.2934    8.6988   23.1988 O   0  0  0  0  0  0  0  0  0  0  0  0
    7.9806    8.6543   20.5437 C   0  0  0  0  0  0  0  0  0  0  0  0
   13.7270    5.7144   19.8610 O   0  0  0  0  0  0  0  0  0  0  0  0
    8.3351    5.5235   15.4478 C   0  0  0  0  0  0  0  0  0  0  0  0
    8.7700    7.8434   21.3915 C   0  0  0  0  0  0  0  0  0  0  0  0
   11.7856    6.8851   19.2401 C   0  0  0  0  0  0  0  0  0  0  0  0
   10.5281    7.4276   19.5649 C   0  0  0  0  0  0  0  0  0  0  0  0
   10.0256    7.2907   20.8484 C   0  0  0  0  0  0  0  0  0  0  0  0
    9.3113    5.3049   14.4911 C   0  0  0  0  0  0  0  0  0  0  0  0
    9.4607    7.5646   16.0139 C   0  0  0  0  0  0  0  0  0  0  0  0
   10.4192    7.3157   15.0955 C   0  0  0  0  0  0  0  0  0  0  0  0
   10.2489    6.4227   23.0218 N   0  0  0  0  0  0  0  0  0  0  0  0
    7.2472    8.0746   23.5050 C   0  0  0  0  0  0  0  0  0  0  0  0
    9.2051    6.9101   23.4604 C   0  0  0  0  0  0  0  0  0  0  0  0
   11.9646    6.0299   21.4251 C   0  0  0  0  0  0  0  0  0  0  0  0
  1  5  1  0
  1 13  1  0
  2 20  2  0
  2 28  1  0
  2 29  1  0
  3 19  4  0
  3 25  4  0
  4 23  4  0
  4 27  1  0
  4 30  4  0
  5 17  1  0
  6  8  1  0
  6 29  1  0
  7 24  4  0
  7 26  4  0
  8 28  1  0
  9 13  2  0
 10 18  1  0
 10 21  4  0
 10 30  4  0
 11 17  2  0
 12 18  1  0
 13 15  1  0
 14 24  1  0
 15 25  1  0
 16 28  2  0
 17 20  1  0
 19 24  4  0
 20 23  1  0
 21 22  4  0
 22 23  4  0
 25 26  4  0
 27 29  2  0
M  END
$$$$

 Created by Python create_sdf_string function

 30 33  0  0  0  0  0  0  0  0999 V2000
    8.3036    9.8571   18.4133 C   0  0  0  0  0  0  0  0  0  0  0  0
    8.3694    7.6612   22.6703 C   0  0  0  0  0  0  0  0  0  0  0  0
    8.4143    6.6863   16.2273 C   0  0  0  0  0  0  0  0  0  0  0  0
   10.7581    6.5674   21.7636 C   0  0  0  0  0  0  0  0  0  0  0  0
    8.4452    8.7960   19.2958 O   0  0  0  0  0  0  0  0  0  0  0  0
    8.7122    6.7842   24.8569 C   0  0  0  0  0  0  0  0  0  0  0  0
   10.3400    6.1726   14.3081 C   0  0  0  0  0  0  0  0  0  0  0  0
    7.4297    7.5873   24.8962 C   0  0  0  0  0  0  0  0  0  0  0  0
    8.1566   10.0536   16.0516 O   0  0  0  0  0  0  0  0  0  0  0  0
   12.4989    6.2074   20.1776 C   0  0  0  0  0  0  0  0  0  0  0  0
    6.9192    9.1053   20.9073 O   0  0  0  0  0  0  0  0  0  0  0  0
   14.3979    6.0729   18.7784 C   0  0  0  0  0  0  0  0  0  0  0  0
    8.6811    9.5354   16.9998 C   0  0  0  0  0  0  0  0  0  0  0  0
    9.2512    4.2713   13.7653 O   0  0  0  0  0  0  0  0  0  0  0  0
    9.6495    8.6317   16.8332 N   0  0  0  0  0  0  0  0  0  0  0  0
    6.2934    8.6988   23.1988 O   0  0  0  0  0  0  0  0  0  0  0  0
    7.9806    8.6543   20.5437 C   0  0  0  0  0  0  0  0  0  0  0  0
   13.7270    5.7144   19.8610 O   0  0  0  0  0  0  0  0  0  0  0  0
    8.3351    5.5235   15.4478 C   0  0  0  0  0  0  0  0  0  0  0  0
    8.7700    7.8434   21.3915 C   0  0  0  0  0  0  0  0  0  0  0  0
   11.7856    6.8851   19.2401 C   0  0  0  0  0  0  0  0  0  0  0  0
   10.5281    7.4276   19.5649 C   0  0  0  0  0  0  0  0  0  0  0  0
   10.0256    7.2907   20.8484 C   0  0  0  0  0  0  0  0  0  0  0  0
    9.3113    5.3049   14.4911 C   0  0  0  0  0  0  0  0  0  0  0  0
    9.4607    7.5646   16.0139 C   0  0  0  0  0  0  0  0  0  0  0  0
   10.4192    7.3157   15.0955 C   0  0  0  0  0  0  0  0  0  0  0  0
   10.2489    6.4227   23.0218 N   0  0  0  0  0  0  0  0  0  0  0  0
    7.2472    8.0746   23.5050 C   0  0  0  0  0  0  0  0  0  0  0  0
    9.2051    6.9101   23.4604 C   0  0  0  0  0  0  0  0  0  0  0  0
   11.9646    6.0299   21.4251 C   0  0  0  0  0  0  0  0  0  0  0  0
  1  5  1  0
  1 13  1  0
  2 20  2  0
  2 28  1  0
  2 29  1  0
  3 19  4  0
  3 25  4  0
  4 23  4  0
  4 27  1  0
  4 30  4  0
  5 17  1  0
  6  8  1  0
  6 29  1  0
  7 24  4  0
  7 26  4  0
  8 28  1  0
  9 13  2  0
 10 18  1  0
 10 21  4  0
 10 30  4  0
 11 17  2  0
 12 18  1  0
 13 15  1  0
 14 24  1  0
 15 25  1  0
 16 28  2  0
 17 20  1  0
 19 24  4  0
 20 23  1  0
 21 22  4  0
 22 23  4  0
 25 26  4  0
 27 29  2  0
M  END
$$$$

 Created by Python create_sdf_string function

 30 33  0  0  0  0  0  0  0  0999 V2000
    8.3036    9.8571   18.4133 C   0  0  0  0  0  0  0  0  0  0  0  0
    8.3694    7.6612   22.6703 C   0  0  0  0  0  0  0  0  0  0  0  0
    8.4143    6.6863   16.2273 C   0  0  0  0  0  0  0  0  0  0  0  0
   10.7581    6.5674   21.7636 C   0  0  0  0  0  0  0  0  0  0  0  0
    8.4452    8.7960   19.2958 O   0  0  0  0  0  0  0  0  0  0  0  0
    8.7122    6.7842   24.8569 C   0  0  0  0  0  0  0  0  0  0  0  0
   10.3400    6.1726   14.3081 C   0  0  0  0  0  0  0  0  0  0  0  0
    7.4297    7.5873   24.8962 C   0  0  0  0  0  0  0  0  0  0  0  0
    8.1566   10.0536   16.0516 O   0  0  0  0  0  0  0  0  0  0  0  0
   12.4989    6.2074   20.1776 C   0  0  0  0  0  0  0  0  0  0  0  0
    6.9192    9.1053   20.9073 O   0  0  0  0  0  0  0  0  0  0  0  0
   14.3979    6.0729   18.7784 C   0  0  0  0  0  0  0  0  0  0  0  0
    8.6811    9.5354   16.9998 C   0  0  0  0  0  0  0  0  0  0  0  0
    9.2512    4.2713   13.7653 O   0  0  0  0  0  0  0  0  0  0  0  0
    9.6495    8.6317   16.8332 N   0  0  0  0  0  0  0  0  0  0  0  0
    6.2934    8.6988   23.1988 O   0  0  0  0  0  0  0  0  0  0  0  0
    7.9806    8.6543   20.5437 C   0  0  0  0  0  0  0  0  0  0  0  0
   13.7270    5.7144   19.8610 O   0  0  0  0  0  0  0  0  0  0  0  0
    8.3351    5.5235   15.4478 C   0  0  0  0  0  0  0  0  0  0  0  0
    8.7700    7.8434   21.3915 C   0  0  0  0  0  0  0  0  0  0  0  0
   11.7856    6.8851   19.2401 C   0  0  0  0  0  0  0  0  0  0  0  0
   10.5281    7.4276   19.5649 C   0  0  0  0  0  0  0  0  0  0  0  0
   10.0256    7.2907   20.8484 C   0  0  0  0  0  0  0  0  0  0  0  0
    9.3113    5.3049   14.4911 C   0  0  0  0  0  0  0  0  0  0  0  0
    9.4607    7.5646   16.0139 C   0  0  0  0  0  0  0  0  0  0  0  0
   10.4192    7.3157   15.0955 C   0  0  0  0  0  0  0  0  0  0  0  0
   10.2489    6.4227   23.0218 N   0  0  0  0  0  0  0  0  0  0  0  0
    7.2472    8.0746   23.5050 C   0  0  0  0  0  0  0  0  0  0  0  0
    9.2051    6.9101   23.4604 C   0  0  0  0  0  0  0  0  0  0  0  0
   11.9646    6.0299   21.4251 C   0  0  0  0  0  0  0  0  0  0  0  0
  1  5  1  0
  1 13  1  0
  2 20  2  0
  2 28  1  0
  2 29  1  0
  3 19  4  0
  3 25  4  0
  4 23  4  0
  4 27  1  0
  4 30  4  0
  5 17  1  0
  6  8  1  0
  6 29  1  0
  7 24  4  0
  7 26  4  0
  8 28  1  0
  9 13  2  0
 10 18  1  0
 10 21  4  0
 10 30  4  0
 11 17  2  0
 12 18  1  0
 13 15  1  0
 14 24  1  0
 15 25  1  0
 16 28  2  0
 17 20  1  0
 19 24  4  0
 20 23  1  0
 21 22  4  0
 22 23  4  0
 25 26  4  0
 27 29  2  0
M  END
$$$$

 Created by Python create_sdf_string function

 30 33  0  0  0  0  0  0  0  0999 V2000
    8.3036    9.8571   18.4133 C   0  0  0  0  0  0  0  0  0  0  0  0
    8.3694    7.6612   22.6703 C   0  0  0  0  0  0  0  0  0  0  0  0
    8.4143    6.6863   16.2273 C   0  0  0  0  0  0  0  0  0  0  0  0
   10.7581    6.5674   21.7636 C   0  0  0  0  0  0  0  0  0  0  0  0
    8.4452    8.7960   19.2958 O   0  0  0  0  0  0  0  0  0  0  0  0
    8.7122    6.7842   24.8569 C   0  0  0  0  0  0  0  0  0  0  0  0
   10.3400    6.1726   14.3081 C   0  0  0  0  0  0  0  0  0  0  0  0
    7.4297    7.5873   24.8962 C   0  0  0  0  0  0  0  0  0  0  0  0
    8.1566   10.0536   16.0516 O   0  0  0  0  0  0  0  0  0  0  0  0
   12.4989    6.2074   20.1776 C   0  0  0  0  0  0  0  0  0  0  0  0
    6.9192    9.1053   20.9073 O   0  0  0  0  0  0  0  0  0  0  0  0
   14.3979    6.0729   18.7784 C   0  0  0  0  0  0  0  0  0  0  0  0
    8.6811    9.5354   16.9998 C   0  0  0  0  0  0  0  0  0  0  0  0
    9.2512    4.2713   13.7653 O   0  0  0  0  0  0  0  0  0  0  0  0
    9.6495    8.6317   16.8332 N   0  0  0  0  0  0  0  0  0  0  0  0
    6.2934    8.6988   23.1988 O   0  0  0  0  0  0  0  0  0  0  0  0
    7.9806    8.6543   20.5437 C   0  0  0  0  0  0  0  0  0  0  0  0
   13.7270    5.7144   19.8610 O   0  0  0  0  0  0  0  0  0  0  0  0
    8.3351    5.5235   15.4478 C   0  0  0  0  0  0  0  0  0  0  0  0
    8.7700    7.8434   21.3915 C   0  0  0  0  0  0  0  0  0  0  0  0
   11.7856    6.8851   19.2401 C   0  0  0  0  0  0  0  0  0  0  0  0
   10.5281    7.4276   19.5649 C   0  0  0  0  0  0  0  0  0  0  0  0
   10.0256    7.2907   20.8484 C   0  0  0  0  0  0  0  0  0  0  0  0
    9.3113    5.3049   14.4911 C   0  0  0  0  0  0  0  0  0  0  0  0
    9.4607    7.5646   16.0139 C   0  0  0  0  0  0  0  0  0  0  0  0
   10.4192    7.3157   15.0955 C   0  0  0  0  0  0  0  0  0  0  0  0
   10.2489    6.4227   23.0218 N   0  0  0  0  0  0  0  0  0  0  0  0
    7.2472    8.0746   23.5050 C   0  0  0  0  0  0  0  0  0  0  0  0
    9.2051    6.9101   23.4604 C   0  0  0  0  0  0  0  0  0  0  0  0
   11.9646    6.0299   21.4251 C   0  0  0  0  0  0  0  0  0  0  0  0
  1  5  1  0
  1 13  1  0
  2 20  2  0
  2 28  1  0
  2 29  1  0
  3 19  4  0
  3 25  4  0
  4 23  4  0
  4 27  1  0
  4 30  4  0
  5 17  1  0
  6  8  1  0
  6 29  1  0
  7 24  4  0
  7 26  4  0
  8 28  1  0
  9 13  2  0
 10 18  1  0
 10 21  4  0
 10 30  4  0
 11 17  2  0
 12 18  1  0
 13 15  1  0
 14 24  1  0
 15 25  1  0
 16 28  2  0
 17 20  1  0
 19 24  4  0
 20 23  1  0
 21 22  4  0
 22 23  4  0
 25 26  4  0
 27 29  2  0
M  END
$$$$

 Created by Python create_sdf_string function

 30 33  0  0  0  0  0  0  0  0999 V2000
    8.3036    9.8571   18.4133 C   0  0  0  0  0  0  0  0  0  0  0  0
    8.3694    7.6612   22.6703 C   0  0  0  0  0  0  0  0  0  0  0  0
    8.4143    6.6863   16.2273 C   0  0  0  0  0  0  0  0  0  0  0  0
   10.7581    6.5674   21.7636 C   0  0  0  0  0  0  0  0  0  0  0  0
    8.4452    8.7960   19.2958 O   0  0  0  0  0  0  0  0  0  0  0  0
    8.7122    6.7842   24.8569 C   0  0  0  0  0  0  0  0  0  0  0  0
   10.3400    6.1726   14.3081 C   0  0  0  0  0  0  0  0  0  0  0  0
    7.4297    7.5873   24.8962 C   0  0  0  0  0  0  0  0  0  0  0  0
    8.1566   10.0536   16.0516 O   0  0  0  0  0  0  0  0  0  0  0  0
   12.4989    6.2074   20.1776 C   0  0  0  0  0  0  0  0  0  0  0  0
    6.9192    9.1053   20.9073 O   0  0  0  0  0  0  0  0  0  0  0  0
   14.3979    6.0729   18.7784 C   0  0  0  0  0  0  0  0  0  0  0  0
    8.6811    9.5354   16.9998 C   0  0  0  0  0  0  0  0  0  0  0  0
    9.2512    4.2713   13.7653 O   0  0  0  0  0  0  0  0  0  0  0  0
    9.6495    8.6317   16.8332 N   0  0  0  0  0  0  0  0  0  0  0  0
    6.2934    8.6988   23.1988 O   0  0  0  0  0  0  0  0  0  0  0  0
    7.9806    8.6543   20.5437 C   0  0  0  0  0  0  0  0  0  0  0  0
   13.7270    5.7144   19.8610 O   0  0  0  0  0  0  0  0  0  0  0  0
    8.3351    5.5235   15.4478 C   0  0  0  0  0  0  0  0  0  0  0  0
    8.7700    7.8434   21.3915 C   0  0  0  0  0  0  0  0  0  0  0  0
   11.7856    6.8851   19.2401 C   0  0  0  0  0  0  0  0  0  0  0  0
   10.5281    7.4276   19.5649 C   0  0  0  0  0  0  0  0  0  0  0  0
   10.0256    7.2907   20.8484 C   0  0  0  0  0  0  0  0  0  0  0  0
    9.3113    5.3049   14.4911 C   0  0  0  0  0  0  0  0  0  0  0  0
    9.4607    7.5646   16.0139 C   0  0  0  0  0  0  0  0  0  0  0  0
   10.4192    7.3157   15.0955 C   0  0  0  0  0  0  0  0  0  0  0  0
   10.2489    6.4227   23.0218 N   0  0  0  0  0  0  0  0  0  0  0  0
    7.2472    8.0746   23.5050 C   0  0  0  0  0  0  0  0  0  0  0  0
    9.2051    6.9101   23.4604 C   0  0  0  0  0  0  0  0  0  0  0  0
   11.9646    6.0299   21.4251 C   0  0  0  0  0  0  0  0  0  0  0  0
  1  5  1  0
  1 13  1  0
  2 20  2  0
  2 28  1  0
  2 29  1  0
  3 19  4  0
  3 25  4  0
  4 23  4  0
  4 27  1  0
  4 30  4  0
  5 17  1  0
  6  8  1  0
  6 29  1  0
  7 24  4  0
  7 26  4  0
  8 28  1  0
  9 13  2  0
 10 18  1  0
 10 21  4  0
 10 30  4  0
 11 17  2  0
 12 18  1  0
 13 15  1  0
 14 24  1  0
 15 25  1  0
 16 28  2  0
 17 20  1  0
 19 24  4  0
 20 23  1  0
 21 22  4  0
 22 23  4  0
 25 26  4  0
 27 29  2  0
M  END
$$$$

 Created by Python create_sdf_string function

 30 33  0  0  0  0  0  0  0  0999 V2000
    8.3036    9.8571   18.4133 C   0  0  0  0  0  0  0  0  0  0  0  0
    8.3694    7.6612   22.6703 C   0  0  0  0  0  0  0  0  0  0  0  0
    8.4143    6.6863   16.2273 C   0  0  0  0  0  0  0  0  0  0  0  0
   10.7581    6.5674   21.7636 C   0  0  0  0  0  0  0  0  0  0  0  0
    8.4452    8.7960   19.2958 O   0  0  0  0  0  0  0  0  0  0  0  0
    8.7122    6.7842   24.8569 C   0  0  0  0  0  0  0  0  0  0  0  0
   10.3400    6.1726   14.3081 C   0  0  0  0  0  0  0  0  0  0  0  0
    7.4297    7.5873   24.8962 C   0  0  0  0  0  0  0  0  0  0  0  0
    8.1566   10.0536   16.0516 O   0  0  0  0  0  0  0  0  0  0  0  0
   12.4989    6.2074   20.1776 C   0  0  0  0  0  0  0  0  0  0  0  0
    6.9192    9.1053   20.9073 O   0  0  0  0  0  0  0  0  0  0  0  0
   14.3979    6.0729   18.7784 C   0  0  0  0  0  0  0  0  0  0  0  0
    8.6811    9.5354   16.9998 C   0  0  0  0  0  0  0  0  0  0  0  0
    9.2512    4.2713   13.7653 O   0  0  0  0  0  0  0  0  0  0  0  0
    9.6495    8.6317   16.8332 N   0  0  0  0  0  0  0  0  0  0  0  0
    6.2934    8.6988   23.1988 O   0  0  0  0  0  0  0  0  0  0  0  0
    7.9806    8.6543   20.5437 C   0  0  0  0  0  0  0  0  0  0  0  0
   13.7270    5.7144   19.8610 O   0  0  0  0  0  0  0  0  0  0  0  0
    8.3351    5.5235   15.4478 C   0  0  0  0  0  0  0  0  0  0  0  0
    8.7700    7.8434   21.3915 C   0  0  0  0  0  0  0  0  0  0  0  0
   11.7856    6.8851   19.2401 C   0  0  0  0  0  0  0  0  0  0  0  0
   10.5281    7.4276   19.5649 C   0  0  0  0  0  0  0  0  0  0  0  0
   10.0256    7.2907   20.8484 C   0  0  0  0  0  0  0  0  0  0  0  0
    9.3113    5.3049   14.4911 C   0  0  0  0  0  0  0  0  0  0  0  0
    9.4607    7.5646   16.0139 C   0  0  0  0  0  0  0  0  0  0  0  0
   10.4192    7.3157   15.0955 C   0  0  0  0  0  0  0  0  0  0  0  0
   10.2489    6.4227   23.0218 N   0  0  0  0  0  0  0  0  0  0  0  0
    7.2472    8.0746   23.5050 C   0  0  0  0  0  0  0  0  0  0  0  0
    9.2051    6.9101   23.4604 C   0  0  0  0  0  0  0  0  0  0  0  0
   11.9646    6.0299   21.4251 C   0  0  0  0  0  0  0  0  0  0  0  0
  1  5  1  0
  1 13  1  0
  2 20  2  0
  2 28  1  0
  2 29  1  0
  3 19  4  0
  3 25  4  0
  4 23  4  0
  4 27  1  0
  4 30  4  0
  5 17  1  0
  6  8  1  0
  6 29  1  0
  7 24  4  0
  7 26  4  0
  8 28  1  0
  9 13  2  0
 10 18  1  0
 10 21  4  0
 10 30  4  0
 11 17  2  0
 12 18  1  0
 13 15  1  0
 14 24  1  0
 15 25  1  0
 16 28  2  0
 17 20  1  0
 19 24  4  0
 20 23  1  0
 21 22  4  0
 22 23  4  0
 25 26  4  0
 27 29  2  0
M  END
$$$$

 Created by Python create_sdf_string function

 30 33  0  0  0  0  0  0  0  0999 V2000
    8.3036    9.8571   18.4133 C   0  0  0  0  0  0  0  0  0  0  0  0
    8.3694    7.6612   22.6703 C   0  0  0  0  0  0  0  0  0  0  0  0
    8.4143    6.6863   16.2273 C   0  0  0  0  0  0  0  0  0  0  0  0
   10.7581    6.5674   21.7636 C   0  0  0  0  0  0  0  0  0  0  0  0
    8.4452    8.7960   19.2958 O   0  0  0  0  0  0  0  0  0  0  0  0
    8.7122    6.7842   24.8569 C   0  0  0  0  0  0  0  0  0  0  0  0
   10.3400    6.1726   14.3081 C   0  0  0  0  0  0  0  0  0  0  0  0
    7.4297    7.5873   24.8962 C   0  0  0  0  0  0  0  0  0  0  0  0
    8.1566   10.0536   16.0516 O   0  0  0  0  0  0  0  0  0  0  0  0
   12.4989    6.2074   20.1776 C   0  0  0  0  0  0  0  0  0  0  0  0
    6.9192    9.1053   20.9073 O   0  0  0  0  0  0  0  0  0  0  0  0
   14.3979    6.0729   18.7784 C   0  0  0  0  0  0  0  0  0  0  0  0
    8.6811    9.5354   16.9998 C   0  0  0  0  0  0  0  0  0  0  0  0
    9.2512    4.2713   13.7653 O   0  0  0  0  0  0  0  0  0  0  0  0
    9.6495    8.6317   16.8332 N   0  0  0  0  0  0  0  0  0  0  0  0
    6.2934    8.6988   23.1988 O   0  0  0  0  0  0  0  0  0  0  0  0
    7.9806    8.6543   20.5437 C   0  0  0  0  0  0  0  0  0  0  0  0
   13.7270    5.7144   19.8610 O   0  0  0  0  0  0  0  0  0  0  0  0
    8.3351    5.5235   15.4478 C   0  0  0  0  0  0  0  0  0  0  0  0
    8.7700    7.8434   21.3915 C   0  0  0  0  0  0  0  0  0  0  0  0
   11.7856    6.8851   19.2401 C   0  0  0  0  0  0  0  0  0  0  0  0
   10.5281    7.4276   19.5649 C   0  0  0  0  0  0  0  0  0  0  0  0
   10.0256    7.2907   20.8484 C   0  0  0  0  0  0  0  0  0  0  0  0
    9.3113    5.3049   14.4911 C   0  0  0  0  0  0  0  0  0  0  0  0
    9.4607    7.5646   16.0139 C   0  0  0  0  0  0  0  0  0  0  0  0
   10.4192    7.3157   15.0955 C   0  0  0  0  0  0  0  0  0  0  0  0
   10.2489    6.4227   23.0218 N   0  0  0  0  0  0  0  0  0  0  0  0
    7.2472    8.0746   23.5050 C   0  0  0  0  0  0  0  0  0  0  0  0
    9.2051    6.9101   23.4604 C   0  0  0  0  0  0  0  0  0  0  0  0
   11.9646    6.0299   21.4251 C   0  0  0  0  0  0  0  0  0  0  0  0
  1  5  1  0
  1 13  1  0
  2 20  2  0
  2 28  1  0
  2 29  1  0
  3 19  4  0
  3 25  4  0
  4 23  4  0
  4 27  1  0
  4 30  4  0
  5 17  1  0
  6  8  1  0
  6 29  1  0
  7 24  4  0
  7 26  4  0
  8 28  1  0
  9 13  2  0
 10 18  1  0
 10 21  4  0
 10 30  4  0
 11 17  2  0
 12 18  1  0
 13 15  1  0
 14 24  1  0
 15 25  1  0
 16 28  2  0
 17 20  1  0
 19 24  4  0
 20 23  1  0
 21 22  4  0
 22 23  4  0
 25 26  4  0
 27 29  2  0
M  END
$$$$

 Created by Python create_sdf_string function

 30 33  0  0  0  0  0  0  0  0999 V2000
    8.3036    9.8571   18.4133 C   0  0  0  0  0  0  0  0  0  0  0  0
    8.3694    7.6612   22.6703 C   0  0  0  0  0  0  0  0  0  0  0  0
    8.4143    6.6863   16.2273 C   0  0  0  0  0  0  0  0  0  0  0  0
   10.7581    6.5674   21.7636 C   0  0  0  0  0  0  0  0  0  0  0  0
    8.4452    8.7960   19.2958 O   0  0  0  0  0  0  0  0  0  0  0  0
    8.7122    6.7842   24.8569 C   0  0  0  0  0  0  0  0  0  0  0  0
   10.3400    6.1726   14.3081 C   0  0  0  0  0  0  0  0  0  0  0  0
    7.4297    7.5873   24.8962 C   0  0  0  0  0  0  0  0  0  0  0  0
    8.1566   10.0536   16.0516 O   0  0  0  0  0  0  0  0  0  0  0  0
   12.4989    6.2074   20.1776 C   0  0  0  0  0  0  0  0  0  0  0  0
    6.9192    9.1053   20.9073 O   0  0  0  0  0  0  0  0  0  0  0  0
   14.3979    6.0729   18.7784 C   0  0  0  0  0  0  0  0  0  0  0  0
    8.6811    9.5354   16.9998 C   0  0  0  0  0  0  0  0  0  0  0  0
    9.2512    4.2713   13.7653 O   0  0  0  0  0  0  0  0  0  0  0  0
    9.6495    8.6317   16.8332 N   0  0  0  0  0  0  0  0  0  0  0  0
    6.2934    8.6988   23.1988 O   0  0  0  0  0  0  0  0  0  0  0  0
    7.9806    8.6543   20.5437 C   0  0  0  0  0  0  0  0  0  0  0  0
   13.7270    5.7144   19.8610 O   0  0  0  0  0  0  0  0  0  0  0  0
    8.3351    5.5235   15.4478 C   0  0  0  0  0  0  0  0  0  0  0  0
    8.7700    7.8434   21.3915 C   0  0  0  0  0  0  0  0  0  0  0  0
   11.7856    6.8851   19.2401 C   0  0  0  0  0  0  0  0  0  0  0  0
   10.5281    7.4276   19.5649 C   0  0  0  0  0  0  0  0  0  0  0  0
   10.0256    7.2907   20.8484 C   0  0  0  0  0  0  0  0  0  0  0  0
    9.3113    5.3049   14.4911 C   0  0  0  0  0  0  0  0  0  0  0  0
    9.4607    7.5646   16.0139 C   0  0  0  0  0  0  0  0  0  0  0  0
   10.4192    7.3157   15.0955 C   0  0  0  0  0  0  0  0  0  0  0  0
   10.2489    6.4227   23.0218 N   0  0  0  0  0  0  0  0  0  0  0  0
    7.2472    8.0746   23.5050 C   0  0  0  0  0  0  0  0  0  0  0  0
    9.2051    6.9101   23.4604 C   0  0  0  0  0  0  0  0  0  0  0  0
   11.9646    6.0299   21.4251 C   0  0  0  0  0  0  0  0  0  0  0  0
  1  5  1  0
  1 13  1  0
  2 20  2  0
  2 28  1  0
  2 29  1  0
  3 19  4  0
  3 25  4  0
  4 23  4  0
  4 27  1  0
  4 30  4  0
  5 17  1  0
  6  8  1  0
  6 29  1  0
  7 24  4  0
  7 26  4  0
  8 28  1  0
  9 13  2  0
 10 18  1  0
 10 21  4  0
 10 30  4  0
 11 17  2  0
 12 18  1  0
 13 15  1  0
 14 24  1  0
 15 25  1  0
 16 28  2  0
 17 20  1  0
 19 24  4  0
 20 23  1  0
 21 22  4  0
 22 23  4  0
 25 26  4  0
 27 29  2  0
M  END
$$$$

 Created by Python create_sdf_string function

 30 33  0  0  0  0  0  0  0  0999 V2000
    8.3036    9.8571   18.4133 C   0  0  0  0  0  0  0  0  0  0  0  0
    8.3694    7.6612   22.6703 C   0  0  0  0  0  0  0  0  0  0  0  0
    8.4143    6.6863   16.2273 C   0  0  0  0  0  0  0  0  0  0  0  0
   10.7581    6.5674   21.7636 C   0  0  0  0  0  0  0  0  0  0  0  0
    8.4452    8.7960   19.2958 O   0  0  0  0  0  0  0  0  0  0  0  0
    8.7122    6.7842   24.8569 C   0  0  0  0  0  0  0  0  0  0  0  0
   10.3400    6.1726   14.3081 C   0  0  0  0  0  0  0  0  0  0  0  0
    7.4297    7.5873   24.8962 C   0  0  0  0  0  0  0  0  0  0  0  0
    8.1566   10.0536   16.0516 O   0  0  0  0  0  0  0  0  0  0  0  0
   12.4989    6.2074   20.1776 C   0  0  0  0  0  0  0  0  0  0  0  0
    6.9192    9.1053   20.9073 O   0  0  0  0  0  0  0  0  0  0  0  0
   14.3979    6.0729   18.7784 C   0  0  0  0  0  0  0  0  0  0  0  0
    8.6811    9.5354   16.9998 C   0  0  0  0  0  0  0  0  0  0  0  0
    9.2512    4.2713   13.7653 O   0  0  0  0  0  0  0  0  0  0  0  0
    9.6495    8.6317   16.8332 N   0  0  0  0  0  0  0  0  0  0  0  0
    6.2934    8.6988   23.1988 O   0  0  0  0  0  0  0  0  0  0  0  0
    7.9806    8.6543   20.5437 C   0  0  0  0  0  0  0  0  0  0  0  0
   13.7270    5.7144   19.8610 O   0  0  0  0  0  0  0  0  0  0  0  0
    8.3351    5.5235   15.4478 C   0  0  0  0  0  0  0  0  0  0  0  0
    8.7700    7.8434   21.3915 C   0  0  0  0  0  0  0  0  0  0  0  0
   11.7856    6.8851   19.2401 C   0  0  0  0  0  0  0  0  0  0  0  0
   10.5281    7.4276   19.5649 C   0  0  0  0  0  0  0  0  0  0  0  0
   10.0256    7.2907   20.8484 C   0  0  0  0  0  0  0  0  0  0  0  0
    9.3113    5.3049   14.4911 C   0  0  0  0  0  0  0  0  0  0  0  0
    9.4607    7.5646   16.0139 C   0  0  0  0  0  0  0  0  0  0  0  0
   10.4192    7.3157   15.0955 C   0  0  0  0  0  0  0  0  0  0  0  0
   10.2489    6.4227   23.0218 N   0  0  0  0  0  0  0  0  0  0  0  0
    7.2472    8.0746   23.5050 C   0  0  0  0  0  0  0  0  0  0  0  0
    9.2051    6.9101   23.4604 C   0  0  0  0  0  0  0  0  0  0  0  0
   11.9646    6.0299   21.4251 C   0  0  0  0  0  0  0  0  0  0  0  0
  1  5  1  0
  1 13  1  0
  2 20  2  0
  2 28  1  0
  2 29  1  0
  3 19  4  0
  3 25  4  0
  4 23  4  0
  4 27  1  0
  4 30  4  0
  5 17  1  0
  6  8  1  0
  6 29  1  0
  7 24  4  0
  7 26  4  0
  8 28  1  0
  9 13  2  0
 10 18  1  0
 10 21  4  0
 10 30  4  0
 11 17  2  0
 12 18  1  0
 13 15  1  0
 14 24  1  0
 15 25  1  0
 16 28  2  0
 17 20  1  0
 19 24  4  0
 20 23  1  0
 21 22  4  0
 22 23  4  0
 25 26  4  0
 27 29  2  0
M  END
$$$$

 Created by Python create_sdf_string function

 30 33  0  0  0  0  0  0  0  0999 V2000
    8.3036    9.8571   18.4133 C   0  0  0  0  0  0  0  0  0  0  0  0
    8.3694    7.6612   22.6703 C   0  0  0  0  0  0  0  0  0  0  0  0
    8.4143    6.6863   16.2273 C   0  0  0  0  0  0  0  0  0  0  0  0
   10.7581    6.5674   21.7636 C   0  0  0  0  0  0  0  0  0  0  0  0
    8.4452    8.7960   19.2958 O   0  0  0  0  0  0  0  0  0  0  0  0
    8.7122    6.7842   24.8569 C   0  0  0  0  0  0  0  0  0  0  0  0
   10.3400    6.1726   14.3081 C   0  0  0  0  0  0  0  0  0  0  0  0
    7.4297    7.5873   24.8962 C   0  0  0  0  0  0  0  0  0  0  0  0
    8.1566   10.0536   16.0516 O   0  0  0  0  0  0  0  0  0  0  0  0
   12.4989    6.2074   20.1776 C   0  0  0  0  0  0  0  0  0  0  0  0
    6.9192    9.1053   20.9073 O   0  0  0  0  0  0  0  0  0  0  0  0
   14.3979    6.0729   18.7784 C   0  0  0  0  0  0  0  0  0  0  0  0
    8.6811    9.5354   16.9998 C   0  0  0  0  0  0  0  0  0  0  0  0
    9.2512    4.2713   13.7653 O   0  0  0  0  0  0  0  0  0  0  0  0
    9.6495    8.6317   16.8332 N   0  0  0  0  0  0  0  0  0  0  0  0
    6.2934    8.6988   23.1988 O   0  0  0  0  0  0  0  0  0  0  0  0
    7.9806    8.6543   20.5437 C   0  0  0  0  0  0  0  0  0  0  0  0
   13.7270    5.7144   19.8610 O   0  0  0  0  0  0  0  0  0  0  0  0
    8.3351    5.5235   15.4478 C   0  0  0  0  0  0  0  0  0  0  0  0
    8.7700    7.8434   21.3915 C   0  0  0  0  0  0  0  0  0  0  0  0
   11.7856    6.8851   19.2401 C   0  0  0  0  0  0  0  0  0  0  0  0
   10.5281    7.4276   19.5649 C   0  0  0  0  0  0  0  0  0  0  0  0
   10.0256    7.2907   20.8484 C   0  0  0  0  0  0  0  0  0  0  0  0
    9.3113    5.3049   14.4911 C   0  0  0  0  0  0  0  0  0  0  0  0
    9.4607    7.5646   16.0139 C   0  0  0  0  0  0  0  0  0  0  0  0
   10.4192    7.3157   15.0955 C   0  0  0  0  0  0  0  0  0  0  0  0
   10.2489    6.4227   23.0218 N   0  0  0  0  0  0  0  0  0  0  0  0
    7.2472    8.0746   23.5050 C   0  0  0  0  0  0  0  0  0  0  0  0
    9.2051    6.9101   23.4604 C   0  0  0  0  0  0  0  0  0  0  0  0
   11.9646    6.0299   21.4251 C   0  0  0  0  0  0  0  0  0  0  0  0
  1  5  1  0
  1 13  1  0
  2 20  2  0
  2 28  1  0
  2 29  1  0
  3 19  4  0
  3 25  4  0
  4 23  4  0
  4 27  1  0
  4 30  4  0
  5 17  1  0
  6  8  1  0
  6 29  1  0
  7 24  4  0
  7 26  4  0
  8 28  1  0
  9 13  2  0
 10 18  1  0
 10 21  4  0
 10 30  4  0
 11 17  2  0
 12 18  1  0
 13 15  1  0
 14 24  1  0
 15 25  1  0
 16 28  2  0
 17 20  1  0
 19 24  4  0
 20 23  1  0
 21 22  4  0
 22 23  4  0
 25 26  4  0
 27 29  2  0
M  END
$$$$

 Created by Python create_sdf_string function

 30 33  0  0  0  0  0  0  0  0999 V2000
    8.3036    9.8571   18.4133 C   0  0  0  0  0  0  0  0  0  0  0  0
    8.3694    7.6612   22.6703 C   0  0  0  0  0  0  0  0  0  0  0  0
    8.4143    6.6863   16.2273 C   0  0  0  0  0  0  0  0  0  0  0  0
   10.7581    6.5674   21.7636 C   0  0  0  0  0  0  0  0  0  0  0  0
    8.4452    8.7960   19.2958 O   0  0  0  0  0  0  0  0  0  0  0  0
    8.7122    6.7842   24.8569 C   0  0  0  0  0  0  0  0  0  0  0  0
   10.3400    6.1726   14.3081 C   0  0  0  0  0  0  0  0  0  0  0  0
    7.4297    7.5873   24.8962 C   0  0  0  0  0  0  0  0  0  0  0  0
    8.1566   10.0536   16.0516 O   0  0  0  0  0  0  0  0  0  0  0  0
   12.4989    6.2074   20.1776 C   0  0  0  0  0  0  0  0  0  0  0  0
    6.9192    9.1053   20.9073 O   0  0  0  0  0  0  0  0  0  0  0  0
   14.3979    6.0729   18.7784 C   0  0  0  0  0  0  0  0  0  0  0  0
    8.6811    9.5354   16.9998 C   0  0  0  0  0  0  0  0  0  0  0  0
    9.2512    4.2713   13.7653 O   0  0  0  0  0  0  0  0  0  0  0  0
    9.6495    8.6317   16.8332 N   0  0  0  0  0  0  0  0  0  0  0  0
    6.2934    8.6988   23.1988 O   0  0  0  0  0  0  0  0  0  0  0  0
    7.9806    8.6543   20.5437 C   0  0  0  0  0  0  0  0  0  0  0  0
   13.7270    5.7144   19.8610 O   0  0  0  0  0  0  0  0  0  0  0  0
    8.3351    5.5235   15.4478 C   0  0  0  0  0  0  0  0  0  0  0  0
    8.7700    7.8434   21.3915 C   0  0  0  0  0  0  0  0  0  0  0  0
   11.7856    6.8851   19.2401 C   0  0  0  0  0  0  0  0  0  0  0  0
   10.5281    7.4276   19.5649 C   0  0  0  0  0  0  0  0  0  0  0  0
   10.0256    7.2907   20.8484 C   0  0  0  0  0  0  0  0  0  0  0  0
    9.3113    5.3049   14.4911 C   0  0  0  0  0  0  0  0  0  0  0  0
    9.4607    7.5646   16.0139 C   0  0  0  0  0  0  0  0  0  0  0  0
   10.4192    7.3157   15.0955 C   0  0  0  0  0  0  0  0  0  0  0  0
   10.2489    6.4227   23.0218 N   0  0  0  0  0  0  0  0  0  0  0  0
    7.2472    8.0746   23.5050 C   0  0  0  0  0  0  0  0  0  0  0  0
    9.2051    6.9101   23.4604 C   0  0  0  0  0  0  0  0  0  0  0  0
   11.9646    6.0299   21.4251 C   0  0  0  0  0  0  0  0  0  0  0  0
  1  5  1  0
  1 13  1  0
  2 20  2  0
  2 28  1  0
  2 29  1  0
  3 19  4  0
  3 25  4  0
  4 23  4  0
  4 27  1  0
  4 30  4  0
  5 17  1  0
  6  8  1  0
  6 29  1  0
  7 24  4  0
  7 26  4  0
  8 28  1  0
  9 13  2  0
 10 18  1  0
 10 21  4  0
 10 30  4  0
 11 17  2  0
 12 18  1  0
 13 15  1  0
 14 24  1  0
 15 25  1  0
 16 28  2  0
 17 20  1  0
 19 24  4  0
 20 23  1  0
 21 22  4  0
 22 23  4  0
 25 26  4  0
 27 29  2  0
M  END
$$$$

 Created by Python create_sdf_string function

 30 33  0  0  0  0  0  0  0  0999 V2000
    8.3036    9.8571   18.4133 C   0  0  0  0  0  0  0  0  0  0  0  0
    8.3694    7.6612   22.6703 C   0  0  0  0  0  0  0  0  0  0  0  0
    8.4143    6.6863   16.2273 C   0  0  0  0  0  0  0  0  0  0  0  0
   10.7581    6.5674   21.7636 C   0  0  0  0  0  0  0  0  0  0  0  0
    8.4452    8.7960   19.2958 O   0  0  0  0  0  0  0  0  0  0  0  0
    8.7122    6.7842   24.8569 C   0  0  0  0  0  0  0  0  0  0  0  0
   10.3400    6.1726   14.3081 C   0  0  0  0  0  0  0  0  0  0  0  0
    7.4297    7.5873   24.8962 C   0  0  0  0  0  0  0  0  0  0  0  0
    8.1566   10.0536   16.0516 O   0  0  0  0  0  0  0  0  0  0  0  0
   12.4989    6.2074   20.1776 C   0  0  0  0  0  0  0  0  0  0  0  0
    6.9192    9.1053   20.9073 O   0  0  0  0  0  0  0  0  0  0  0  0
   14.3979    6.0729   18.7784 C   0  0  0  0  0  0  0  0  0  0  0  0
    8.6811    9.5354   16.9998 C   0  0  0  0  0  0  0  0  0  0  0  0
    9.2512    4.2713   13.7653 O   0  0  0  0  0  0  0  0  0  0  0  0
    9.6495    8.6317   16.8332 N   0  0  0  0  0  0  0  0  0  0  0  0
    6.2934    8.6988   23.1988 O   0  0  0  0  0  0  0  0  0  0  0  0
    7.9806    8.6543   20.5437 C   0  0  0  0  0  0  0  0  0  0  0  0
   13.7270    5.7144   19.8610 O   0  0  0  0  0  0  0  0  0  0  0  0
    8.3351    5.5235   15.4478 C   0  0  0  0  0  0  0  0  0  0  0  0
    8.7700    7.8434   21.3915 C   0  0  0  0  0  0  0  0  0  0  0  0
   11.7856    6.8851   19.2401 C   0  0  0  0  0  0  0  0  0  0  0  0
   10.5281    7.4276   19.5649 C   0  0  0  0  0  0  0  0  0  0  0  0
   10.0256    7.2907   20.8484 C   0  0  0  0  0  0  0  0  0  0  0  0
    9.3113    5.3049   14.4911 C   0  0  0  0  0  0  0  0  0  0  0  0
    9.4607    7.5646   16.0139 C   0  0  0  0  0  0  0  0  0  0  0  0
   10.4192    7.3157   15.0955 C   0  0  0  0  0  0  0  0  0  0  0  0
   10.2489    6.4227   23.0218 N   0  0  0  0  0  0  0  0  0  0  0  0
    7.2472    8.0746   23.5050 C   0  0  0  0  0  0  0  0  0  0  0  0
    9.2051    6.9101   23.4604 C   0  0  0  0  0  0  0  0  0  0  0  0
   11.9646    6.0299   21.4251 C   0  0  0  0  0  0  0  0  0  0  0  0
  1  5  1  0
  1 13  1  0
  2 20  2  0
  2 28  1  0
  2 29  1  0
  3 19  4  0
  3 25  4  0
  4 23  4  0
  4 27  1  0
  4 30  4  0
  5 17  1  0
  6  8  1  0
  6 29  1  0
  7 24  4  0
  7 26  4  0
  8 28  1  0
  9 13  2  0
 10 18  1  0
 10 21  4  0
 10 30  4  0
 11 17  2  0
 12 18  1  0
 13 15  1  0
 14 24  1  0
 15 25  1  0
 16 28  2  0
 17 20  1  0
 19 24  4  0
 20 23  1  0
 21 22  4  0
 22 23  4  0
 25 26  4  0
 27 29  2  0
M  END
$$$$

 Created by Python create_sdf_string function

 30 33  0  0  0  0  0  0  0  0999 V2000
    8.3036    9.8571   18.4133 C   0  0  0  0  0  0  0  0  0  0  0  0
    8.3694    7.6612   22.6703 C   0  0  0  0  0  0  0  0  0  0  0  0
    8.4143    6.6863   16.2273 C   0  0  0  0  0  0  0  0  0  0  0  0
   10.7581    6.5674   21.7636 C   0  0  0  0  0  0  0  0  0  0  0  0
    8.4452    8.7960   19.2958 O   0  0  0  0  0  0  0  0  0  0  0  0
    8.7122    6.7842   24.8569 C   0  0  0  0  0  0  0  0  0  0  0  0
   10.3400    6.1726   14.3081 C   0  0  0  0  0  0  0  0  0  0  0  0
    7.4297    7.5873   24.8962 C   0  0  0  0  0  0  0  0  0  0  0  0
    8.1566   10.0536   16.0516 O   0  0  0  0  0  0  0  0  0  0  0  0
   12.4989    6.2074   20.1776 C   0  0  0  0  0  0  0  0  0  0  0  0
    6.9192    9.1053   20.9073 O   0  0  0  0  0  0  0  0  0  0  0  0
   14.3979    6.0729   18.7784 C   0  0  0  0  0  0  0  0  0  0  0  0
    8.6811    9.5354   16.9998 C   0  0  0  0  0  0  0  0  0  0  0  0
    9.2512    4.2713   13.7653 O   0  0  0  0  0  0  0  0  0  0  0  0
    9.6495    8.6317   16.8332 N   0  0  0  0  0  0  0  0  0  0  0  0
    6.2934    8.6988   23.1988 O   0  0  0  0  0  0  0  0  0  0  0  0
    7.9806    8.6543   20.5437 C   0  0  0  0  0  0  0  0  0  0  0  0
   13.7270    5.7144   19.8610 O   0  0  0  0  0  0  0  0  0  0  0  0
    8.3351    5.5235   15.4478 C   0  0  0  0  0  0  0  0  0  0  0  0
    8.7700    7.8434   21.3915 C   0  0  0  0  0  0  0  0  0  0  0  0
   11.7856    6.8851   19.2401 C   0  0  0  0  0  0  0  0  0  0  0  0
   10.5281    7.4276   19.5649 C   0  0  0  0  0  0  0  0  0  0  0  0
   10.0256    7.2907   20.8484 C   0  0  0  0  0  0  0  0  0  0  0  0
    9.3113    5.3049   14.4911 C   0  0  0  0  0  0  0  0  0  0  0  0
    9.4607    7.5646   16.0139 C   0  0  0  0  0  0  0  0  0  0  0  0
   10.4192    7.3157   15.0955 C   0  0  0  0  0  0  0  0  0  0  0  0
   10.2489    6.4227   23.0218 N   0  0  0  0  0  0  0  0  0  0  0  0
    7.2472    8.0746   23.5050 C   0  0  0  0  0  0  0  0  0  0  0  0
    9.2051    6.9101   23.4604 C   0  0  0  0  0  0  0  0  0  0  0  0
   11.9646    6.0299   21.4251 C   0  0  0  0  0  0  0  0  0  0  0  0
  1  5  1  0
  1 13  1  0
  2 20  2  0
  2 28  1  0
  2 29  1  0
  3 19  4  0
  3 25  4  0
  4 23  4  0
  4 27  1  0
  4 30  4  0
  5 17  1  0
  6  8  1  0
  6 29  1  0
  7 24  4  0
  7 26  4  0
  8 28  1  0
  9 13  2  0
 10 18  1  0
 10 21  4  0
 10 30  4  0
 11 17  2  0
 12 18  1  0
 13 15  1  0
 14 24  1  0
 15 25  1  0
 16 28  2  0
 17 20  1  0
 19 24  4  0
 20 23  1  0
 21 22  4  0
 22 23  4  0
 25 26  4  0
 27 29  2  0
M  END
$$$$

 Created by Python create_sdf_string function

 30 33  0  0  0  0  0  0  0  0999 V2000
    8.3036    9.8571   18.4133 C   0  0  0  0  0  0  0  0  0  0  0  0
    8.3694    7.6612   22.6703 C   0  0  0  0  0  0  0  0  0  0  0  0
    8.4143    6.6863   16.2273 C   0  0  0  0  0  0  0  0  0  0  0  0
   10.7581    6.5674   21.7636 C   0  0  0  0  0  0  0  0  0  0  0  0
    8.4452    8.7960   19.2958 O   0  0  0  0  0  0  0  0  0  0  0  0
    8.7122    6.7842   24.8569 C   0  0  0  0  0  0  0  0  0  0  0  0
   10.3400    6.1726   14.3081 C   0  0  0  0  0  0  0  0  0  0  0  0
    7.4297    7.5873   24.8962 C   0  0  0  0  0  0  0  0  0  0  0  0
    8.1566   10.0536   16.0516 O   0  0  0  0  0  0  0  0  0  0  0  0
   12.4989    6.2074   20.1776 C   0  0  0  0  0  0  0  0  0  0  0  0
    6.9192    9.1053   20.9073 O   0  0  0  0  0  0  0  0  0  0  0  0
   14.3979    6.0729   18.7784 C   0  0  0  0  0  0  0  0  0  0  0  0
    8.6811    9.5354   16.9998 C   0  0  0  0  0  0  0  0  0  0  0  0
    9.2512    4.2713   13.7653 O   0  0  0  0  0  0  0  0  0  0  0  0
    9.6495    8.6317   16.8332 N   0  0  0  0  0  0  0  0  0  0  0  0
    6.2934    8.6988   23.1988 O   0  0  0  0  0  0  0  0  0  0  0  0
    7.9806    8.6543   20.5437 C   0  0  0  0  0  0  0  0  0  0  0  0
   13.7270    5.7144   19.8610 O   0  0  0  0  0  0  0  0  0  0  0  0
    8.3351    5.5235   15.4478 C   0  0  0  0  0  0  0  0  0  0  0  0
    8.7700    7.8434   21.3915 C   0  0  0  0  0  0  0  0  0  0  0  0
   11.7856    6.8851   19.2401 C   0  0  0  0  0  0  0  0  0  0  0  0
   10.5281    7.4276   19.5649 C   0  0  0  0  0  0  0  0  0  0  0  0
   10.0256    7.2907   20.8484 C   0  0  0  0  0  0  0  0  0  0  0  0
    9.3113    5.3049   14.4911 C   0  0  0  0  0  0  0  0  0  0  0  0
    9.4607    7.5646   16.0139 C   0  0  0  0  0  0  0  0  0  0  0  0
   10.4192    7.3157   15.0955 C   0  0  0  0  0  0  0  0  0  0  0  0
   10.2489    6.4227   23.0218 N   0  0  0  0  0  0  0  0  0  0  0  0
    7.2472    8.0746   23.5050 C   0  0  0  0  0  0  0  0  0  0  0  0
    9.2051    6.9101   23.4604 C   0  0  0  0  0  0  0  0  0  0  0  0
   11.9646    6.0299   21.4251 C   0  0  0  0  0  0  0  0  0  0  0  0
  1  5  1  0
  1 13  1  0
  2 20  2  0
  2 28  1  0
  2 29  1  0
  3 19  4  0
  3 25  4  0
  4 23  4  0
  4 27  1  0
  4 30  4  0
  5 17  1  0
  6  8  1  0
  6 29  1  0
  7 24  4  0
  7 26  4  0
  8 28  1  0
  9 13  2  0
 10 18  1  0
 10 21  4  0
 10 30  4  0
 11 17  2  0
 12 18  1  0
 13 15  1  0
 14 24  1  0
 15 25  1  0
 16 28  2  0
 17 20  1  0
 19 24  4  0
 20 23  1  0
 21 22  4  0
 22 23  4  0
 25 26  4  0
 27 29  2  0
M  END
$$$$

 Created by Python create_sdf_string function

 30 33  0  0  0  0  0  0  0  0999 V2000
    8.3036    9.8571   18.4133 C   0  0  0  0  0  0  0  0  0  0  0  0
    8.3694    7.6612   22.6703 C   0  0  0  0  0  0  0  0  0  0  0  0
    8.4143    6.6863   16.2273 C   0  0  0  0  0  0  0  0  0  0  0  0
   10.7581    6.5674   21.7636 C   0  0  0  0  0  0  0  0  0  0  0  0
    8.4452    8.7960   19.2958 O   0  0  0  0  0  0  0  0  0  0  0  0
    8.7122    6.7842   24.8569 C   0  0  0  0  0  0  0  0  0  0  0  0
   10.3400    6.1726   14.3081 C   0  0  0  0  0  0  0  0  0  0  0  0
    7.4297    7.5873   24.8962 C   0  0  0  0  0  0  0  0  0  0  0  0
    8.1566   10.0536   16.0516 O   0  0  0  0  0  0  0  0  0  0  0  0
   12.4989    6.2074   20.1776 C   0  0  0  0  0  0  0  0  0  0  0  0
    6.9192    9.1053   20.9073 O   0  0  0  0  0  0  0  0  0  0  0  0
   14.3979    6.0729   18.7784 C   0  0  0  0  0  0  0  0  0  0  0  0
    8.6811    9.5354   16.9998 C   0  0  0  0  0  0  0  0  0  0  0  0
    9.2512    4.2713   13.7653 O   0  0  0  0  0  0  0  0  0  0  0  0
    9.6495    8.6317   16.8332 N   0  0  0  0  0  0  0  0  0  0  0  0
    6.2934    8.6988   23.1988 O   0  0  0  0  0  0  0  0  0  0  0  0
    7.9806    8.6543   20.5437 C   0  0  0  0  0  0  0  0  0  0  0  0
   13.7270    5.7144   19.8610 O   0  0  0  0  0  0  0  0  0  0  0  0
    8.3351    5.5235   15.4478 C   0  0  0  0  0  0  0  0  0  0  0  0
    8.7700    7.8434   21.3915 C   0  0  0  0  0  0  0  0  0  0  0  0
   11.7856    6.8851   19.2401 C   0  0  0  0  0  0  0  0  0  0  0  0
   10.5281    7.4276   19.5649 C   0  0  0  0  0  0  0  0  0  0  0  0
   10.0256    7.2907   20.8484 C   0  0  0  0  0  0  0  0  0  0  0  0
    9.3113    5.3049   14.4911 C   0  0  0  0  0  0  0  0  0  0  0  0
    9.4607    7.5646   16.0139 C   0  0  0  0  0  0  0  0  0  0  0  0
   10.4192    7.3157   15.0955 C   0  0  0  0  0  0  0  0  0  0  0  0
   10.2489    6.4227   23.0218 N   0  0  0  0  0  0  0  0  0  0  0  0
    7.2472    8.0746   23.5050 C   0  0  0  0  0  0  0  0  0  0  0  0
    9.2051    6.9101   23.4604 C   0  0  0  0  0  0  0  0  0  0  0  0
   11.9646    6.0299   21.4251 C   0  0  0  0  0  0  0  0  0  0  0  0
  1  5  1  0
  1 13  1  0
  2 20  2  0
  2 28  1  0
  2 29  1  0
  3 19  4  0
  3 25  4  0
  4 23  4  0
  4 27  1  0
  4 30  4  0
  5 17  1  0
  6  8  1  0
  6 29  1  0
  7 24  4  0
  7 26  4  0
  8 28  1  0
  9 13  2  0
 10 18  1  0
 10 21  4  0
 10 30  4  0
 11 17  2  0
 12 18  1  0
 13 15  1  0
 14 24  1  0
 15 25  1  0
 16 28  2  0
 17 20  1  0
 19 24  4  0
 20 23  1  0
 21 22  4  0
 22 23  4  0
 25 26  4  0
 27 29  2  0
M  END
$$$$

 Created by Python create_sdf_string function

 30 33  0  0  0  0  0  0  0  0999 V2000
    8.3036    9.8571   18.4133 C   0  0  0  0  0  0  0  0  0  0  0  0
    8.3694    7.6612   22.6703 C   0  0  0  0  0  0  0  0  0  0  0  0
    8.4143    6.6863   16.2273 C   0  0  0  0  0  0  0  0  0  0  0  0
   10.7581    6.5674   21.7636 C   0  0  0  0  0  0  0  0  0  0  0  0
    8.4452    8.7960   19.2958 O   0  0  0  0  0  0  0  0  0  0  0  0
    8.7122    6.7842   24.8569 C   0  0  0  0  0  0  0  0  0  0  0  0
   10.3400    6.1726   14.3081 C   0  0  0  0  0  0  0  0  0  0  0  0
    7.4297    7.5873   24.8962 C   0  0  0  0  0  0  0  0  0  0  0  0
    8.1566   10.0536   16.0516 O   0  0  0  0  0  0  0  0  0  0  0  0
   12.4989    6.2074   20.1776 C   0  0  0  0  0  0  0  0  0  0  0  0
    6.9192    9.1053   20.9073 O   0  0  0  0  0  0  0  0  0  0  0  0
   14.3979    6.0729   18.7784 C   0  0  0  0  0  0  0  0  0  0  0  0
    8.6811    9.5354   16.9998 C   0  0  0  0  0  0  0  0  0  0  0  0
    9.2512    4.2713   13.7653 O   0  0  0  0  0  0  0  0  0  0  0  0
    9.6495    8.6317   16.8332 N   0  0  0  0  0  0  0  0  0  0  0  0
    6.2934    8.6988   23.1988 O   0  0  0  0  0  0  0  0  0  0  0  0
    7.9806    8.6543   20.5437 C   0  0  0  0  0  0  0  0  0  0  0  0
   13.7270    5.7144   19.8610 O   0  0  0  0  0  0  0  0  0  0  0  0
    8.3351    5.5235   15.4478 C   0  0  0  0  0  0  0  0  0  0  0  0
    8.7700    7.8434   21.3915 C   0  0  0  0  0  0  0  0  0  0  0  0
   11.7856    6.8851   19.2401 C   0  0  0  0  0  0  0  0  0  0  0  0
   10.5281    7.4276   19.5649 C   0  0  0  0  0  0  0  0  0  0  0  0
   10.0256    7.2907   20.8484 C   0  0  0  0  0  0  0  0  0  0  0  0
    9.3113    5.3049   14.4911 C   0  0  0  0  0  0  0  0  0  0  0  0
    9.4607    7.5646   16.0139 C   0  0  0  0  0  0  0  0  0  0  0  0
   10.4192    7.3157   15.0955 C   0  0  0  0  0  0  0  0  0  0  0  0
   10.2489    6.4227   23.0218 N   0  0  0  0  0  0  0  0  0  0  0  0
    7.2472    8.0746   23.5050 C   0  0  0  0  0  0  0  0  0  0  0  0
    9.2051    6.9101   23.4604 C   0  0  0  0  0  0  0  0  0  0  0  0
   11.9646    6.0299   21.4251 C   0  0  0  0  0  0  0  0  0  0  0  0
  1  5  1  0
  1 13  1  0
  2 20  2  0
  2 28  1  0
  2 29  1  0
  3 19  4  0
  3 25  4  0
  4 23  4  0
  4 27  1  0
  4 30  4  0
  5 17  1  0
  6  8  1  0
  6 29  1  0
  7 24  4  0
  7 26  4  0
  8 28  1  0
  9 13  2  0
 10 18  1  0
 10 21  4  0
 10 30  4  0
 11 17  2  0
 12 18  1  0
 13 15  1  0
 14 24  1  0
 15 25  1  0
 16 28  2  0
 17 20  1  0
 19 24  4  0
 20 23  1  0
 21 22  4  0
 22 23  4  0
 25 26  4  0
 27 29  2  0
M  END
$$$$

 Created by Python create_sdf_string function

 30 33  0  0  0  0  0  0  0  0999 V2000
    8.3036    9.8571   18.4133 C   0  0  0  0  0  0  0  0  0  0  0  0
    8.3694    7.6612   22.6703 C   0  0  0  0  0  0  0  0  0  0  0  0
    8.4143    6.6863   16.2273 C   0  0  0  0  0  0  0  0  0  0  0  0
   10.7581    6.5674   21.7636 C   0  0  0  0  0  0  0  0  0  0  0  0
    8.4452    8.7960   19.2958 O   0  0  0  0  0  0  0  0  0  0  0  0
    8.7122    6.7842   24.8569 C   0  0  0  0  0  0  0  0  0  0  0  0
   10.3400    6.1726   14.3081 C   0  0  0  0  0  0  0  0  0  0  0  0
    7.4297    7.5873   24.8962 C   0  0  0  0  0  0  0  0  0  0  0  0
    8.1566   10.0536   16.0516 O   0  0  0  0  0  0  0  0  0  0  0  0
   12.4989    6.2074   20.1776 C   0  0  0  0  0  0  0  0  0  0  0  0
    6.9192    9.1053   20.9073 O   0  0  0  0  0  0  0  0  0  0  0  0
   14.3979    6.0729   18.7784 C   0  0  0  0  0  0  0  0  0  0  0  0
    8.6811    9.5354   16.9998 C   0  0  0  0  0  0  0  0  0  0  0  0
    9.2512    4.2713   13.7653 O   0  0  0  0  0  0  0  0  0  0  0  0
    9.6495    8.6317   16.8332 N   0  0  0  0  0  0  0  0  0  0  0  0
    6.2934    8.6988   23.1988 O   0  0  0  0  0  0  0  0  0  0  0  0
    7.9806    8.6543   20.5437 C   0  0  0  0  0  0  0  0  0  0  0  0
   13.7270    5.7144   19.8610 O   0  0  0  0  0  0  0  0  0  0  0  0
    8.3351    5.5235   15.4478 C   0  0  0  0  0  0  0  0  0  0  0  0
    8.7700    7.8434   21.3915 C   0  0  0  0  0  0  0  0  0  0  0  0
   11.7856    6.8851   19.2401 C   0  0  0  0  0  0  0  0  0  0  0  0
   10.5281    7.4276   19.5649 C   0  0  0  0  0  0  0  0  0  0  0  0
   10.0256    7.2907   20.8484 C   0  0  0  0  0  0  0  0  0  0  0  0
    9.3113    5.3049   14.4911 C   0  0  0  0  0  0  0  0  0  0  0  0
    9.4607    7.5646   16.0139 C   0  0  0  0  0  0  0  0  0  0  0  0
   10.4192    7.3157   15.0955 C   0  0  0  0  0  0  0  0  0  0  0  0
   10.2489    6.4227   23.0218 N   0  0  0  0  0  0  0  0  0  0  0  0
    7.2472    8.0746   23.5050 C   0  0  0  0  0  0  0  0  0  0  0  0
    9.2051    6.9101   23.4604 C   0  0  0  0  0  0  0  0  0  0  0  0
   11.9646    6.0299   21.4251 C   0  0  0  0  0  0  0  0  0  0  0  0
  1  5  1  0
  1 13  1  0
  2 20  2  0
  2 28  1  0
  2 29  1  0
  3 19  4  0
  3 25  4  0
  4 23  4  0
  4 27  1  0
  4 30  4  0
  5 17  1  0
  6  8  1  0
  6 29  1  0
  7 24  4  0
  7 26  4  0
  8 28  1  0
  9 13  2  0
 10 18  1  0
 10 21  4  0
 10 30  4  0
 11 17  2  0
 12 18  1  0
 13 15  1  0
 14 24  1  0
 15 25  1  0
 16 28  2  0
 17 20  1  0
 19 24  4  0
 20 23  1  0
 21 22  4  0
 22 23  4  0
 25 26  4  0
 27 29  2  0
M  END
$$$$

 Created by Python create_sdf_string function

 30 33  0  0  0  0  0  0  0  0999 V2000
    8.3036    9.8571   18.4133 C   0  0  0  0  0  0  0  0  0  0  0  0
    8.3694    7.6612   22.6703 C   0  0  0  0  0  0  0  0  0  0  0  0
    8.4143    6.6863   16.2273 C   0  0  0  0  0  0  0  0  0  0  0  0
   10.7581    6.5674   21.7636 C   0  0  0  0  0  0  0  0  0  0  0  0
    8.4452    8.7960   19.2958 O   0  0  0  0  0  0  0  0  0  0  0  0
    8.7122    6.7842   24.8569 C   0  0  0  0  0  0  0  0  0  0  0  0
   10.3400    6.1726   14.3081 C   0  0  0  0  0  0  0  0  0  0  0  0
    7.4297    7.5873   24.8962 C   0  0  0  0  0  0  0  0  0  0  0  0
    8.1566   10.0536   16.0516 O   0  0  0  0  0  0  0  0  0  0  0  0
   12.4989    6.2074   20.1776 C   0  0  0  0  0  0  0  0  0  0  0  0
    6.9192    9.1053   20.9073 O   0  0  0  0  0  0  0  0  0  0  0  0
   14.3979    6.0729   18.7784 C   0  0  0  0  0  0  0  0  0  0  0  0
    8.6811    9.5354   16.9998 C   0  0  0  0  0  0  0  0  0  0  0  0
    9.2512    4.2713   13.7653 O   0  0  0  0  0  0  0  0  0  0  0  0
    9.6495    8.6317   16.8332 N   0  0  0  0  0  0  0  0  0  0  0  0
    6.2934    8.6988   23.1988 O   0  0  0  0  0  0  0  0  0  0  0  0
    7.9806    8.6543   20.5437 C   0  0  0  0  0  0  0  0  0  0  0  0
   13.7270    5.7144   19.8610 O   0  0  0  0  0  0  0  0  0  0  0  0
    8.3351    5.5235   15.4478 C   0  0  0  0  0  0  0  0  0  0  0  0
    8.7700    7.8434   21.3915 C   0  0  0  0  0  0  0  0  0  0  0  0
   11.7856    6.8851   19.2401 C   0  0  0  0  0  0  0  0  0  0  0  0
   10.5281    7.4276   19.5649 C   0  0  0  0  0  0  0  0  0  0  0  0
   10.0256    7.2907   20.8484 C   0  0  0  0  0  0  0  0  0  0  0  0
    9.3113    5.3049   14.4911 C   0  0  0  0  0  0  0  0  0  0  0  0
    9.4607    7.5646   16.0139 C   0  0  0  0  0  0  0  0  0  0  0  0
   10.4192    7.3157   15.0955 C   0  0  0  0  0  0  0  0  0  0  0  0
   10.2489    6.4227   23.0218 N   0  0  0  0  0  0  0  0  0  0  0  0
    7.2472    8.0746   23.5050 C   0  0  0  0  0  0  0  0  0  0  0  0
    9.2051    6.9101   23.4604 C   0  0  0  0  0  0  0  0  0  0  0  0
   11.9646    6.0299   21.4251 C   0  0  0  0  0  0  0  0  0  0  0  0
  1  5  1  0
  1 13  1  0
  2 20  2  0
  2 28  1  0
  2 29  1  0
  3 19  4  0
  3 25  4  0
  4 23  4  0
  4 27  1  0
  4 30  4  0
  5 17  1  0
  6  8  1  0
  6 29  1  0
  7 24  4  0
  7 26  4  0
  8 28  1  0
  9 13  2  0
 10 18  1  0
 10 21  4  0
 10 30  4  0
 11 17  2  0
 12 18  1  0
 13 15  1  0
 14 24  1  0
 15 25  1  0
 16 28  2  0
 17 20  1  0
 19 24  4  0
 20 23  1  0
 21 22  4  0
 22 23  4  0
 25 26  4  0
 27 29  2  0
M  END
$$$$

 Created by Python create_sdf_string function

 30 33  0  0  0  0  0  0  0  0999 V2000
    8.3036    9.8571   18.4133 C   0  0  0  0  0  0  0  0  0  0  0  0
    8.3694    7.6612   22.6703 C   0  0  0  0  0  0  0  0  0  0  0  0
    8.4143    6.6863   16.2273 C   0  0  0  0  0  0  0  0  0  0  0  0
   10.7581    6.5674   21.7636 C   0  0  0  0  0  0  0  0  0  0  0  0
    8.4452    8.7960   19.2958 O   0  0  0  0  0  0  0  0  0  0  0  0
    8.7122    6.7842   24.8569 C   0  0  0  0  0  0  0  0  0  0  0  0
   10.3400    6.1726   14.3081 C   0  0  0  0  0  0  0  0  0  0  0  0
    7.4297    7.5873   24.8962 C   0  0  0  0  0  0  0  0  0  0  0  0
    8.1566   10.0536   16.0516 O   0  0  0  0  0  0  0  0  0  0  0  0
   12.4989    6.2074   20.1776 C   0  0  0  0  0  0  0  0  0  0  0  0
    6.9192    9.1053   20.9073 O   0  0  0  0  0  0  0  0  0  0  0  0
   14.3979    6.0729   18.7784 C   0  0  0  0  0  0  0  0  0  0  0  0
    8.6811    9.5354   16.9998 C   0  0  0  0  0  0  0  0  0  0  0  0
    9.2512    4.2713   13.7653 O   0  0  0  0  0  0  0  0  0  0  0  0
    9.6495    8.6317   16.8332 N   0  0  0  0  0  0  0  0  0  0  0  0
    6.2934    8.6988   23.1988 O   0  0  0  0  0  0  0  0  0  0  0  0
    7.9806    8.6543   20.5437 C   0  0  0  0  0  0  0  0  0  0  0  0
   13.7270    5.7144   19.8610 O   0  0  0  0  0  0  0  0  0  0  0  0
    8.3351    5.5235   15.4478 C   0  0  0  0  0  0  0  0  0  0  0  0
    8.7700    7.8434   21.3915 C   0  0  0  0  0  0  0  0  0  0  0  0
   11.7856    6.8851   19.2401 C   0  0  0  0  0  0  0  0  0  0  0  0
   10.5281    7.4276   19.5649 C   0  0  0  0  0  0  0  0  0  0  0  0
   10.0256    7.2907   20.8484 C   0  0  0  0  0  0  0  0  0  0  0  0
    9.3113    5.3049   14.4911 C   0  0  0  0  0  0  0  0  0  0  0  0
    9.4607    7.5646   16.0139 C   0  0  0  0  0  0  0  0  0  0  0  0
   10.4192    7.3157   15.0955 C   0  0  0  0  0  0  0  0  0  0  0  0
   10.2489    6.4227   23.0218 N   0  0  0  0  0  0  0  0  0  0  0  0
    7.2472    8.0746   23.5050 C   0  0  0  0  0  0  0  0  0  0  0  0
    9.2051    6.9101   23.4604 C   0  0  0  0  0  0  0  0  0  0  0  0
   11.9646    6.0299   21.4251 C   0  0  0  0  0  0  0  0  0  0  0  0
  1  5  1  0
  1 13  1  0
  2 20  2  0
  2 28  1  0
  2 29  1  0
  3 19  4  0
  3 25  4  0
  4 23  4  0
  4 27  1  0
  4 30  4  0
  5 17  1  0
  6  8  1  0
  6 29  1  0
  7 24  4  0
  7 26  4  0
  8 28  1  0
  9 13  2  0
 10 18  1  0
 10 21  4  0
 10 30  4  0
 11 17  2  0
 12 18  1  0
 13 15  1  0
 14 24  1  0
 15 25  1  0
 16 28  2  0
 17 20  1  0
 19 24  4  0
 20 23  1  0
 21 22  4  0
 22 23  4  0
 25 26  4  0
 27 29  2  0
M  END
$$$$

 Created by Python create_sdf_string function

 30 33  0  0  0  0  0  0  0  0999 V2000
    8.3036    9.8571   18.4133 C   0  0  0  0  0  0  0  0  0  0  0  0
    8.3694    7.6612   22.6703 C   0  0  0  0  0  0  0  0  0  0  0  0
    8.4143    6.6863   16.2273 C   0  0  0  0  0  0  0  0  0  0  0  0
   10.7581    6.5674   21.7636 C   0  0  0  0  0  0  0  0  0  0  0  0
    8.4452    8.7960   19.2958 O   0  0  0  0  0  0  0  0  0  0  0  0
    8.7122    6.7842   24.8569 C   0  0  0  0  0  0  0  0  0  0  0  0
   10.3400    6.1726   14.3081 C   0  0  0  0  0  0  0  0  0  0  0  0
    7.4297    7.5873   24.8962 C   0  0  0  0  0  0  0  0  0  0  0  0
    8.1566   10.0536   16.0516 O   0  0  0  0  0  0  0  0  0  0  0  0
   12.4989    6.2074   20.1776 C   0  0  0  0  0  0  0  0  0  0  0  0
    6.9192    9.1053   20.9073 O   0  0  0  0  0  0  0  0  0  0  0  0
   14.3979    6.0729   18.7784 C   0  0  0  0  0  0  0  0  0  0  0  0
    8.6811    9.5354   16.9998 C   0  0  0  0  0  0  0  0  0  0  0  0
    9.2512    4.2713   13.7653 O   0  0  0  0  0  0  0  0  0  0  0  0
    9.6495    8.6317   16.8332 N   0  0  0  0  0  0  0  0  0  0  0  0
    6.2934    8.6988   23.1988 O   0  0  0  0  0  0  0  0  0  0  0  0
    7.9806    8.6543   20.5437 C   0  0  0  0  0  0  0  0  0  0  0  0
   13.7270    5.7144   19.8610 O   0  0  0  0  0  0  0  0  0  0  0  0
    8.3351    5.5235   15.4478 C   0  0  0  0  0  0  0  0  0  0  0  0
    8.7700    7.8434   21.3915 C   0  0  0  0  0  0  0  0  0  0  0  0
   11.7856    6.8851   19.2401 C   0  0  0  0  0  0  0  0  0  0  0  0
   10.5281    7.4276   19.5649 C   0  0  0  0  0  0  0  0  0  0  0  0
   10.0256    7.2907   20.8484 C   0  0  0  0  0  0  0  0  0  0  0  0
    9.3113    5.3049   14.4911 C   0  0  0  0  0  0  0  0  0  0  0  0
    9.4607    7.5646   16.0139 C   0  0  0  0  0  0  0  0  0  0  0  0
   10.4192    7.3157   15.0955 C   0  0  0  0  0  0  0  0  0  0  0  0
   10.2489    6.4227   23.0218 N   0  0  0  0  0  0  0  0  0  0  0  0
    7.2472    8.0746   23.5050 C   0  0  0  0  0  0  0  0  0  0  0  0
    9.2051    6.9101   23.4604 C   0  0  0  0  0  0  0  0  0  0  0  0
   11.9646    6.0299   21.4251 C   0  0  0  0  0  0  0  0  0  0  0  0
  1  5  1  0
  1 13  1  0
  2 20  2  0
  2 28  1  0
  2 29  1  0
  3 19  4  0
  3 25  4  0
  4 23  4  0
  4 27  1  0
  4 30  4  0
  5 17  1  0
  6  8  1  0
  6 29  1  0
  7 24  4  0
  7 26  4  0
  8 28  1  0
  9 13  2  0
 10 18  1  0
 10 21  4  0
 10 30  4  0
 11 17  2  0
 12 18  1  0
 13 15  1  0
 14 24  1  0
 15 25  1  0
 16 28  2  0
 17 20  1  0
 19 24  4  0
 20 23  1  0
 21 22  4  0
 22 23  4  0
 25 26  4  0
 27 29  2  0
M  END
$$$$

 Created by Python create_sdf_string function

 30 33  0  0  0  0  0  0  0  0999 V2000
    8.3036    9.8571   18.4133 C   0  0  0  0  0  0  0  0  0  0  0  0
    8.3694    7.6612   22.6703 C   0  0  0  0  0  0  0  0  0  0  0  0
    8.4143    6.6863   16.2273 C   0  0  0  0  0  0  0  0  0  0  0  0
   10.7581    6.5674   21.7636 C   0  0  0  0  0  0  0  0  0  0  0  0
    8.4452    8.7960   19.2958 O   0  0  0  0  0  0  0  0  0  0  0  0
    8.7122    6.7842   24.8569 C   0  0  0  0  0  0  0  0  0  0  0  0
   10.3400    6.1726   14.3081 C   0  0  0  0  0  0  0  0  0  0  0  0
    7.4297    7.5873   24.8962 C   0  0  0  0  0  0  0  0  0  0  0  0
    8.1566   10.0536   16.0516 O   0  0  0  0  0  0  0  0  0  0  0  0
   12.4989    6.2074   20.1776 C   0  0  0  0  0  0  0  0  0  0  0  0
    6.9192    9.1053   20.9073 O   0  0  0  0  0  0  0  0  0  0  0  0
   14.3979    6.0729   18.7784 C   0  0  0  0  0  0  0  0  0  0  0  0
    8.6811    9.5354   16.9998 C   0  0  0  0  0  0  0  0  0  0  0  0
    9.2512    4.2713   13.7653 O   0  0  0  0  0  0  0  0  0  0  0  0
    9.6495    8.6317   16.8332 N   0  0  0  0  0  0  0  0  0  0  0  0
    6.2934    8.6988   23.1988 O   0  0  0  0  0  0  0  0  0  0  0  0
    7.9806    8.6543   20.5437 C   0  0  0  0  0  0  0  0  0  0  0  0
   13.7270    5.7144   19.8610 O   0  0  0  0  0  0  0  0  0  0  0  0
    8.3351    5.5235   15.4478 C   0  0  0  0  0  0  0  0  0  0  0  0
    8.7700    7.8434   21.3915 C   0  0  0  0  0  0  0  0  0  0  0  0
   11.7856    6.8851   19.2401 C   0  0  0  0  0  0  0  0  0  0  0  0
   10.5281    7.4276   19.5649 C   0  0  0  0  0  0  0  0  0  0  0  0
   10.0256    7.2907   20.8484 C   0  0  0  0  0  0  0  0  0  0  0  0
    9.3113    5.3049   14.4911 C   0  0  0  0  0  0  0  0  0  0  0  0
    9.4607    7.5646   16.0139 C   0  0  0  0  0  0  0  0  0  0  0  0
   10.4192    7.3157   15.0955 C   0  0  0  0  0  0  0  0  0  0  0  0
   10.2489    6.4227   23.0218 N   0  0  0  0  0  0  0  0  0  0  0  0
    7.2472    8.0746   23.5050 C   0  0  0  0  0  0  0  0  0  0  0  0
    9.2051    6.9101   23.4604 C   0  0  0  0  0  0  0  0  0  0  0  0
   11.9646    6.0299   21.4251 C   0  0  0  0  0  0  0  0  0  0  0  0
  1  5  1  0
  1 13  1  0
  2 20  2  0
  2 28  1  0
  2 29  1  0
  3 19  4  0
  3 25  4  0
  4 23  4  0
  4 27  1  0
  4 30  4  0
  5 17  1  0
  6  8  1  0
  6 29  1  0
  7 24  4  0
  7 26  4  0
  8 28  1  0
  9 13  2  0
 10 18  1  0
 10 21  4  0
 10 30  4  0
 11 17  2  0
 12 18  1  0
 13 15  1  0
 14 24  1  0
 15 25  1  0
 16 28  2  0
 17 20  1  0
 19 24  4  0
 20 23  1  0
 21 22  4  0
 22 23  4  0
 25 26  4  0
 27 29  2  0
M  END
$$$$

 Created by Python create_sdf_string function

 30 33  0  0  0  0  0  0  0  0999 V2000
    8.3036    9.8571   18.4133 C   0  0  0  0  0  0  0  0  0  0  0  0
    8.3694    7.6612   22.6703 C   0  0  0  0  0  0  0  0  0  0  0  0
    8.4143    6.6863   16.2273 C   0  0  0  0  0  0  0  0  0  0  0  0
   10.7581    6.5674   21.7636 C   0  0  0  0  0  0  0  0  0  0  0  0
    8.4452    8.7960   19.2958 O   0  0  0  0  0  0  0  0  0  0  0  0
    8.7122    6.7842   24.8569 C   0  0  0  0  0  0  0  0  0  0  0  0
   10.3400    6.1726   14.3081 C   0  0  0  0  0  0  0  0  0  0  0  0
    7.4297    7.5873   24.8962 C   0  0  0  0  0  0  0  0  0  0  0  0
    8.1566   10.0536   16.0516 O   0  0  0  0  0  0  0  0  0  0  0  0
   12.4989    6.2074   20.1776 C   0  0  0  0  0  0  0  0  0  0  0  0
    6.9192    9.1053   20.9073 O   0  0  0  0  0  0  0  0  0  0  0  0
   14.3979    6.0729   18.7784 C   0  0  0  0  0  0  0  0  0  0  0  0
    8.6811    9.5354   16.9998 C   0  0  0  0  0  0  0  0  0  0  0  0
    9.2512    4.2713   13.7653 O   0  0  0  0  0  0  0  0  0  0  0  0
    9.6495    8.6317   16.8332 N   0  0  0  0  0  0  0  0  0  0  0  0
    6.2934    8.6988   23.1988 O   0  0  0  0  0  0  0  0  0  0  0  0
    7.9806    8.6543   20.5437 C   0  0  0  0  0  0  0  0  0  0  0  0
   13.7270    5.7144   19.8610 O   0  0  0  0  0  0  0  0  0  0  0  0
    8.3351    5.5235   15.4478 C   0  0  0  0  0  0  0  0  0  0  0  0
    8.7700    7.8434   21.3915 C   0  0  0  0  0  0  0  0  0  0  0  0
   11.7856    6.8851   19.2401 C   0  0  0  0  0  0  0  0  0  0  0  0
   10.5281    7.4276   19.5649 C   0  0  0  0  0  0  0  0  0  0  0  0
   10.0256    7.2907   20.8484 C   0  0  0  0  0  0  0  0  0  0  0  0
    9.3113    5.3049   14.4911 C   0  0  0  0  0  0  0  0  0  0  0  0
    9.4607    7.5646   16.0139 C   0  0  0  0  0  0  0  0  0  0  0  0
   10.4192    7.3157   15.0955 C   0  0  0  0  0  0  0  0  0  0  0  0
   10.2489    6.4227   23.0218 N   0  0  0  0  0  0  0  0  0  0  0  0
    7.2472    8.0746   23.5050 C   0  0  0  0  0  0  0  0  0  0  0  0
    9.2051    6.9101   23.4604 C   0  0  0  0  0  0  0  0  0  0  0  0
   11.9646    6.0299   21.4251 C   0  0  0  0  0  0  0  0  0  0  0  0
  1  5  1  0
  1 13  1  0
  2 20  2  0
  2 28  1  0
  2 29  1  0
  3 19  4  0
  3 25  4  0
  4 23  4  0
  4 27  1  0
  4 30  4  0
  5 17  1  0
  6  8  1  0
  6 29  1  0
  7 24  4  0
  7 26  4  0
  8 28  1  0
  9 13  2  0
 10 18  1  0
 10 21  4  0
 10 30  4  0
 11 17  2  0
 12 18  1  0
 13 15  1  0
 14 24  1  0
 15 25  1  0
 16 28  2  0
 17 20  1  0
 19 24  4  0
 20 23  1  0
 21 22  4  0
 22 23  4  0
 25 26  4  0
 27 29  2  0
M  END
$$$$

 Created by Python create_sdf_string function

 30 33  0  0  0  0  0  0  0  0999 V2000
    8.3036    9.8571   18.4133 C   0  0  0  0  0  0  0  0  0  0  0  0
    8.3694    7.6612   22.6703 C   0  0  0  0  0  0  0  0  0  0  0  0
    8.4143    6.6863   16.2273 C   0  0  0  0  0  0  0  0  0  0  0  0
   10.7581    6.5674   21.7636 C   0  0  0  0  0  0  0  0  0  0  0  0
    8.4452    8.7960   19.2958 O   0  0  0  0  0  0  0  0  0  0  0  0
    8.7122    6.7842   24.8569 C   0  0  0  0  0  0  0  0  0  0  0  0
   10.3400    6.1726   14.3081 C   0  0  0  0  0  0  0  0  0  0  0  0
    7.4297    7.5873   24.8962 C   0  0  0  0  0  0  0  0  0  0  0  0
    8.1566   10.0536   16.0516 O   0  0  0  0  0  0  0  0  0  0  0  0
   12.4989    6.2074   20.1776 C   0  0  0  0  0  0  0  0  0  0  0  0
    6.9192    9.1053   20.9073 O   0  0  0  0  0  0  0  0  0  0  0  0
   14.3979    6.0729   18.7784 C   0  0  0  0  0  0  0  0  0  0  0  0
    8.6811    9.5354   16.9998 C   0  0  0  0  0  0  0  0  0  0  0  0
    9.2512    4.2713   13.7653 O   0  0  0  0  0  0  0  0  0  0  0  0
    9.6495    8.6317   16.8332 N   0  0  0  0  0  0  0  0  0  0  0  0
    6.2934    8.6988   23.1988 O   0  0  0  0  0  0  0  0  0  0  0  0
    7.9806    8.6543   20.5437 C   0  0  0  0  0  0  0  0  0  0  0  0
   13.7270    5.7144   19.8610 O   0  0  0  0  0  0  0  0  0  0  0  0
    8.3351    5.5235   15.4478 C   0  0  0  0  0  0  0  0  0  0  0  0
    8.7700    7.8434   21.3915 C   0  0  0  0  0  0  0  0  0  0  0  0
   11.7856    6.8851   19.2401 C   0  0  0  0  0  0  0  0  0  0  0  0
   10.5281    7.4276   19.5649 C   0  0  0  0  0  0  0  0  0  0  0  0
   10.0256    7.2907   20.8484 C   0  0  0  0  0  0  0  0  0  0  0  0
    9.3113    5.3049   14.4911 C   0  0  0  0  0  0  0  0  0  0  0  0
    9.4607    7.5646   16.0139 C   0  0  0  0  0  0  0  0  0  0  0  0
   10.4192    7.3157   15.0955 C   0  0  0  0  0  0  0  0  0  0  0  0
   10.2489    6.4227   23.0218 N   0  0  0  0  0  0  0  0  0  0  0  0
    7.2472    8.0746   23.5050 C   0  0  0  0  0  0  0  0  0  0  0  0
    9.2051    6.9101   23.4604 C   0  0  0  0  0  0  0  0  0  0  0  0
   11.9646    6.0299   21.4251 C   0  0  0  0  0  0  0  0  0  0  0  0
  1  5  1  0
  1 13  1  0
  2 20  2  0
  2 28  1  0
  2 29  1  0
  3 19  4  0
  3 25  4  0
  4 23  4  0
  4 27  1  0
  4 30  4  0
  5 17  1  0
  6  8  1  0
  6 29  1  0
  7 24  4  0
  7 26  4  0
  8 28  1  0
  9 13  2  0
 10 18  1  0
 10 21  4  0
 10 30  4  0
 11 17  2  0
 12 18  1  0
 13 15  1  0
 14 24  1  0
 15 25  1  0
 16 28  2  0
 17 20  1  0
 19 24  4  0
 20 23  1  0
 21 22  4  0
 22 23  4  0
 25 26  4  0
 27 29  2  0
M  END
$$$$

 Created by Python create_sdf_string function

 30 33  0  0  0  0  0  0  0  0999 V2000
    8.3036    9.8571   18.4133 C   0  0  0  0  0  0  0  0  0  0  0  0
    8.3694    7.6612   22.6703 C   0  0  0  0  0  0  0  0  0  0  0  0
    8.4143    6.6863   16.2273 C   0  0  0  0  0  0  0  0  0  0  0  0
   10.7581    6.5674   21.7636 C   0  0  0  0  0  0  0  0  0  0  0  0
    8.4452    8.7960   19.2958 O   0  0  0  0  0  0  0  0  0  0  0  0
    8.7122    6.7842   24.8569 C   0  0  0  0  0  0  0  0  0  0  0  0
   10.3400    6.1726   14.3081 C   0  0  0  0  0  0  0  0  0  0  0  0
    7.4297    7.5873   24.8962 C   0  0  0  0  0  0  0  0  0  0  0  0
    8.1566   10.0536   16.0516 O   0  0  0  0  0  0  0  0  0  0  0  0
   12.4989    6.2074   20.1776 C   0  0  0  0  0  0  0  0  0  0  0  0
    6.9192    9.1053   20.9073 O   0  0  0  0  0  0  0  0  0  0  0  0
   14.3979    6.0729   18.7784 C   0  0  0  0  0  0  0  0  0  0  0  0
    8.6811    9.5354   16.9998 C   0  0  0  0  0  0  0  0  0  0  0  0
    9.2512    4.2713   13.7653 O   0  0  0  0  0  0  0  0  0  0  0  0
    9.6495    8.6317   16.8332 N   0  0  0  0  0  0  0  0  0  0  0  0
    6.2934    8.6988   23.1988 O   0  0  0  0  0  0  0  0  0  0  0  0
    7.9806    8.6543   20.5437 C   0  0  0  0  0  0  0  0  0  0  0  0
   13.7270    5.7144   19.8610 O   0  0  0  0  0  0  0  0  0  0  0  0
    8.3351    5.5235   15.4478 C   0  0  0  0  0  0  0  0  0  0  0  0
    8.7700    7.8434   21.3915 C   0  0  0  0  0  0  0  0  0  0  0  0
   11.7856    6.8851   19.2401 C   0  0  0  0  0  0  0  0  0  0  0  0
   10.5281    7.4276   19.5649 C   0  0  0  0  0  0  0  0  0  0  0  0
   10.0256    7.2907   20.8484 C   0  0  0  0  0  0  0  0  0  0  0  0
    9.3113    5.3049   14.4911 C   0  0  0  0  0  0  0  0  0  0  0  0
    9.4607    7.5646   16.0139 C   0  0  0  0  0  0  0  0  0  0  0  0
   10.4192    7.3157   15.0955 C   0  0  0  0  0  0  0  0  0  0  0  0
   10.2489    6.4227   23.0218 N   0  0  0  0  0  0  0  0  0  0  0  0
    7.2472    8.0746   23.5050 C   0  0  0  0  0  0  0  0  0  0  0  0
    9.2051    6.9101   23.4604 C   0  0  0  0  0  0  0  0  0  0  0  0
   11.9646    6.0299   21.4251 C   0  0  0  0  0  0  0  0  0  0  0  0
  1  5  1  0
  1 13  1  0
  2 20  2  0
  2 28  1  0
  2 29  1  0
  3 19  4  0
  3 25  4  0
  4 23  4  0
  4 27  1  0
  4 30  4  0
  5 17  1  0
  6  8  1  0
  6 29  1  0
  7 24  4  0
  7 26  4  0
  8 28  1  0
  9 13  2  0
 10 18  1  0
 10 21  4  0
 10 30  4  0
 11 17  2  0
 12 18  1  0
 13 15  1  0
 14 24  1  0
 15 25  1  0
 16 28  2  0
 17 20  1  0
 19 24  4  0
 20 23  1  0
 21 22  4  0
 22 23  4  0
 25 26  4  0
 27 29  2  0
M  END
$$$$

 Created by Python create_sdf_string function

 30 33  0  0  0  0  0  0  0  0999 V2000
    8.3036    9.8571   18.4133 C   0  0  0  0  0  0  0  0  0  0  0  0
    8.3694    7.6612   22.6703 C   0  0  0  0  0  0  0  0  0  0  0  0
    8.4143    6.6863   16.2273 C   0  0  0  0  0  0  0  0  0  0  0  0
   10.7581    6.5674   21.7636 C   0  0  0  0  0  0  0  0  0  0  0  0
    8.4452    8.7960   19.2958 O   0  0  0  0  0  0  0  0  0  0  0  0
    8.7122    6.7842   24.8569 C   0  0  0  0  0  0  0  0  0  0  0  0
   10.3400    6.1726   14.3081 C   0  0  0  0  0  0  0  0  0  0  0  0
    7.4297    7.5873   24.8962 C   0  0  0  0  0  0  0  0  0  0  0  0
    8.1566   10.0536   16.0516 O   0  0  0  0  0  0  0  0  0  0  0  0
   12.4989    6.2074   20.1776 C   0  0  0  0  0  0  0  0  0  0  0  0
    6.9192    9.1053   20.9073 O   0  0  0  0  0  0  0  0  0  0  0  0
   14.3979    6.0729   18.7784 C   0  0  0  0  0  0  0  0  0  0  0  0
    8.6811    9.5354   16.9998 C   0  0  0  0  0  0  0  0  0  0  0  0
    9.2512    4.2713   13.7653 O   0  0  0  0  0  0  0  0  0  0  0  0
    9.6495    8.6317   16.8332 N   0  0  0  0  0  0  0  0  0  0  0  0
    6.2934    8.6988   23.1988 O   0  0  0  0  0  0  0  0  0  0  0  0
    7.9806    8.6543   20.5437 C   0  0  0  0  0  0  0  0  0  0  0  0
   13.7270    5.7144   19.8610 O   0  0  0  0  0  0  0  0  0  0  0  0
    8.3351    5.5235   15.4478 C   0  0  0  0  0  0  0  0  0  0  0  0
    8.7700    7.8434   21.3915 C   0  0  0  0  0  0  0  0  0  0  0  0
   11.7856    6.8851   19.2401 C   0  0  0  0  0  0  0  0  0  0  0  0
   10.5281    7.4276   19.5649 C   0  0  0  0  0  0  0  0  0  0  0  0
   10.0256    7.2907   20.8484 C   0  0  0  0  0  0  0  0  0  0  0  0
    9.3113    5.3049   14.4911 C   0  0  0  0  0  0  0  0  0  0  0  0
    9.4607    7.5646   16.0139 C   0  0  0  0  0  0  0  0  0  0  0  0
   10.4192    7.3157   15.0955 C   0  0  0  0  0  0  0  0  0  0  0  0
   10.2489    6.4227   23.0218 N   0  0  0  0  0  0  0  0  0  0  0  0
    7.2472    8.0746   23.5050 C   0  0  0  0  0  0  0  0  0  0  0  0
    9.2051    6.9101   23.4604 C   0  0  0  0  0  0  0  0  0  0  0  0
   11.9646    6.0299   21.4251 C   0  0  0  0  0  0  0  0  0  0  0  0
  1  5  1  0
  1 13  1  0
  2 20  2  0
  2 28  1  0
  2 29  1  0
  3 19  4  0
  3 25  4  0
  4 23  4  0
  4 27  1  0
  4 30  4  0
  5 17  1  0
  6  8  1  0
  6 29  1  0
  7 24  4  0
  7 26  4  0
  8 28  1  0
  9 13  2  0
 10 18  1  0
 10 21  4  0
 10 30  4  0
 11 17  2  0
 12 18  1  0
 13 15  1  0
 14 24  1  0
 15 25  1  0
 16 28  2  0
 17 20  1  0
 19 24  4  0
 20 23  1  0
 21 22  4  0
 22 23  4  0
 25 26  4  0
 27 29  2  0
M  END
$$$$

 Created by Python create_sdf_string function

 30 33  0  0  0  0  0  0  0  0999 V2000
    8.3036    9.8571   18.4133 C   0  0  0  0  0  0  0  0  0  0  0  0
    8.3694    7.6612   22.6703 C   0  0  0  0  0  0  0  0  0  0  0  0
    8.4143    6.6863   16.2273 C   0  0  0  0  0  0  0  0  0  0  0  0
   10.7581    6.5674   21.7636 C   0  0  0  0  0  0  0  0  0  0  0  0
    8.4452    8.7960   19.2958 O   0  0  0  0  0  0  0  0  0  0  0  0
    8.7122    6.7842   24.8569 C   0  0  0  0  0  0  0  0  0  0  0  0
   10.3400    6.1726   14.3081 C   0  0  0  0  0  0  0  0  0  0  0  0
    7.4297    7.5873   24.8962 C   0  0  0  0  0  0  0  0  0  0  0  0
    8.1566   10.0536   16.0516 O   0  0  0  0  0  0  0  0  0  0  0  0
   12.4989    6.2074   20.1776 C   0  0  0  0  0  0  0  0  0  0  0  0
    6.9192    9.1053   20.9073 O   0  0  0  0  0  0  0  0  0  0  0  0
   14.3979    6.0729   18.7784 C   0  0  0  0  0  0  0  0  0  0  0  0
    8.6811    9.5354   16.9998 C   0  0  0  0  0  0  0  0  0  0  0  0
    9.2512    4.2713   13.7653 O   0  0  0  0  0  0  0  0  0  0  0  0
    9.6495    8.6317   16.8332 N   0  0  0  0  0  0  0  0  0  0  0  0
    6.2934    8.6988   23.1988 O   0  0  0  0  0  0  0  0  0  0  0  0
    7.9806    8.6543   20.5437 C   0  0  0  0  0  0  0  0  0  0  0  0
   13.7270    5.7144   19.8610 O   0  0  0  0  0  0  0  0  0  0  0  0
    8.3351    5.5235   15.4478 C   0  0  0  0  0  0  0  0  0  0  0  0
    8.7700    7.8434   21.3915 C   0  0  0  0  0  0  0  0  0  0  0  0
   11.7856    6.8851   19.2401 C   0  0  0  0  0  0  0  0  0  0  0  0
   10.5281    7.4276   19.5649 C   0  0  0  0  0  0  0  0  0  0  0  0
   10.0256    7.2907   20.8484 C   0  0  0  0  0  0  0  0  0  0  0  0
    9.3113    5.3049   14.4911 C   0  0  0  0  0  0  0  0  0  0  0  0
    9.4607    7.5646   16.0139 C   0  0  0  0  0  0  0  0  0  0  0  0
   10.4192    7.3157   15.0955 C   0  0  0  0  0  0  0  0  0  0  0  0
   10.2489    6.4227   23.0218 N   0  0  0  0  0  0  0  0  0  0  0  0
    7.2472    8.0746   23.5050 C   0  0  0  0  0  0  0  0  0  0  0  0
    9.2051    6.9101   23.4604 C   0  0  0  0  0  0  0  0  0  0  0  0
   11.9646    6.0299   21.4251 C   0  0  0  0  0  0  0  0  0  0  0  0
  1  5  1  0
  1 13  1  0
  2 20  2  0
  2 28  1  0
  2 29  1  0
  3 19  4  0
  3 25  4  0
  4 23  4  0
  4 27  1  0
  4 30  4  0
  5 17  1  0
  6  8  1  0
  6 29  1  0
  7 24  4  0
  7 26  4  0
  8 28  1  0
  9 13  2  0
 10 18  1  0
 10 21  4  0
 10 30  4  0
 11 17  2  0
 12 18  1  0
 13 15  1  0
 14 24  1  0
 15 25  1  0
 16 28  2  0
 17 20  1  0
 19 24  4  0
 20 23  1  0
 21 22  4  0
 22 23  4  0
 25 26  4  0
 27 29  2  0
M  END
$$$$

 Created by Python create_sdf_string function

 30 33  0  0  0  0  0  0  0  0999 V2000
    8.3036    9.8571   18.4133 C   0  0  0  0  0  0  0  0  0  0  0  0
    8.3694    7.6612   22.6703 C   0  0  0  0  0  0  0  0  0  0  0  0
    8.4143    6.6863   16.2273 C   0  0  0  0  0  0  0  0  0  0  0  0
   10.7581    6.5674   21.7636 C   0  0  0  0  0  0  0  0  0  0  0  0
    8.4452    8.7960   19.2958 O   0  0  0  0  0  0  0  0  0  0  0  0
    8.7122    6.7842   24.8569 C   0  0  0  0  0  0  0  0  0  0  0  0
   10.3400    6.1726   14.3081 C   0  0  0  0  0  0  0  0  0  0  0  0
    7.4297    7.5873   24.8962 C   0  0  0  0  0  0  0  0  0  0  0  0
    8.1566   10.0536   16.0516 O   0  0  0  0  0  0  0  0  0  0  0  0
   12.4989    6.2074   20.1776 C   0  0  0  0  0  0  0  0  0  0  0  0
    6.9192    9.1053   20.9073 O   0  0  0  0  0  0  0  0  0  0  0  0
   14.3979    6.0729   18.7784 C   0  0  0  0  0  0  0  0  0  0  0  0
    8.6811    9.5354   16.9998 C   0  0  0  0  0  0  0  0  0  0  0  0
    9.2512    4.2713   13.7653 O   0  0  0  0  0  0  0  0  0  0  0  0
    9.6495    8.6317   16.8332 N   0  0  0  0  0  0  0  0  0  0  0  0
    6.2934    8.6988   23.1988 O   0  0  0  0  0  0  0  0  0  0  0  0
    7.9806    8.6543   20.5437 C   0  0  0  0  0  0  0  0  0  0  0  0
   13.7270    5.7144   19.8610 O   0  0  0  0  0  0  0  0  0  0  0  0
    8.3351    5.5235   15.4478 C   0  0  0  0  0  0  0  0  0  0  0  0
    8.7700    7.8434   21.3915 C   0  0  0  0  0  0  0  0  0  0  0  0
   11.7856    6.8851   19.2401 C   0  0  0  0  0  0  0  0  0  0  0  0
   10.5281    7.4276   19.5649 C   0  0  0  0  0  0  0  0  0  0  0  0
   10.0256    7.2907   20.8484 C   0  0  0  0  0  0  0  0  0  0  0  0
    9.3113    5.3049   14.4911 C   0  0  0  0  0  0  0  0  0  0  0  0
    9.4607    7.5646   16.0139 C   0  0  0  0  0  0  0  0  0  0  0  0
   10.4192    7.3157   15.0955 C   0  0  0  0  0  0  0  0  0  0  0  0
   10.2489    6.4227   23.0218 N   0  0  0  0  0  0  0  0  0  0  0  0
    7.2472    8.0746   23.5050 C   0  0  0  0  0  0  0  0  0  0  0  0
    9.2051    6.9101   23.4604 C   0  0  0  0  0  0  0  0  0  0  0  0
   11.9646    6.0299   21.4251 C   0  0  0  0  0  0  0  0  0  0  0  0
  1  5  1  0
  1 13  1  0
  2 20  2  0
  2 28  1  0
  2 29  1  0
  3 19  4  0
  3 25  4  0
  4 23  4  0
  4 27  1  0
  4 30  4  0
  5 17  1  0
  6  8  1  0
  6 29  1  0
  7 24  4  0
  7 26  4  0
  8 28  1  0
  9 13  2  0
 10 18  1  0
 10 21  4  0
 10 30  4  0
 11 17  2  0
 12 18  1  0
 13 15  1  0
 14 24  1  0
 15 25  1  0
 16 28  2  0
 17 20  1  0
 19 24  4  0
 20 23  1  0
 21 22  4  0
 22 23  4  0
 25 26  4  0
 27 29  2  0
M  END
$$$$

 Created by Python create_sdf_string function

 30 33  0  0  0  0  0  0  0  0999 V2000
    8.3036    9.8571   18.4133 C   0  0  0  0  0  0  0  0  0  0  0  0
    8.3694    7.6612   22.6703 C   0  0  0  0  0  0  0  0  0  0  0  0
    8.4143    6.6863   16.2273 C   0  0  0  0  0  0  0  0  0  0  0  0
   10.7581    6.5674   21.7636 C   0  0  0  0  0  0  0  0  0  0  0  0
    8.4452    8.7960   19.2958 O   0  0  0  0  0  0  0  0  0  0  0  0
    8.7122    6.7842   24.8569 C   0  0  0  0  0  0  0  0  0  0  0  0
   10.3400    6.1726   14.3081 C   0  0  0  0  0  0  0  0  0  0  0  0
    7.4297    7.5873   24.8962 C   0  0  0  0  0  0  0  0  0  0  0  0
    8.1566   10.0536   16.0516 O   0  0  0  0  0  0  0  0  0  0  0  0
   12.4989    6.2074   20.1776 C   0  0  0  0  0  0  0  0  0  0  0  0
    6.9192    9.1053   20.9073 O   0  0  0  0  0  0  0  0  0  0  0  0
   14.3979    6.0729   18.7784 C   0  0  0  0  0  0  0  0  0  0  0  0
    8.6811    9.5354   16.9998 C   0  0  0  0  0  0  0  0  0  0  0  0
    9.2512    4.2713   13.7653 O   0  0  0  0  0  0  0  0  0  0  0  0
    9.6495    8.6317   16.8332 N   0  0  0  0  0  0  0  0  0  0  0  0
    6.2934    8.6988   23.1988 O   0  0  0  0  0  0  0  0  0  0  0  0
    7.9806    8.6543   20.5437 C   0  0  0  0  0  0  0  0  0  0  0  0
   13.7270    5.7144   19.8610 O   0  0  0  0  0  0  0  0  0  0  0  0
    8.3351    5.5235   15.4478 C   0  0  0  0  0  0  0  0  0  0  0  0
    8.7700    7.8434   21.3915 C   0  0  0  0  0  0  0  0  0  0  0  0
   11.7856    6.8851   19.2401 C   0  0  0  0  0  0  0  0  0  0  0  0
   10.5281    7.4276   19.5649 C   0  0  0  0  0  0  0  0  0  0  0  0
   10.0256    7.2907   20.8484 C   0  0  0  0  0  0  0  0  0  0  0  0
    9.3113    5.3049   14.4911 C   0  0  0  0  0  0  0  0  0  0  0  0
    9.4607    7.5646   16.0139 C   0  0  0  0  0  0  0  0  0  0  0  0
   10.4192    7.3157   15.0955 C   0  0  0  0  0  0  0  0  0  0  0  0
   10.2489    6.4227   23.0218 N   0  0  0  0  0  0  0  0  0  0  0  0
    7.2472    8.0746   23.5050 C   0  0  0  0  0  0  0  0  0  0  0  0
    9.2051    6.9101   23.4604 C   0  0  0  0  0  0  0  0  0  0  0  0
   11.9646    6.0299   21.4251 C   0  0  0  0  0  0  0  0  0  0  0  0
  1  5  1  0
  1 13  1  0
  2 20  2  0
  2 28  1  0
  2 29  1  0
  3 19  4  0
  3 25  4  0
  4 23  4  0
  4 27  1  0
  4 30  4  0
  5 17  1  0
  6  8  1  0
  6 29  1  0
  7 24  4  0
  7 26  4  0
  8 28  1  0
  9 13  2  0
 10 18  1  0
 10 21  4  0
 10 30  4  0
 11 17  2  0
 12 18  1  0
 13 15  1  0
 14 24  1  0
 15 25  1  0
 16 28  2  0
 17 20  1  0
 19 24  4  0
 20 23  1  0
 21 22  4  0
 22 23  4  0
 25 26  4  0
 27 29  2  0
M  END
$$$$

 Created by Python create_sdf_string function

 30 33  0  0  0  0  0  0  0  0999 V2000
    8.3036    9.8571   18.4133 C   0  0  0  0  0  0  0  0  0  0  0  0
    8.3694    7.6612   22.6703 C   0  0  0  0  0  0  0  0  0  0  0  0
    8.4143    6.6863   16.2273 C   0  0  0  0  0  0  0  0  0  0  0  0
   10.7581    6.5674   21.7636 C   0  0  0  0  0  0  0  0  0  0  0  0
    8.4452    8.7960   19.2958 O   0  0  0  0  0  0  0  0  0  0  0  0
    8.7122    6.7842   24.8569 C   0  0  0  0  0  0  0  0  0  0  0  0
   10.3400    6.1726   14.3081 C   0  0  0  0  0  0  0  0  0  0  0  0
    7.4297    7.5873   24.8962 C   0  0  0  0  0  0  0  0  0  0  0  0
    8.1566   10.0536   16.0516 O   0  0  0  0  0  0  0  0  0  0  0  0
   12.4989    6.2074   20.1776 C   0  0  0  0  0  0  0  0  0  0  0  0
    6.9192    9.1053   20.9073 O   0  0  0  0  0  0  0  0  0  0  0  0
   14.3979    6.0729   18.7784 C   0  0  0  0  0  0  0  0  0  0  0  0
    8.6811    9.5354   16.9998 C   0  0  0  0  0  0  0  0  0  0  0  0
    9.2512    4.2713   13.7653 O   0  0  0  0  0  0  0  0  0  0  0  0
    9.6495    8.6317   16.8332 N   0  0  0  0  0  0  0  0  0  0  0  0
    6.2934    8.6988   23.1988 O   0  0  0  0  0  0  0  0  0  0  0  0
    7.9806    8.6543   20.5437 C   0  0  0  0  0  0  0  0  0  0  0  0
   13.7270    5.7144   19.8610 O   0  0  0  0  0  0  0  0  0  0  0  0
    8.3351    5.5235   15.4478 C   0  0  0  0  0  0  0  0  0  0  0  0
    8.7700    7.8434   21.3915 C   0  0  0  0  0  0  0  0  0  0  0  0
   11.7856    6.8851   19.2401 C   0  0  0  0  0  0  0  0  0  0  0  0
   10.5281    7.4276   19.5649 C   0  0  0  0  0  0  0  0  0  0  0  0
   10.0256    7.2907   20.8484 C   0  0  0  0  0  0  0  0  0  0  0  0
    9.3113    5.3049   14.4911 C   0  0  0  0  0  0  0  0  0  0  0  0
    9.4607    7.5646   16.0139 C   0  0  0  0  0  0  0  0  0  0  0  0
   10.4192    7.3157   15.0955 C   0  0  0  0  0  0  0  0  0  0  0  0
   10.2489    6.4227   23.0218 N   0  0  0  0  0  0  0  0  0  0  0  0
    7.2472    8.0746   23.5050 C   0  0  0  0  0  0  0  0  0  0  0  0
    9.2051    6.9101   23.4604 C   0  0  0  0  0  0  0  0  0  0  0  0
   11.9646    6.0299   21.4251 C   0  0  0  0  0  0  0  0  0  0  0  0
  1  5  1  0
  1 13  1  0
  2 20  2  0
  2 28  1  0
  2 29  1  0
  3 19  4  0
  3 25  4  0
  4 23  4  0
  4 27  1  0
  4 30  4  0
  5 17  1  0
  6  8  1  0
  6 29  1  0
  7 24  4  0
  7 26  4  0
  8 28  1  0
  9 13  2  0
 10 18  1  0
 10 21  4  0
 10 30  4  0
 11 17  2  0
 12 18  1  0
 13 15  1  0
 14 24  1  0
 15 25  1  0
 16 28  2  0
 17 20  1  0
 19 24  4  0
 20 23  1  0
 21 22  4  0
 22 23  4  0
 25 26  4  0
 27 29  2  0
M  END
$$$$

 Created by Python create_sdf_string function

 30 33  0  0  0  0  0  0  0  0999 V2000
    8.3036    9.8571   18.4133 C   0  0  0  0  0  0  0  0  0  0  0  0
    8.3694    7.6612   22.6703 C   0  0  0  0  0  0  0  0  0  0  0  0
    8.4143    6.6863   16.2273 C   0  0  0  0  0  0  0  0  0  0  0  0
   10.7581    6.5674   21.7636 C   0  0  0  0  0  0  0  0  0  0  0  0
    8.4452    8.7960   19.2958 O   0  0  0  0  0  0  0  0  0  0  0  0
    8.7122    6.7842   24.8569 C   0  0  0  0  0  0  0  0  0  0  0  0
   10.3400    6.1726   14.3081 C   0  0  0  0  0  0  0  0  0  0  0  0
    7.4297    7.5873   24.8962 C   0  0  0  0  0  0  0  0  0  0  0  0
    8.1566   10.0536   16.0516 O   0  0  0  0  0  0  0  0  0  0  0  0
   12.4989    6.2074   20.1776 C   0  0  0  0  0  0  0  0  0  0  0  0
    6.9192    9.1053   20.9073 O   0  0  0  0  0  0  0  0  0  0  0  0
   14.3979    6.0729   18.7784 C   0  0  0  0  0  0  0  0  0  0  0  0
    8.6811    9.5354   16.9998 C   0  0  0  0  0  0  0  0  0  0  0  0
    9.2512    4.2713   13.7653 O   0  0  0  0  0  0  0  0  0  0  0  0
    9.6495    8.6317   16.8332 N   0  0  0  0  0  0  0  0  0  0  0  0
    6.2934    8.6988   23.1988 O   0  0  0  0  0  0  0  0  0  0  0  0
    7.9806    8.6543   20.5437 C   0  0  0  0  0  0  0  0  0  0  0  0
   13.7270    5.7144   19.8610 O   0  0  0  0  0  0  0  0  0  0  0  0
    8.3351    5.5235   15.4478 C   0  0  0  0  0  0  0  0  0  0  0  0
    8.7700    7.8434   21.3915 C   0  0  0  0  0  0  0  0  0  0  0  0
   11.7856    6.8851   19.2401 C   0  0  0  0  0  0  0  0  0  0  0  0
   10.5281    7.4276   19.5649 C   0  0  0  0  0  0  0  0  0  0  0  0
   10.0256    7.2907   20.8484 C   0  0  0  0  0  0  0  0  0  0  0  0
    9.3113    5.3049   14.4911 C   0  0  0  0  0  0  0  0  0  0  0  0
    9.4607    7.5646   16.0139 C   0  0  0  0  0  0  0  0  0  0  0  0
   10.4192    7.3157   15.0955 C   0  0  0  0  0  0  0  0  0  0  0  0
   10.2489    6.4227   23.0218 N   0  0  0  0  0  0  0  0  0  0  0  0
    7.2472    8.0746   23.5050 C   0  0  0  0  0  0  0  0  0  0  0  0
    9.2051    6.9101   23.4604 C   0  0  0  0  0  0  0  0  0  0  0  0
   11.9646    6.0299   21.4251 C   0  0  0  0  0  0  0  0  0  0  0  0
  1  5  1  0
  1 13  1  0
  2 20  2  0
  2 28  1  0
  2 29  1  0
  3 19  4  0
  3 25  4  0
  4 23  4  0
  4 27  1  0
  4 30  4  0
  5 17  1  0
  6  8  1  0
  6 29  1  0
  7 24  4  0
  7 26  4  0
  8 28  1  0
  9 13  2  0
 10 18  1  0
 10 21  4  0
 10 30  4  0
 11 17  2  0
 12 18  1  0
 13 15  1  0
 14 24  1  0
 15 25  1  0
 16 28  2  0
 17 20  1  0
 19 24  4  0
 20 23  1  0
 21 22  4  0
 22 23  4  0
 25 26  4  0
 27 29  2  0
M  END
$$$$

 Created by Python create_sdf_string function

 30 33  0  0  0  0  0  0  0  0999 V2000
    8.3036    9.8571   18.4133 C   0  0  0  0  0  0  0  0  0  0  0  0
    8.3694    7.6612   22.6703 C   0  0  0  0  0  0  0  0  0  0  0  0
    8.4143    6.6863   16.2273 C   0  0  0  0  0  0  0  0  0  0  0  0
   10.7581    6.5674   21.7636 C   0  0  0  0  0  0  0  0  0  0  0  0
    8.4452    8.7960   19.2958 O   0  0  0  0  0  0  0  0  0  0  0  0
    8.7122    6.7842   24.8569 C   0  0  0  0  0  0  0  0  0  0  0  0
   10.3400    6.1726   14.3081 C   0  0  0  0  0  0  0  0  0  0  0  0
    7.4297    7.5873   24.8962 C   0  0  0  0  0  0  0  0  0  0  0  0
    8.1566   10.0536   16.0516 O   0  0  0  0  0  0  0  0  0  0  0  0
   12.4989    6.2074   20.1776 C   0  0  0  0  0  0  0  0  0  0  0  0
    6.9192    9.1053   20.9073 O   0  0  0  0  0  0  0  0  0  0  0  0
   14.3979    6.0729   18.7784 C   0  0  0  0  0  0  0  0  0  0  0  0
    8.6811    9.5354   16.9998 C   0  0  0  0  0  0  0  0  0  0  0  0
    9.2512    4.2713   13.7653 O   0  0  0  0  0  0  0  0  0  0  0  0
    9.6495    8.6317   16.8332 N   0  0  0  0  0  0  0  0  0  0  0  0
    6.2934    8.6988   23.1988 O   0  0  0  0  0  0  0  0  0  0  0  0
    7.9806    8.6543   20.5437 C   0  0  0  0  0  0  0  0  0  0  0  0
   13.7270    5.7144   19.8610 O   0  0  0  0  0  0  0  0  0  0  0  0
    8.3351    5.5235   15.4478 C   0  0  0  0  0  0  0  0  0  0  0  0
    8.7700    7.8434   21.3915 C   0  0  0  0  0  0  0  0  0  0  0  0
   11.7856    6.8851   19.2401 C   0  0  0  0  0  0  0  0  0  0  0  0
   10.5281    7.4276   19.5649 C   0  0  0  0  0  0  0  0  0  0  0  0
   10.0256    7.2907   20.8484 C   0  0  0  0  0  0  0  0  0  0  0  0
    9.3113    5.3049   14.4911 C   0  0  0  0  0  0  0  0  0  0  0  0
    9.4607    7.5646   16.0139 C   0  0  0  0  0  0  0  0  0  0  0  0
   10.4192    7.3157   15.0955 C   0  0  0  0  0  0  0  0  0  0  0  0
   10.2489    6.4227   23.0218 N   0  0  0  0  0  0  0  0  0  0  0  0
    7.2472    8.0746   23.5050 C   0  0  0  0  0  0  0  0  0  0  0  0
    9.2051    6.9101   23.4604 C   0  0  0  0  0  0  0  0  0  0  0  0
   11.9646    6.0299   21.4251 C   0  0  0  0  0  0  0  0  0  0  0  0
  1  5  1  0
  1 13  1  0
  2 20  2  0
  2 28  1  0
  2 29  1  0
  3 19  4  0
  3 25  4  0
  4 23  4  0
  4 27  1  0
  4 30  4  0
  5 17  1  0
  6  8  1  0
  6 29  1  0
  7 24  4  0
  7 26  4  0
  8 28  1  0
  9 13  2  0
 10 18  1  0
 10 21  4  0
 10 30  4  0
 11 17  2  0
 12 18  1  0
 13 15  1  0
 14 24  1  0
 15 25  1  0
 16 28  2  0
 17 20  1  0
 19 24  4  0
 20 23  1  0
 21 22  4  0
 22 23  4  0
 25 26  4  0
 27 29  2  0
M  END
$$$$

 Created by Python create_sdf_string function

 30 33  0  0  0  0  0  0  0  0999 V2000
    8.3036    9.8571   18.4133 C   0  0  0  0  0  0  0  0  0  0  0  0
    8.3694    7.6612   22.6703 C   0  0  0  0  0  0  0  0  0  0  0  0
    8.4143    6.6863   16.2273 C   0  0  0  0  0  0  0  0  0  0  0  0
   10.7581    6.5674   21.7636 C   0  0  0  0  0  0  0  0  0  0  0  0
    8.4452    8.7960   19.2958 O   0  0  0  0  0  0  0  0  0  0  0  0
    8.7122    6.7842   24.8569 C   0  0  0  0  0  0  0  0  0  0  0  0
   10.3400    6.1726   14.3081 C   0  0  0  0  0  0  0  0  0  0  0  0
    7.4297    7.5873   24.8962 C   0  0  0  0  0  0  0  0  0  0  0  0
    8.1566   10.0536   16.0516 O   0  0  0  0  0  0  0  0  0  0  0  0
   12.4989    6.2074   20.1776 C   0  0  0  0  0  0  0  0  0  0  0  0
    6.9192    9.1053   20.9073 O   0  0  0  0  0  0  0  0  0  0  0  0
   14.3979    6.0729   18.7784 C   0  0  0  0  0  0  0  0  0  0  0  0
    8.6811    9.5354   16.9998 C   0  0  0  0  0  0  0  0  0  0  0  0
    9.2512    4.2713   13.7653 O   0  0  0  0  0  0  0  0  0  0  0  0
    9.6495    8.6317   16.8332 N   0  0  0  0  0  0  0  0  0  0  0  0
    6.2934    8.6988   23.1988 O   0  0  0  0  0  0  0  0  0  0  0  0
    7.9806    8.6543   20.5437 C   0  0  0  0  0  0  0  0  0  0  0  0
   13.7270    5.7144   19.8610 O   0  0  0  0  0  0  0  0  0  0  0  0
    8.3351    5.5235   15.4478 C   0  0  0  0  0  0  0  0  0  0  0  0
    8.7700    7.8434   21.3915 C   0  0  0  0  0  0  0  0  0  0  0  0
   11.7856    6.8851   19.2401 C   0  0  0  0  0  0  0  0  0  0  0  0
   10.5281    7.4276   19.5649 C   0  0  0  0  0  0  0  0  0  0  0  0
   10.0256    7.2907   20.8484 C   0  0  0  0  0  0  0  0  0  0  0  0
    9.3113    5.3049   14.4911 C   0  0  0  0  0  0  0  0  0  0  0  0
    9.4607    7.5646   16.0139 C   0  0  0  0  0  0  0  0  0  0  0  0
   10.4192    7.3157   15.0955 C   0  0  0  0  0  0  0  0  0  0  0  0
   10.2489    6.4227   23.0218 N   0  0  0  0  0  0  0  0  0  0  0  0
    7.2472    8.0746   23.5050 C   0  0  0  0  0  0  0  0  0  0  0  0
    9.2051    6.9101   23.4604 C   0  0  0  0  0  0  0  0  0  0  0  0
   11.9646    6.0299   21.4251 C   0  0  0  0  0  0  0  0  0  0  0  0
  1  5  1  0
  1 13  1  0
  2 20  2  0
  2 28  1  0
  2 29  1  0
  3 19  4  0
  3 25  4  0
  4 23  4  0
  4 27  1  0
  4 30  4  0
  5 17  1  0
  6  8  1  0
  6 29  1  0
  7 24  4  0
  7 26  4  0
  8 28  1  0
  9 13  2  0
 10 18  1  0
 10 21  4  0
 10 30  4  0
 11 17  2  0
 12 18  1  0
 13 15  1  0
 14 24  1  0
 15 25  1  0
 16 28  2  0
 17 20  1  0
 19 24  4  0
 20 23  1  0
 21 22  4  0
 22 23  4  0
 25 26  4  0
 27 29  2  0
M  END
$$$$

 Created by Python create_sdf_string function

 30 33  0  0  0  0  0  0  0  0999 V2000
    8.3036    9.8571   18.4133 C   0  0  0  0  0  0  0  0  0  0  0  0
    8.3694    7.6612   22.6703 C   0  0  0  0  0  0  0  0  0  0  0  0
    8.4143    6.6863   16.2273 C   0  0  0  0  0  0  0  0  0  0  0  0
   10.7581    6.5674   21.7636 C   0  0  0  0  0  0  0  0  0  0  0  0
    8.4452    8.7960   19.2958 O   0  0  0  0  0  0  0  0  0  0  0  0
    8.7122    6.7842   24.8569 C   0  0  0  0  0  0  0  0  0  0  0  0
   10.3400    6.1726   14.3081 C   0  0  0  0  0  0  0  0  0  0  0  0
    7.4297    7.5873   24.8962 C   0  0  0  0  0  0  0  0  0  0  0  0
    8.1566   10.0536   16.0516 O   0  0  0  0  0  0  0  0  0  0  0  0
   12.4989    6.2074   20.1776 C   0  0  0  0  0  0  0  0  0  0  0  0
    6.9192    9.1053   20.9073 O   0  0  0  0  0  0  0  0  0  0  0  0
   14.3979    6.0729   18.7784 C   0  0  0  0  0  0  0  0  0  0  0  0
    8.6811    9.5354   16.9998 C   0  0  0  0  0  0  0  0  0  0  0  0
    9.2512    4.2713   13.7653 O   0  0  0  0  0  0  0  0  0  0  0  0
    9.6495    8.6317   16.8332 N   0  0  0  0  0  0  0  0  0  0  0  0
    6.2934    8.6988   23.1988 O   0  0  0  0  0  0  0  0  0  0  0  0
    7.9806    8.6543   20.5437 C   0  0  0  0  0  0  0  0  0  0  0  0
   13.7270    5.7144   19.8610 O   0  0  0  0  0  0  0  0  0  0  0  0
    8.3351    5.5235   15.4478 C   0  0  0  0  0  0  0  0  0  0  0  0
    8.7700    7.8434   21.3915 C   0  0  0  0  0  0  0  0  0  0  0  0
   11.7856    6.8851   19.2401 C   0  0  0  0  0  0  0  0  0  0  0  0
   10.5281    7.4276   19.5649 C   0  0  0  0  0  0  0  0  0  0  0  0
   10.0256    7.2907   20.8484 C   0  0  0  0  0  0  0  0  0  0  0  0
    9.3113    5.3049   14.4911 C   0  0  0  0  0  0  0  0  0  0  0  0
    9.4607    7.5646   16.0139 C   0  0  0  0  0  0  0  0  0  0  0  0
   10.4192    7.3157   15.0955 C   0  0  0  0  0  0  0  0  0  0  0  0
   10.2489    6.4227   23.0218 N   0  0  0  0  0  0  0  0  0  0  0  0
    7.2472    8.0746   23.5050 C   0  0  0  0  0  0  0  0  0  0  0  0
    9.2051    6.9101   23.4604 C   0  0  0  0  0  0  0  0  0  0  0  0
   11.9646    6.0299   21.4251 C   0  0  0  0  0  0  0  0  0  0  0  0
  1  5  1  0
  1 13  1  0
  2 20  2  0
  2 28  1  0
  2 29  1  0
  3 19  4  0
  3 25  4  0
  4 23  4  0
  4 27  1  0
  4 30  4  0
  5 17  1  0
  6  8  1  0
  6 29  1  0
  7 24  4  0
  7 26  4  0
  8 28  1  0
  9 13  2  0
 10 18  1  0
 10 21  4  0
 10 30  4  0
 11 17  2  0
 12 18  1  0
 13 15  1  0
 14 24  1  0
 15 25  1  0
 16 28  2  0
 17 20  1  0
 19 24  4  0
 20 23  1  0
 21 22  4  0
 22 23  4  0
 25 26  4  0
 27 29  2  0
M  END
$$$$

 Created by Python create_sdf_string function

 30 33  0  0  0  0  0  0  0  0999 V2000
    8.3036    9.8571   18.4133 C   0  0  0  0  0  0  0  0  0  0  0  0
    8.3694    7.6612   22.6703 C   0  0  0  0  0  0  0  0  0  0  0  0
    8.4143    6.6863   16.2273 C   0  0  0  0  0  0  0  0  0  0  0  0
   10.7581    6.5674   21.7636 C   0  0  0  0  0  0  0  0  0  0  0  0
    8.4452    8.7960   19.2958 O   0  0  0  0  0  0  0  0  0  0  0  0
    8.7122    6.7842   24.8569 C   0  0  0  0  0  0  0  0  0  0  0  0
   10.3400    6.1726   14.3081 C   0  0  0  0  0  0  0  0  0  0  0  0
    7.4297    7.5873   24.8962 C   0  0  0  0  0  0  0  0  0  0  0  0
    8.1566   10.0536   16.0516 O   0  0  0  0  0  0  0  0  0  0  0  0
   12.4989    6.2074   20.1776 C   0  0  0  0  0  0  0  0  0  0  0  0
    6.9192    9.1053   20.9073 O   0  0  0  0  0  0  0  0  0  0  0  0
   14.3979    6.0729   18.7784 C   0  0  0  0  0  0  0  0  0  0  0  0
    8.6811    9.5354   16.9998 C   0  0  0  0  0  0  0  0  0  0  0  0
    9.2512    4.2713   13.7653 O   0  0  0  0  0  0  0  0  0  0  0  0
    9.6495    8.6317   16.8332 N   0  0  0  0  0  0  0  0  0  0  0  0
    6.2934    8.6988   23.1988 O   0  0  0  0  0  0  0  0  0  0  0  0
    7.9806    8.6543   20.5437 C   0  0  0  0  0  0  0  0  0  0  0  0
   13.7270    5.7144   19.8610 O   0  0  0  0  0  0  0  0  0  0  0  0
    8.3351    5.5235   15.4478 C   0  0  0  0  0  0  0  0  0  0  0  0
    8.7700    7.8434   21.3915 C   0  0  0  0  0  0  0  0  0  0  0  0
   11.7856    6.8851   19.2401 C   0  0  0  0  0  0  0  0  0  0  0  0
   10.5281    7.4276   19.5649 C   0  0  0  0  0  0  0  0  0  0  0  0
   10.0256    7.2907   20.8484 C   0  0  0  0  0  0  0  0  0  0  0  0
    9.3113    5.3049   14.4911 C   0  0  0  0  0  0  0  0  0  0  0  0
    9.4607    7.5646   16.0139 C   0  0  0  0  0  0  0  0  0  0  0  0
   10.4192    7.3157   15.0955 C   0  0  0  0  0  0  0  0  0  0  0  0
   10.2489    6.4227   23.0218 N   0  0  0  0  0  0  0  0  0  0  0  0
    7.2472    8.0746   23.5050 C   0  0  0  0  0  0  0  0  0  0  0  0
    9.2051    6.9101   23.4604 C   0  0  0  0  0  0  0  0  0  0  0  0
   11.9646    6.0299   21.4251 C   0  0  0  0  0  0  0  0  0  0  0  0
  1  5  1  0
  1 13  1  0
  2 20  2  0
  2 28  1  0
  2 29  1  0
  3 19  4  0
  3 25  4  0
  4 23  4  0
  4 27  1  0
  4 30  4  0
  5 17  1  0
  6  8  1  0
  6 29  1  0
  7 24  4  0
  7 26  4  0
  8 28  1  0
  9 13  2  0
 10 18  1  0
 10 21  4  0
 10 30  4  0
 11 17  2  0
 12 18  1  0
 13 15  1  0
 14 24  1  0
 15 25  1  0
 16 28  2  0
 17 20  1  0
 19 24  4  0
 20 23  1  0
 21 22  4  0
 22 23  4  0
 25 26  4  0
 27 29  2  0
M  END
$$$$

 Created by Python create_sdf_string function

 30 33  0  0  0  0  0  0  0  0999 V2000
    8.3036    9.8571   18.4133 C   0  0  0  0  0  0  0  0  0  0  0  0
    8.3694    7.6612   22.6703 C   0  0  0  0  0  0  0  0  0  0  0  0
    8.4143    6.6863   16.2273 C   0  0  0  0  0  0  0  0  0  0  0  0
   10.7581    6.5674   21.7636 C   0  0  0  0  0  0  0  0  0  0  0  0
    8.4452    8.7960   19.2958 O   0  0  0  0  0  0  0  0  0  0  0  0
    8.7122    6.7842   24.8569 C   0  0  0  0  0  0  0  0  0  0  0  0
   10.3400    6.1726   14.3081 C   0  0  0  0  0  0  0  0  0  0  0  0
    7.4297    7.5873   24.8962 C   0  0  0  0  0  0  0  0  0  0  0  0
    8.1566   10.0536   16.0516 O   0  0  0  0  0  0  0  0  0  0  0  0
   12.4989    6.2074   20.1776 C   0  0  0  0  0  0  0  0  0  0  0  0
    6.9192    9.1053   20.9073 O   0  0  0  0  0  0  0  0  0  0  0  0
   14.3979    6.0729   18.7784 C   0  0  0  0  0  0  0  0  0  0  0  0
    8.6811    9.5354   16.9998 C   0  0  0  0  0  0  0  0  0  0  0  0
    9.2512    4.2713   13.7653 O   0  0  0  0  0  0  0  0  0  0  0  0
    9.6495    8.6317   16.8332 N   0  0  0  0  0  0  0  0  0  0  0  0
    6.2934    8.6988   23.1988 O   0  0  0  0  0  0  0  0  0  0  0  0
    7.9806    8.6543   20.5437 C   0  0  0  0  0  0  0  0  0  0  0  0
   13.7270    5.7144   19.8610 O   0  0  0  0  0  0  0  0  0  0  0  0
    8.3351    5.5235   15.4478 C   0  0  0  0  0  0  0  0  0  0  0  0
    8.7700    7.8434   21.3915 C   0  0  0  0  0  0  0  0  0  0  0  0
   11.7856    6.8851   19.2401 C   0  0  0  0  0  0  0  0  0  0  0  0
   10.5281    7.4276   19.5649 C   0  0  0  0  0  0  0  0  0  0  0  0
   10.0256    7.2907   20.8484 C   0  0  0  0  0  0  0  0  0  0  0  0
    9.3113    5.3049   14.4911 C   0  0  0  0  0  0  0  0  0  0  0  0
    9.4607    7.5646   16.0139 C   0  0  0  0  0  0  0  0  0  0  0  0
   10.4192    7.3157   15.0955 C   0  0  0  0  0  0  0  0  0  0  0  0
   10.2489    6.4227   23.0218 N   0  0  0  0  0  0  0  0  0  0  0  0
    7.2472    8.0746   23.5050 C   0  0  0  0  0  0  0  0  0  0  0  0
    9.2051    6.9101   23.4604 C   0  0  0  0  0  0  0  0  0  0  0  0
   11.9646    6.0299   21.4251 C   0  0  0  0  0  0  0  0  0  0  0  0
  1  5  1  0
  1 13  1  0
  2 20  2  0
  2 28  1  0
  2 29  1  0
  3 19  4  0
  3 25  4  0
  4 23  4  0
  4 27  1  0
  4 30  4  0
  5 17  1  0
  6  8  1  0
  6 29  1  0
  7 24  4  0
  7 26  4  0
  8 28  1  0
  9 13  2  0
 10 18  1  0
 10 21  4  0
 10 30  4  0
 11 17  2  0
 12 18  1  0
 13 15  1  0
 14 24  1  0
 15 25  1  0
 16 28  2  0
 17 20  1  0
 19 24  4  0
 20 23  1  0
 21 22  4  0
 22 23  4  0
 25 26  4  0
 27 29  2  0
M  END
$$$$

 Created by Python create_sdf_string function

 30 33  0  0  0  0  0  0  0  0999 V2000
    8.3036    9.8571   18.4133 C   0  0  0  0  0  0  0  0  0  0  0  0
    8.3694    7.6612   22.6703 C   0  0  0  0  0  0  0  0  0  0  0  0
    8.4143    6.6863   16.2273 C   0  0  0  0  0  0  0  0  0  0  0  0
   10.7581    6.5674   21.7636 C   0  0  0  0  0  0  0  0  0  0  0  0
    8.4452    8.7960   19.2958 O   0  0  0  0  0  0  0  0  0  0  0  0
    8.7122    6.7842   24.8569 C   0  0  0  0  0  0  0  0  0  0  0  0
   10.3400    6.1726   14.3081 C   0  0  0  0  0  0  0  0  0  0  0  0
    7.4297    7.5873   24.8962 C   0  0  0  0  0  0  0  0  0  0  0  0
    8.1566   10.0536   16.0516 O   0  0  0  0  0  0  0  0  0  0  0  0
   12.4989    6.2074   20.1776 C   0  0  0  0  0  0  0  0  0  0  0  0
    6.9192    9.1053   20.9073 O   0  0  0  0  0  0  0  0  0  0  0  0
   14.3979    6.0729   18.7784 C   0  0  0  0  0  0  0  0  0  0  0  0
    8.6811    9.5354   16.9998 C   0  0  0  0  0  0  0  0  0  0  0  0
    9.2512    4.2713   13.7653 O   0  0  0  0  0  0  0  0  0  0  0  0
    9.6495    8.6317   16.8332 N   0  0  0  0  0  0  0  0  0  0  0  0
    6.2934    8.6988   23.1988 O   0  0  0  0  0  0  0  0  0  0  0  0
    7.9806    8.6543   20.5437 C   0  0  0  0  0  0  0  0  0  0  0  0
   13.7270    5.7144   19.8610 O   0  0  0  0  0  0  0  0  0  0  0  0
    8.3351    5.5235   15.4478 C   0  0  0  0  0  0  0  0  0  0  0  0
    8.7700    7.8434   21.3915 C   0  0  0  0  0  0  0  0  0  0  0  0
   11.7856    6.8851   19.2401 C   0  0  0  0  0  0  0  0  0  0  0  0
   10.5281    7.4276   19.5649 C   0  0  0  0  0  0  0  0  0  0  0  0
   10.0256    7.2907   20.8484 C   0  0  0  0  0  0  0  0  0  0  0  0
    9.3113    5.3049   14.4911 C   0  0  0  0  0  0  0  0  0  0  0  0
    9.4607    7.5646   16.0139 C   0  0  0  0  0  0  0  0  0  0  0  0
   10.4192    7.3157   15.0955 C   0  0  0  0  0  0  0  0  0  0  0  0
   10.2489    6.4227   23.0218 N   0  0  0  0  0  0  0  0  0  0  0  0
    7.2472    8.0746   23.5050 C   0  0  0  0  0  0  0  0  0  0  0  0
    9.2051    6.9101   23.4604 C   0  0  0  0  0  0  0  0  0  0  0  0
   11.9646    6.0299   21.4251 C   0  0  0  0  0  0  0  0  0  0  0  0
  1  5  1  0
  1 13  1  0
  2 20  2  0
  2 28  1  0
  2 29  1  0
  3 19  4  0
  3 25  4  0
  4 23  4  0
  4 27  1  0
  4 30  4  0
  5 17  1  0
  6  8  1  0
  6 29  1  0
  7 24  4  0
  7 26  4  0
  8 28  1  0
  9 13  2  0
 10 18  1  0
 10 21  4  0
 10 30  4  0
 11 17  2  0
 12 18  1  0
 13 15  1  0
 14 24  1  0
 15 25  1  0
 16 28  2  0
 17 20  1  0
 19 24  4  0
 20 23  1  0
 21 22  4  0
 22 23  4  0
 25 26  4  0
 27 29  2  0
M  END
$$$$

 Created by Python create_sdf_string function

 30 33  0  0  0  0  0  0  0  0999 V2000
    8.3036    9.8571   18.4133 C   0  0  0  0  0  0  0  0  0  0  0  0
    8.3694    7.6612   22.6703 C   0  0  0  0  0  0  0  0  0  0  0  0
    8.4143    6.6863   16.2273 C   0  0  0  0  0  0  0  0  0  0  0  0
   10.7581    6.5674   21.7636 C   0  0  0  0  0  0  0  0  0  0  0  0
    8.4452    8.7960   19.2958 O   0  0  0  0  0  0  0  0  0  0  0  0
    8.7122    6.7842   24.8569 C   0  0  0  0  0  0  0  0  0  0  0  0
   10.3400    6.1726   14.3081 C   0  0  0  0  0  0  0  0  0  0  0  0
    7.4297    7.5873   24.8962 C   0  0  0  0  0  0  0  0  0  0  0  0
    8.1566   10.0536   16.0516 O   0  0  0  0  0  0  0  0  0  0  0  0
   12.4989    6.2074   20.1776 C   0  0  0  0  0  0  0  0  0  0  0  0
    6.9192    9.1053   20.9073 O   0  0  0  0  0  0  0  0  0  0  0  0
   14.3979    6.0729   18.7784 C   0  0  0  0  0  0  0  0  0  0  0  0
    8.6811    9.5354   16.9998 C   0  0  0  0  0  0  0  0  0  0  0  0
    9.2512    4.2713   13.7653 O   0  0  0  0  0  0  0  0  0  0  0  0
    9.6495    8.6317   16.8332 N   0  0  0  0  0  0  0  0  0  0  0  0
    6.2934    8.6988   23.1988 O   0  0  0  0  0  0  0  0  0  0  0  0
    7.9806    8.6543   20.5437 C   0  0  0  0  0  0  0  0  0  0  0  0
   13.7270    5.7144   19.8610 O   0  0  0  0  0  0  0  0  0  0  0  0
    8.3351    5.5235   15.4478 C   0  0  0  0  0  0  0  0  0  0  0  0
    8.7700    7.8434   21.3915 C   0  0  0  0  0  0  0  0  0  0  0  0
   11.7856    6.8851   19.2401 C   0  0  0  0  0  0  0  0  0  0  0  0
   10.5281    7.4276   19.5649 C   0  0  0  0  0  0  0  0  0  0  0  0
   10.0256    7.2907   20.8484 C   0  0  0  0  0  0  0  0  0  0  0  0
    9.3113    5.3049   14.4911 C   0  0  0  0  0  0  0  0  0  0  0  0
    9.4607    7.5646   16.0139 C   0  0  0  0  0  0  0  0  0  0  0  0
   10.4192    7.3157   15.0955 C   0  0  0  0  0  0  0  0  0  0  0  0
   10.2489    6.4227   23.0218 N   0  0  0  0  0  0  0  0  0  0  0  0
    7.2472    8.0746   23.5050 C   0  0  0  0  0  0  0  0  0  0  0  0
    9.2051    6.9101   23.4604 C   0  0  0  0  0  0  0  0  0  0  0  0
   11.9646    6.0299   21.4251 C   0  0  0  0  0  0  0  0  0  0  0  0
  1  5  1  0
  1 13  1  0
  2 20  2  0
  2 28  1  0
  2 29  1  0
  3 19  4  0
  3 25  4  0
  4 23  4  0
  4 27  1  0
  4 30  4  0
  5 17  1  0
  6  8  1  0
  6 29  1  0
  7 24  4  0
  7 26  4  0
  8 28  1  0
  9 13  2  0
 10 18  1  0
 10 21  4  0
 10 30  4  0
 11 17  2  0
 12 18  1  0
 13 15  1  0
 14 24  1  0
 15 25  1  0
 16 28  2  0
 17 20  1  0
 19 24  4  0
 20 23  1  0
 21 22  4  0
 22 23  4  0
 25 26  4  0
 27 29  2  0
M  END
$$$$

 Created by Python create_sdf_string function

 30 33  0  0  0  0  0  0  0  0999 V2000
    8.3036    9.8571   18.4133 C   0  0  0  0  0  0  0  0  0  0  0  0
    8.3694    7.6612   22.6703 C   0  0  0  0  0  0  0  0  0  0  0  0
    8.4143    6.6863   16.2273 C   0  0  0  0  0  0  0  0  0  0  0  0
   10.7581    6.5674   21.7636 C   0  0  0  0  0  0  0  0  0  0  0  0
    8.4452    8.7960   19.2958 O   0  0  0  0  0  0  0  0  0  0  0  0
    8.7122    6.7842   24.8569 C   0  0  0  0  0  0  0  0  0  0  0  0
   10.3400    6.1726   14.3081 C   0  0  0  0  0  0  0  0  0  0  0  0
    7.4297    7.5873   24.8962 C   0  0  0  0  0  0  0  0  0  0  0  0
    8.1566   10.0536   16.0516 O   0  0  0  0  0  0  0  0  0  0  0  0
   12.4989    6.2074   20.1776 C   0  0  0  0  0  0  0  0  0  0  0  0
    6.9192    9.1053   20.9073 O   0  0  0  0  0  0  0  0  0  0  0  0
   14.3979    6.0729   18.7784 C   0  0  0  0  0  0  0  0  0  0  0  0
    8.6811    9.5354   16.9998 C   0  0  0  0  0  0  0  0  0  0  0  0
    9.2512    4.2713   13.7653 O   0  0  0  0  0  0  0  0  0  0  0  0
    9.6495    8.6317   16.8332 N   0  0  0  0  0  0  0  0  0  0  0  0
    6.2934    8.6988   23.1988 O   0  0  0  0  0  0  0  0  0  0  0  0
    7.9806    8.6543   20.5437 C   0  0  0  0  0  0  0  0  0  0  0  0
   13.7270    5.7144   19.8610 O   0  0  0  0  0  0  0  0  0  0  0  0
    8.3351    5.5235   15.4478 C   0  0  0  0  0  0  0  0  0  0  0  0
    8.7700    7.8434   21.3915 C   0  0  0  0  0  0  0  0  0  0  0  0
   11.7856    6.8851   19.2401 C   0  0  0  0  0  0  0  0  0  0  0  0
   10.5281    7.4276   19.5649 C   0  0  0  0  0  0  0  0  0  0  0  0
   10.0256    7.2907   20.8484 C   0  0  0  0  0  0  0  0  0  0  0  0
    9.3113    5.3049   14.4911 C   0  0  0  0  0  0  0  0  0  0  0  0
    9.4607    7.5646   16.0139 C   0  0  0  0  0  0  0  0  0  0  0  0
   10.4192    7.3157   15.0955 C   0  0  0  0  0  0  0  0  0  0  0  0
   10.2489    6.4227   23.0218 N   0  0  0  0  0  0  0  0  0  0  0  0
    7.2472    8.0746   23.5050 C   0  0  0  0  0  0  0  0  0  0  0  0
    9.2051    6.9101   23.4604 C   0  0  0  0  0  0  0  0  0  0  0  0
   11.9646    6.0299   21.4251 C   0  0  0  0  0  0  0  0  0  0  0  0
  1  5  1  0
  1 13  1  0
  2 20  2  0
  2 28  1  0
  2 29  1  0
  3 19  4  0
  3 25  4  0
  4 23  4  0
  4 27  1  0
  4 30  4  0
  5 17  1  0
  6  8  1  0
  6 29  1  0
  7 24  4  0
  7 26  4  0
  8 28  1  0
  9 13  2  0
 10 18  1  0
 10 21  4  0
 10 30  4  0
 11 17  2  0
 12 18  1  0
 13 15  1  0
 14 24  1  0
 15 25  1  0
 16 28  2  0
 17 20  1  0
 19 24  4  0
 20 23  1  0
 21 22  4  0
 22 23  4  0
 25 26  4  0
 27 29  2  0
M  END
$$$$

 Created by Python create_sdf_string function

 30 33  0  0  0  0  0  0  0  0999 V2000
    8.3036    9.8571   18.4133 C   0  0  0  0  0  0  0  0  0  0  0  0
    8.3694    7.6612   22.6703 C   0  0  0  0  0  0  0  0  0  0  0  0
    8.4143    6.6863   16.2273 C   0  0  0  0  0  0  0  0  0  0  0  0
   10.7581    6.5674   21.7636 C   0  0  0  0  0  0  0  0  0  0  0  0
    8.4452    8.7960   19.2958 O   0  0  0  0  0  0  0  0  0  0  0  0
    8.7122    6.7842   24.8569 C   0  0  0  0  0  0  0  0  0  0  0  0
   10.3400    6.1726   14.3081 C   0  0  0  0  0  0  0  0  0  0  0  0
    7.4297    7.5873   24.8962 C   0  0  0  0  0  0  0  0  0  0  0  0
    8.1566   10.0536   16.0516 O   0  0  0  0  0  0  0  0  0  0  0  0
   12.4989    6.2074   20.1776 C   0  0  0  0  0  0  0  0  0  0  0  0
    6.9192    9.1053   20.9073 O   0  0  0  0  0  0  0  0  0  0  0  0
   14.3979    6.0729   18.7784 C   0  0  0  0  0  0  0  0  0  0  0  0
    8.6811    9.5354   16.9998 C   0  0  0  0  0  0  0  0  0  0  0  0
    9.2512    4.2713   13.7653 O   0  0  0  0  0  0  0  0  0  0  0  0
    9.6495    8.6317   16.8332 N   0  0  0  0  0  0  0  0  0  0  0  0
    6.2934    8.6988   23.1988 O   0  0  0  0  0  0  0  0  0  0  0  0
    7.9806    8.6543   20.5437 C   0  0  0  0  0  0  0  0  0  0  0  0
   13.7270    5.7144   19.8610 O   0  0  0  0  0  0  0  0  0  0  0  0
    8.3351    5.5235   15.4478 C   0  0  0  0  0  0  0  0  0  0  0  0
    8.7700    7.8434   21.3915 C   0  0  0  0  0  0  0  0  0  0  0  0
   11.7856    6.8851   19.2401 C   0  0  0  0  0  0  0  0  0  0  0  0
   10.5281    7.4276   19.5649 C   0  0  0  0  0  0  0  0  0  0  0  0
   10.0256    7.2907   20.8484 C   0  0  0  0  0  0  0  0  0  0  0  0
    9.3113    5.3049   14.4911 C   0  0  0  0  0  0  0  0  0  0  0  0
    9.4607    7.5646   16.0139 C   0  0  0  0  0  0  0  0  0  0  0  0
   10.4192    7.3157   15.0955 C   0  0  0  0  0  0  0  0  0  0  0  0
   10.2489    6.4227   23.0218 N   0  0  0  0  0  0  0  0  0  0  0  0
    7.2472    8.0746   23.5050 C   0  0  0  0  0  0  0  0  0  0  0  0
    9.2051    6.9101   23.4604 C   0  0  0  0  0  0  0  0  0  0  0  0
   11.9646    6.0299   21.4251 C   0  0  0  0  0  0  0  0  0  0  0  0
  1  5  1  0
  1 13  1  0
  2 20  2  0
  2 28  1  0
  2 29  1  0
  3 19  4  0
  3 25  4  0
  4 23  4  0
  4 27  1  0
  4 30  4  0
  5 17  1  0
  6  8  1  0
  6 29  1  0
  7 24  4  0
  7 26  4  0
  8 28  1  0
  9 13  2  0
 10 18  1  0
 10 21  4  0
 10 30  4  0
 11 17  2  0
 12 18  1  0
 13 15  1  0
 14 24  1  0
 15 25  1  0
 16 28  2  0
 17 20  1  0
 19 24  4  0
 20 23  1  0
 21 22  4  0
 22 23  4  0
 25 26  4  0
 27 29  2  0
M  END
$$$$

 Created by Python create_sdf_string function

 30 33  0  0  0  0  0  0  0  0999 V2000
    8.3036    9.8571   18.4133 C   0  0  0  0  0  0  0  0  0  0  0  0
    8.3694    7.6612   22.6703 C   0  0  0  0  0  0  0  0  0  0  0  0
    8.4143    6.6863   16.2273 C   0  0  0  0  0  0  0  0  0  0  0  0
   10.7581    6.5674   21.7636 C   0  0  0  0  0  0  0  0  0  0  0  0
    8.4452    8.7960   19.2958 O   0  0  0  0  0  0  0  0  0  0  0  0
    8.7122    6.7842   24.8569 C   0  0  0  0  0  0  0  0  0  0  0  0
   10.3400    6.1726   14.3081 C   0  0  0  0  0  0  0  0  0  0  0  0
    7.4297    7.5873   24.8962 C   0  0  0  0  0  0  0  0  0  0  0  0
    8.1566   10.0536   16.0516 O   0  0  0  0  0  0  0  0  0  0  0  0
   12.4989    6.2074   20.1776 C   0  0  0  0  0  0  0  0  0  0  0  0
    6.9192    9.1053   20.9073 O   0  0  0  0  0  0  0  0  0  0  0  0
   14.3979    6.0729   18.7784 C   0  0  0  0  0  0  0  0  0  0  0  0
    8.6811    9.5354   16.9998 C   0  0  0  0  0  0  0  0  0  0  0  0
    9.2512    4.2713   13.7653 O   0  0  0  0  0  0  0  0  0  0  0  0
    9.6495    8.6317   16.8332 N   0  0  0  0  0  0  0  0  0  0  0  0
    6.2934    8.6988   23.1988 O   0  0  0  0  0  0  0  0  0  0  0  0
    7.9806    8.6543   20.5437 C   0  0  0  0  0  0  0  0  0  0  0  0
   13.7270    5.7144   19.8610 O   0  0  0  0  0  0  0  0  0  0  0  0
    8.3351    5.5235   15.4478 C   0  0  0  0  0  0  0  0  0  0  0  0
    8.7700    7.8434   21.3915 C   0  0  0  0  0  0  0  0  0  0  0  0
   11.7856    6.8851   19.2401 C   0  0  0  0  0  0  0  0  0  0  0  0
   10.5281    7.4276   19.5649 C   0  0  0  0  0  0  0  0  0  0  0  0
   10.0256    7.2907   20.8484 C   0  0  0  0  0  0  0  0  0  0  0  0
    9.3113    5.3049   14.4911 C   0  0  0  0  0  0  0  0  0  0  0  0
    9.4607    7.5646   16.0139 C   0  0  0  0  0  0  0  0  0  0  0  0
   10.4192    7.3157   15.0955 C   0  0  0  0  0  0  0  0  0  0  0  0
   10.2489    6.4227   23.0218 N   0  0  0  0  0  0  0  0  0  0  0  0
    7.2472    8.0746   23.5050 C   0  0  0  0  0  0  0  0  0  0  0  0
    9.2051    6.9101   23.4604 C   0  0  0  0  0  0  0  0  0  0  0  0
   11.9646    6.0299   21.4251 C   0  0  0  0  0  0  0  0  0  0  0  0
  1  5  1  0
  1 13  1  0
  2 20  2  0
  2 28  1  0
  2 29  1  0
  3 19  4  0
  3 25  4  0
  4 23  4  0
  4 27  1  0
  4 30  4  0
  5 17  1  0
  6  8  1  0
  6 29  1  0
  7 24  4  0
  7 26  4  0
  8 28  1  0
  9 13  2  0
 10 18  1  0
 10 21  4  0
 10 30  4  0
 11 17  2  0
 12 18  1  0
 13 15  1  0
 14 24  1  0
 15 25  1  0
 16 28  2  0
 17 20  1  0
 19 24  4  0
 20 23  1  0
 21 22  4  0
 22 23  4  0
 25 26  4  0
 27 29  2  0
M  END
$$$$

 Created by Python create_sdf_string function

 30 33  0  0  0  0  0  0  0  0999 V2000
    8.3036    9.8571   18.4133 C   0  0  0  0  0  0  0  0  0  0  0  0
    8.3694    7.6612   22.6703 C   0  0  0  0  0  0  0  0  0  0  0  0
    8.4143    6.6863   16.2273 C   0  0  0  0  0  0  0  0  0  0  0  0
   10.7581    6.5674   21.7636 C   0  0  0  0  0  0  0  0  0  0  0  0
    8.4452    8.7960   19.2958 O   0  0  0  0  0  0  0  0  0  0  0  0
    8.7122    6.7842   24.8569 C   0  0  0  0  0  0  0  0  0  0  0  0
   10.3400    6.1726   14.3081 C   0  0  0  0  0  0  0  0  0  0  0  0
    7.4297    7.5873   24.8962 C   0  0  0  0  0  0  0  0  0  0  0  0
    8.1566   10.0536   16.0516 O   0  0  0  0  0  0  0  0  0  0  0  0
   12.4989    6.2074   20.1776 C   0  0  0  0  0  0  0  0  0  0  0  0
    6.9192    9.1053   20.9073 O   0  0  0  0  0  0  0  0  0  0  0  0
   14.3979    6.0729   18.7784 C   0  0  0  0  0  0  0  0  0  0  0  0
    8.6811    9.5354   16.9998 C   0  0  0  0  0  0  0  0  0  0  0  0
    9.2512    4.2713   13.7653 O   0  0  0  0  0  0  0  0  0  0  0  0
    9.6495    8.6317   16.8332 N   0  0  0  0  0  0  0  0  0  0  0  0
    6.2934    8.6988   23.1988 O   0  0  0  0  0  0  0  0  0  0  0  0
    7.9806    8.6543   20.5437 C   0  0  0  0  0  0  0  0  0  0  0  0
   13.7270    5.7144   19.8610 O   0  0  0  0  0  0  0  0  0  0  0  0
    8.3351    5.5235   15.4478 C   0  0  0  0  0  0  0  0  0  0  0  0
    8.7700    7.8434   21.3915 C   0  0  0  0  0  0  0  0  0  0  0  0
   11.7856    6.8851   19.2401 C   0  0  0  0  0  0  0  0  0  0  0  0
   10.5281    7.4276   19.5649 C   0  0  0  0  0  0  0  0  0  0  0  0
   10.0256    7.2907   20.8484 C   0  0  0  0  0  0  0  0  0  0  0  0
    9.3113    5.3049   14.4911 C   0  0  0  0  0  0  0  0  0  0  0  0
    9.4607    7.5646   16.0139 C   0  0  0  0  0  0  0  0  0  0  0  0
   10.4192    7.3157   15.0955 C   0  0  0  0  0  0  0  0  0  0  0  0
   10.2489    6.4227   23.0218 N   0  0  0  0  0  0  0  0  0  0  0  0
    7.2472    8.0746   23.5050 C   0  0  0  0  0  0  0  0  0  0  0  0
    9.2051    6.9101   23.4604 C   0  0  0  0  0  0  0  0  0  0  0  0
   11.9646    6.0299   21.4251 C   0  0  0  0  0  0  0  0  0  0  0  0
  1  5  1  0
  1 13  1  0
  2 20  2  0
  2 28  1  0
  2 29  1  0
  3 19  4  0
  3 25  4  0
  4 23  4  0
  4 27  1  0
  4 30  4  0
  5 17  1  0
  6  8  1  0
  6 29  1  0
  7 24  4  0
  7 26  4  0
  8 28  1  0
  9 13  2  0
 10 18  1  0
 10 21  4  0
 10 30  4  0
 11 17  2  0
 12 18  1  0
 13 15  1  0
 14 24  1  0
 15 25  1  0
 16 28  2  0
 17 20  1  0
 19 24  4  0
 20 23  1  0
 21 22  4  0
 22 23  4  0
 25 26  4  0
 27 29  2  0
M  END
$$$$

 Created by Python create_sdf_string function

 30 33  0  0  0  0  0  0  0  0999 V2000
    8.3036    9.8571   18.4133 C   0  0  0  0  0  0  0  0  0  0  0  0
    8.3694    7.6612   22.6703 C   0  0  0  0  0  0  0  0  0  0  0  0
    8.4143    6.6863   16.2273 C   0  0  0  0  0  0  0  0  0  0  0  0
   10.7581    6.5674   21.7636 C   0  0  0  0  0  0  0  0  0  0  0  0
    8.4452    8.7960   19.2958 O   0  0  0  0  0  0  0  0  0  0  0  0
    8.7122    6.7842   24.8569 C   0  0  0  0  0  0  0  0  0  0  0  0
   10.3400    6.1726   14.3081 C   0  0  0  0  0  0  0  0  0  0  0  0
    7.4297    7.5873   24.8962 C   0  0  0  0  0  0  0  0  0  0  0  0
    8.1566   10.0536   16.0516 O   0  0  0  0  0  0  0  0  0  0  0  0
   12.4989    6.2074   20.1776 C   0  0  0  0  0  0  0  0  0  0  0  0
    6.9192    9.1053   20.9073 O   0  0  0  0  0  0  0  0  0  0  0  0
   14.3979    6.0729   18.7784 C   0  0  0  0  0  0  0  0  0  0  0  0
    8.6811    9.5354   16.9998 C   0  0  0  0  0  0  0  0  0  0  0  0
    9.2512    4.2713   13.7653 O   0  0  0  0  0  0  0  0  0  0  0  0
    9.6495    8.6317   16.8332 N   0  0  0  0  0  0  0  0  0  0  0  0
    6.2934    8.6988   23.1988 O   0  0  0  0  0  0  0  0  0  0  0  0
    7.9806    8.6543   20.5437 C   0  0  0  0  0  0  0  0  0  0  0  0
   13.7270    5.7144   19.8610 O   0  0  0  0  0  0  0  0  0  0  0  0
    8.3351    5.5235   15.4478 C   0  0  0  0  0  0  0  0  0  0  0  0
    8.7700    7.8434   21.3915 C   0  0  0  0  0  0  0  0  0  0  0  0
   11.7856    6.8851   19.2401 C   0  0  0  0  0  0  0  0  0  0  0  0
   10.5281    7.4276   19.5649 C   0  0  0  0  0  0  0  0  0  0  0  0
   10.0256    7.2907   20.8484 C   0  0  0  0  0  0  0  0  0  0  0  0
    9.3113    5.3049   14.4911 C   0  0  0  0  0  0  0  0  0  0  0  0
    9.4607    7.5646   16.0139 C   0  0  0  0  0  0  0  0  0  0  0  0
   10.4192    7.3157   15.0955 C   0  0  0  0  0  0  0  0  0  0  0  0
   10.2489    6.4227   23.0218 N   0  0  0  0  0  0  0  0  0  0  0  0
    7.2472    8.0746   23.5050 C   0  0  0  0  0  0  0  0  0  0  0  0
    9.2051    6.9101   23.4604 C   0  0  0  0  0  0  0  0  0  0  0  0
   11.9646    6.0299   21.4251 C   0  0  0  0  0  0  0  0  0  0  0  0
  1  5  1  0
  1 13  1  0
  2 20  2  0
  2 28  1  0
  2 29  1  0
  3 19  4  0
  3 25  4  0
  4 23  4  0
  4 27  1  0
  4 30  4  0
  5 17  1  0
  6  8  1  0
  6 29  1  0
  7 24  4  0
  7 26  4  0
  8 28  1  0
  9 13  2  0
 10 18  1  0
 10 21  4  0
 10 30  4  0
 11 17  2  0
 12 18  1  0
 13 15  1  0
 14 24  1  0
 15 25  1  0
 16 28  2  0
 17 20  1  0
 19 24  4  0
 20 23  1  0
 21 22  4  0
 22 23  4  0
 25 26  4  0
 27 29  2  0
M  END
$$$$

 Created by Python create_sdf_string function

 30 33  0  0  0  0  0  0  0  0999 V2000
    8.3036    9.8571   18.4133 C   0  0  0  0  0  0  0  0  0  0  0  0
    8.3694    7.6612   22.6703 C   0  0  0  0  0  0  0  0  0  0  0  0
    8.4143    6.6863   16.2273 C   0  0  0  0  0  0  0  0  0  0  0  0
   10.7581    6.5674   21.7636 C   0  0  0  0  0  0  0  0  0  0  0  0
    8.4452    8.7960   19.2958 O   0  0  0  0  0  0  0  0  0  0  0  0
    8.7122    6.7842   24.8569 C   0  0  0  0  0  0  0  0  0  0  0  0
   10.3400    6.1726   14.3081 C   0  0  0  0  0  0  0  0  0  0  0  0
    7.4297    7.5873   24.8962 C   0  0  0  0  0  0  0  0  0  0  0  0
    8.1566   10.0536   16.0516 O   0  0  0  0  0  0  0  0  0  0  0  0
   12.4989    6.2074   20.1776 C   0  0  0  0  0  0  0  0  0  0  0  0
    6.9192    9.1053   20.9073 O   0  0  0  0  0  0  0  0  0  0  0  0
   14.3979    6.0729   18.7784 C   0  0  0  0  0  0  0  0  0  0  0  0
    8.6811    9.5354   16.9998 C   0  0  0  0  0  0  0  0  0  0  0  0
    9.2512    4.2713   13.7653 O   0  0  0  0  0  0  0  0  0  0  0  0
    9.6495    8.6317   16.8332 N   0  0  0  0  0  0  0  0  0  0  0  0
    6.2934    8.6988   23.1988 O   0  0  0  0  0  0  0  0  0  0  0  0
    7.9806    8.6543   20.5437 C   0  0  0  0  0  0  0  0  0  0  0  0
   13.7270    5.7144   19.8610 O   0  0  0  0  0  0  0  0  0  0  0  0
    8.3351    5.5235   15.4478 C   0  0  0  0  0  0  0  0  0  0  0  0
    8.7700    7.8434   21.3915 C   0  0  0  0  0  0  0  0  0  0  0  0
   11.7856    6.8851   19.2401 C   0  0  0  0  0  0  0  0  0  0  0  0
   10.5281    7.4276   19.5649 C   0  0  0  0  0  0  0  0  0  0  0  0
   10.0256    7.2907   20.8484 C   0  0  0  0  0  0  0  0  0  0  0  0
    9.3113    5.3049   14.4911 C   0  0  0  0  0  0  0  0  0  0  0  0
    9.4607    7.5646   16.0139 C   0  0  0  0  0  0  0  0  0  0  0  0
   10.4192    7.3157   15.0955 C   0  0  0  0  0  0  0  0  0  0  0  0
   10.2489    6.4227   23.0218 N   0  0  0  0  0  0  0  0  0  0  0  0
    7.2472    8.0746   23.5050 C   0  0  0  0  0  0  0  0  0  0  0  0
    9.2051    6.9101   23.4604 C   0  0  0  0  0  0  0  0  0  0  0  0
   11.9646    6.0299   21.4251 C   0  0  0  0  0  0  0  0  0  0  0  0
  1  5  1  0
  1 13  1  0
  2 20  2  0
  2 28  1  0
  2 29  1  0
  3 19  4  0
  3 25  4  0
  4 23  4  0
  4 27  1  0
  4 30  4  0
  5 17  1  0
  6  8  1  0
  6 29  1  0
  7 24  4  0
  7 26  4  0
  8 28  1  0
  9 13  2  0
 10 18  1  0
 10 21  4  0
 10 30  4  0
 11 17  2  0
 12 18  1  0
 13 15  1  0
 14 24  1  0
 15 25  1  0
 16 28  2  0
 17 20  1  0
 19 24  4  0
 20 23  1  0
 21 22  4  0
 22 23  4  0
 25 26  4  0
 27 29  2  0
M  END
$$$$

 Created by Python create_sdf_string function

 30 33  0  0  0  0  0  0  0  0999 V2000
    8.3036    9.8571   18.4133 C   0  0  0  0  0  0  0  0  0  0  0  0
    8.3694    7.6612   22.6703 C   0  0  0  0  0  0  0  0  0  0  0  0
    8.4143    6.6863   16.2273 C   0  0  0  0  0  0  0  0  0  0  0  0
   10.7581    6.5674   21.7636 C   0  0  0  0  0  0  0  0  0  0  0  0
    8.4452    8.7960   19.2958 O   0  0  0  0  0  0  0  0  0  0  0  0
    8.7122    6.7842   24.8569 C   0  0  0  0  0  0  0  0  0  0  0  0
   10.3400    6.1726   14.3081 C   0  0  0  0  0  0  0  0  0  0  0  0
    7.4297    7.5873   24.8962 C   0  0  0  0  0  0  0  0  0  0  0  0
    8.1566   10.0536   16.0516 O   0  0  0  0  0  0  0  0  0  0  0  0
   12.4989    6.2074   20.1776 C   0  0  0  0  0  0  0  0  0  0  0  0
    6.9192    9.1053   20.9073 O   0  0  0  0  0  0  0  0  0  0  0  0
   14.3979    6.0729   18.7784 C   0  0  0  0  0  0  0  0  0  0  0  0
    8.6811    9.5354   16.9998 C   0  0  0  0  0  0  0  0  0  0  0  0
    9.2512    4.2713   13.7653 O   0  0  0  0  0  0  0  0  0  0  0  0
    9.6495    8.6317   16.8332 N   0  0  0  0  0  0  0  0  0  0  0  0
    6.2934    8.6988   23.1988 O   0  0  0  0  0  0  0  0  0  0  0  0
    7.9806    8.6543   20.5437 C   0  0  0  0  0  0  0  0  0  0  0  0
   13.7270    5.7144   19.8610 O   0  0  0  0  0  0  0  0  0  0  0  0
    8.3351    5.5235   15.4478 C   0  0  0  0  0  0  0  0  0  0  0  0
    8.7700    7.8434   21.3915 C   0  0  0  0  0  0  0  0  0  0  0  0
   11.7856    6.8851   19.2401 C   0  0  0  0  0  0  0  0  0  0  0  0
   10.5281    7.4276   19.5649 C   0  0  0  0  0  0  0  0  0  0  0  0
   10.0256    7.2907   20.8484 C   0  0  0  0  0  0  0  0  0  0  0  0
    9.3113    5.3049   14.4911 C   0  0  0  0  0  0  0  0  0  0  0  0
    9.4607    7.5646   16.0139 C   0  0  0  0  0  0  0  0  0  0  0  0
   10.4192    7.3157   15.0955 C   0  0  0  0  0  0  0  0  0  0  0  0
   10.2489    6.4227   23.0218 N   0  0  0  0  0  0  0  0  0  0  0  0
    7.2472    8.0746   23.5050 C   0  0  0  0  0  0  0  0  0  0  0  0
    9.2051    6.9101   23.4604 C   0  0  0  0  0  0  0  0  0  0  0  0
   11.9646    6.0299   21.4251 C   0  0  0  0  0  0  0  0  0  0  0  0
  1  5  1  0
  1 13  1  0
  2 20  2  0
  2 28  1  0
  2 29  1  0
  3 19  4  0
  3 25  4  0
  4 23  4  0
  4 27  1  0
  4 30  4  0
  5 17  1  0
  6  8  1  0
  6 29  1  0
  7 24  4  0
  7 26  4  0
  8 28  1  0
  9 13  2  0
 10 18  1  0
 10 21  4  0
 10 30  4  0
 11 17  2  0
 12 18  1  0
 13 15  1  0
 14 24  1  0
 15 25  1  0
 16 28  2  0
 17 20  1  0
 19 24  4  0
 20 23  1  0
 21 22  4  0
 22 23  4  0
 25 26  4  0
 27 29  2  0
M  END
$$$$

 Created by Python create_sdf_string function

 30 33  0  0  0  0  0  0  0  0999 V2000
    8.3036    9.8571   18.4133 C   0  0  0  0  0  0  0  0  0  0  0  0
    8.3694    7.6612   22.6703 C   0  0  0  0  0  0  0  0  0  0  0  0
    8.4143    6.6863   16.2273 C   0  0  0  0  0  0  0  0  0  0  0  0
   10.7581    6.5674   21.7636 C   0  0  0  0  0  0  0  0  0  0  0  0
    8.4452    8.7960   19.2958 O   0  0  0  0  0  0  0  0  0  0  0  0
    8.7122    6.7842   24.8569 C   0  0  0  0  0  0  0  0  0  0  0  0
   10.3400    6.1726   14.3081 C   0  0  0  0  0  0  0  0  0  0  0  0
    7.4297    7.5873   24.8962 C   0  0  0  0  0  0  0  0  0  0  0  0
    8.1566   10.0536   16.0516 O   0  0  0  0  0  0  0  0  0  0  0  0
   12.4989    6.2074   20.1776 C   0  0  0  0  0  0  0  0  0  0  0  0
    6.9192    9.1053   20.9073 O   0  0  0  0  0  0  0  0  0  0  0  0
   14.3979    6.0729   18.7784 C   0  0  0  0  0  0  0  0  0  0  0  0
    8.6811    9.5354   16.9998 C   0  0  0  0  0  0  0  0  0  0  0  0
    9.2512    4.2713   13.7653 O   0  0  0  0  0  0  0  0  0  0  0  0
    9.6495    8.6317   16.8332 N   0  0  0  0  0  0  0  0  0  0  0  0
    6.2934    8.6988   23.1988 O   0  0  0  0  0  0  0  0  0  0  0  0
    7.9806    8.6543   20.5437 C   0  0  0  0  0  0  0  0  0  0  0  0
   13.7270    5.7144   19.8610 O   0  0  0  0  0  0  0  0  0  0  0  0
    8.3351    5.5235   15.4478 C   0  0  0  0  0  0  0  0  0  0  0  0
    8.7700    7.8434   21.3915 C   0  0  0  0  0  0  0  0  0  0  0  0
   11.7856    6.8851   19.2401 C   0  0  0  0  0  0  0  0  0  0  0  0
   10.5281    7.4276   19.5649 C   0  0  0  0  0  0  0  0  0  0  0  0
   10.0256    7.2907   20.8484 C   0  0  0  0  0  0  0  0  0  0  0  0
    9.3113    5.3049   14.4911 C   0  0  0  0  0  0  0  0  0  0  0  0
    9.4607    7.5646   16.0139 C   0  0  0  0  0  0  0  0  0  0  0  0
   10.4192    7.3157   15.0955 C   0  0  0  0  0  0  0  0  0  0  0  0
   10.2489    6.4227   23.0218 N   0  0  0  0  0  0  0  0  0  0  0  0
    7.2472    8.0746   23.5050 C   0  0  0  0  0  0  0  0  0  0  0  0
    9.2051    6.9101   23.4604 C   0  0  0  0  0  0  0  0  0  0  0  0
   11.9646    6.0299   21.4251 C   0  0  0  0  0  0  0  0  0  0  0  0
  1  5  1  0
  1 13  1  0
  2 20  2  0
  2 28  1  0
  2 29  1  0
  3 19  4  0
  3 25  4  0
  4 23  4  0
  4 27  1  0
  4 30  4  0
  5 17  1  0
  6  8  1  0
  6 29  1  0
  7 24  4  0
  7 26  4  0
  8 28  1  0
  9 13  2  0
 10 18  1  0
 10 21  4  0
 10 30  4  0
 11 17  2  0
 12 18  1  0
 13 15  1  0
 14 24  1  0
 15 25  1  0
 16 28  2  0
 17 20  1  0
 19 24  4  0
 20 23  1  0
 21 22  4  0
 22 23  4  0
 25 26  4  0
 27 29  2  0
M  END
$$$$

 Created by Python create_sdf_string function

 30 33  0  0  0  0  0  0  0  0999 V2000
    8.3036    9.8571   18.4133 C   0  0  0  0  0  0  0  0  0  0  0  0
    8.3694    7.6612   22.6703 C   0  0  0  0  0  0  0  0  0  0  0  0
    8.4143    6.6863   16.2273 C   0  0  0  0  0  0  0  0  0  0  0  0
   10.7581    6.5674   21.7636 C   0  0  0  0  0  0  0  0  0  0  0  0
    8.4452    8.7960   19.2958 O   0  0  0  0  0  0  0  0  0  0  0  0
    8.7122    6.7842   24.8569 C   0  0  0  0  0  0  0  0  0  0  0  0
   10.3400    6.1726   14.3081 C   0  0  0  0  0  0  0  0  0  0  0  0
    7.4297    7.5873   24.8962 C   0  0  0  0  0  0  0  0  0  0  0  0
    8.1566   10.0536   16.0516 O   0  0  0  0  0  0  0  0  0  0  0  0
   12.4989    6.2074   20.1776 C   0  0  0  0  0  0  0  0  0  0  0  0
    6.9192    9.1053   20.9073 O   0  0  0  0  0  0  0  0  0  0  0  0
   14.3979    6.0729   18.7784 C   0  0  0  0  0  0  0  0  0  0  0  0
    8.6811    9.5354   16.9998 C   0  0  0  0  0  0  0  0  0  0  0  0
    9.2512    4.2713   13.7653 O   0  0  0  0  0  0  0  0  0  0  0  0
    9.6495    8.6317   16.8332 N   0  0  0  0  0  0  0  0  0  0  0  0
    6.2934    8.6988   23.1988 O   0  0  0  0  0  0  0  0  0  0  0  0
    7.9806    8.6543   20.5437 C   0  0  0  0  0  0  0  0  0  0  0  0
   13.7270    5.7144   19.8610 O   0  0  0  0  0  0  0  0  0  0  0  0
    8.3351    5.5235   15.4478 C   0  0  0  0  0  0  0  0  0  0  0  0
    8.7700    7.8434   21.3915 C   0  0  0  0  0  0  0  0  0  0  0  0
   11.7856    6.8851   19.2401 C   0  0  0  0  0  0  0  0  0  0  0  0
   10.5281    7.4276   19.5649 C   0  0  0  0  0  0  0  0  0  0  0  0
   10.0256    7.2907   20.8484 C   0  0  0  0  0  0  0  0  0  0  0  0
    9.3113    5.3049   14.4911 C   0  0  0  0  0  0  0  0  0  0  0  0
    9.4607    7.5646   16.0139 C   0  0  0  0  0  0  0  0  0  0  0  0
   10.4192    7.3157   15.0955 C   0  0  0  0  0  0  0  0  0  0  0  0
   10.2489    6.4227   23.0218 N   0  0  0  0  0  0  0  0  0  0  0  0
    7.2472    8.0746   23.5050 C   0  0  0  0  0  0  0  0  0  0  0  0
    9.2051    6.9101   23.4604 C   0  0  0  0  0  0  0  0  0  0  0  0
   11.9646    6.0299   21.4251 C   0  0  0  0  0  0  0  0  0  0  0  0
  1  5  1  0
  1 13  1  0
  2 20  2  0
  2 28  1  0
  2 29  1  0
  3 19  4  0
  3 25  4  0
  4 23  4  0
  4 27  1  0
  4 30  4  0
  5 17  1  0
  6  8  1  0
  6 29  1  0
  7 24  4  0
  7 26  4  0
  8 28  1  0
  9 13  2  0
 10 18  1  0
 10 21  4  0
 10 30  4  0
 11 17  2  0
 12 18  1  0
 13 15  1  0
 14 24  1  0
 15 25  1  0
 16 28  2  0
 17 20  1  0
 19 24  4  0
 20 23  1  0
 21 22  4  0
 22 23  4  0
 25 26  4  0
 27 29  2  0
M  END
$$$$

 Created by Python create_sdf_string function

 30 33  0  0  0  0  0  0  0  0999 V2000
    8.3036    9.8571   18.4133 C   0  0  0  0  0  0  0  0  0  0  0  0
    8.3694    7.6612   22.6703 C   0  0  0  0  0  0  0  0  0  0  0  0
    8.4143    6.6863   16.2273 C   0  0  0  0  0  0  0  0  0  0  0  0
   10.7581    6.5674   21.7636 C   0  0  0  0  0  0  0  0  0  0  0  0
    8.4452    8.7960   19.2958 O   0  0  0  0  0  0  0  0  0  0  0  0
    8.7122    6.7842   24.8569 C   0  0  0  0  0  0  0  0  0  0  0  0
   10.3400    6.1726   14.3081 C   0  0  0  0  0  0  0  0  0  0  0  0
    7.4297    7.5873   24.8962 C   0  0  0  0  0  0  0  0  0  0  0  0
    8.1566   10.0536   16.0516 O   0  0  0  0  0  0  0  0  0  0  0  0
   12.4989    6.2074   20.1776 C   0  0  0  0  0  0  0  0  0  0  0  0
    6.9192    9.1053   20.9073 O   0  0  0  0  0  0  0  0  0  0  0  0
   14.3979    6.0729   18.7784 C   0  0  0  0  0  0  0  0  0  0  0  0
    8.6811    9.5354   16.9998 C   0  0  0  0  0  0  0  0  0  0  0  0
    9.2512    4.2713   13.7653 O   0  0  0  0  0  0  0  0  0  0  0  0
    9.6495    8.6317   16.8332 N   0  0  0  0  0  0  0  0  0  0  0  0
    6.2934    8.6988   23.1988 O   0  0  0  0  0  0  0  0  0  0  0  0
    7.9806    8.6543   20.5437 C   0  0  0  0  0  0  0  0  0  0  0  0
   13.7270    5.7144   19.8610 O   0  0  0  0  0  0  0  0  0  0  0  0
    8.3351    5.5235   15.4478 C   0  0  0  0  0  0  0  0  0  0  0  0
    8.7700    7.8434   21.3915 C   0  0  0  0  0  0  0  0  0  0  0  0
   11.7856    6.8851   19.2401 C   0  0  0  0  0  0  0  0  0  0  0  0
   10.5281    7.4276   19.5649 C   0  0  0  0  0  0  0  0  0  0  0  0
   10.0256    7.2907   20.8484 C   0  0  0  0  0  0  0  0  0  0  0  0
    9.3113    5.3049   14.4911 C   0  0  0  0  0  0  0  0  0  0  0  0
    9.4607    7.5646   16.0139 C   0  0  0  0  0  0  0  0  0  0  0  0
   10.4192    7.3157   15.0955 C   0  0  0  0  0  0  0  0  0  0  0  0
   10.2489    6.4227   23.0218 N   0  0  0  0  0  0  0  0  0  0  0  0
    7.2472    8.0746   23.5050 C   0  0  0  0  0  0  0  0  0  0  0  0
    9.2051    6.9101   23.4604 C   0  0  0  0  0  0  0  0  0  0  0  0
   11.9646    6.0299   21.4251 C   0  0  0  0  0  0  0  0  0  0  0  0
  1  5  1  0
  1 13  1  0
  2 20  2  0
  2 28  1  0
  2 29  1  0
  3 19  4  0
  3 25  4  0
  4 23  4  0
  4 27  1  0
  4 30  4  0
  5 17  1  0
  6  8  1  0
  6 29  1  0
  7 24  4  0
  7 26  4  0
  8 28  1  0
  9 13  2  0
 10 18  1  0
 10 21  4  0
 10 30  4  0
 11 17  2  0
 12 18  1  0
 13 15  1  0
 14 24  1  0
 15 25  1  0
 16 28  2  0
 17 20  1  0
 19 24  4  0
 20 23  1  0
 21 22  4  0
 22 23  4  0
 25 26  4  0
 27 29  2  0
M  END
$$$$

 Created by Python create_sdf_string function

 30 33  0  0  0  0  0  0  0  0999 V2000
    8.3036    9.8571   18.4133 C   0  0  0  0  0  0  0  0  0  0  0  0
    8.3694    7.6612   22.6703 C   0  0  0  0  0  0  0  0  0  0  0  0
    8.4143    6.6863   16.2273 C   0  0  0  0  0  0  0  0  0  0  0  0
   10.7581    6.5674   21.7636 C   0  0  0  0  0  0  0  0  0  0  0  0
    8.4452    8.7960   19.2958 O   0  0  0  0  0  0  0  0  0  0  0  0
    8.7122    6.7842   24.8569 C   0  0  0  0  0  0  0  0  0  0  0  0
   10.3400    6.1726   14.3081 C   0  0  0  0  0  0  0  0  0  0  0  0
    7.4297    7.5873   24.8962 C   0  0  0  0  0  0  0  0  0  0  0  0
    8.1566   10.0536   16.0516 O   0  0  0  0  0  0  0  0  0  0  0  0
   12.4989    6.2074   20.1776 C   0  0  0  0  0  0  0  0  0  0  0  0
    6.9192    9.1053   20.9073 O   0  0  0  0  0  0  0  0  0  0  0  0
   14.3979    6.0729   18.7784 C   0  0  0  0  0  0  0  0  0  0  0  0
    8.6811    9.5354   16.9998 C   0  0  0  0  0  0  0  0  0  0  0  0
    9.2512    4.2713   13.7653 O   0  0  0  0  0  0  0  0  0  0  0  0
    9.6495    8.6317   16.8332 N   0  0  0  0  0  0  0  0  0  0  0  0
    6.2934    8.6988   23.1988 O   0  0  0  0  0  0  0  0  0  0  0  0
    7.9806    8.6543   20.5437 C   0  0  0  0  0  0  0  0  0  0  0  0
   13.7270    5.7144   19.8610 O   0  0  0  0  0  0  0  0  0  0  0  0
    8.3351    5.5235   15.4478 C   0  0  0  0  0  0  0  0  0  0  0  0
    8.7700    7.8434   21.3915 C   0  0  0  0  0  0  0  0  0  0  0  0
   11.7856    6.8851   19.2401 C   0  0  0  0  0  0  0  0  0  0  0  0
   10.5281    7.4276   19.5649 C   0  0  0  0  0  0  0  0  0  0  0  0
   10.0256    7.2907   20.8484 C   0  0  0  0  0  0  0  0  0  0  0  0
    9.3113    5.3049   14.4911 C   0  0  0  0  0  0  0  0  0  0  0  0
    9.4607    7.5646   16.0139 C   0  0  0  0  0  0  0  0  0  0  0  0
   10.4192    7.3157   15.0955 C   0  0  0  0  0  0  0  0  0  0  0  0
   10.2489    6.4227   23.0218 N   0  0  0  0  0  0  0  0  0  0  0  0
    7.2472    8.0746   23.5050 C   0  0  0  0  0  0  0  0  0  0  0  0
    9.2051    6.9101   23.4604 C   0  0  0  0  0  0  0  0  0  0  0  0
   11.9646    6.0299   21.4251 C   0  0  0  0  0  0  0  0  0  0  0  0
  1  5  1  0
  1 13  1  0
  2 20  2  0
  2 28  1  0
  2 29  1  0
  3 19  4  0
  3 25  4  0
  4 23  4  0
  4 27  1  0
  4 30  4  0
  5 17  1  0
  6  8  1  0
  6 29  1  0
  7 24  4  0
  7 26  4  0
  8 28  1  0
  9 13  2  0
 10 18  1  0
 10 21  4  0
 10 30  4  0
 11 17  2  0
 12 18  1  0
 13 15  1  0
 14 24  1  0
 15 25  1  0
 16 28  2  0
 17 20  1  0
 19 24  4  0
 20 23  1  0
 21 22  4  0
 22 23  4  0
 25 26  4  0
 27 29  2  0
M  END
$$$$

 Created by Python create_sdf_string function

 30 33  0  0  0  0  0  0  0  0999 V2000
    8.3036    9.8571   18.4133 C   0  0  0  0  0  0  0  0  0  0  0  0
    8.3694    7.6612   22.6703 C   0  0  0  0  0  0  0  0  0  0  0  0
    8.4143    6.6863   16.2273 C   0  0  0  0  0  0  0  0  0  0  0  0
   10.7581    6.5674   21.7636 C   0  0  0  0  0  0  0  0  0  0  0  0
    8.4452    8.7960   19.2958 O   0  0  0  0  0  0  0  0  0  0  0  0
    8.7122    6.7842   24.8569 C   0  0  0  0  0  0  0  0  0  0  0  0
   10.3400    6.1726   14.3081 C   0  0  0  0  0  0  0  0  0  0  0  0
    7.4297    7.5873   24.8962 C   0  0  0  0  0  0  0  0  0  0  0  0
    8.1566   10.0536   16.0516 O   0  0  0  0  0  0  0  0  0  0  0  0
   12.4989    6.2074   20.1776 C   0  0  0  0  0  0  0  0  0  0  0  0
    6.9192    9.1053   20.9073 O   0  0  0  0  0  0  0  0  0  0  0  0
   14.3979    6.0729   18.7784 C   0  0  0  0  0  0  0  0  0  0  0  0
    8.6811    9.5354   16.9998 C   0  0  0  0  0  0  0  0  0  0  0  0
    9.2512    4.2713   13.7653 O   0  0  0  0  0  0  0  0  0  0  0  0
    9.6495    8.6317   16.8332 N   0  0  0  0  0  0  0  0  0  0  0  0
    6.2934    8.6988   23.1988 O   0  0  0  0  0  0  0  0  0  0  0  0
    7.9806    8.6543   20.5437 C   0  0  0  0  0  0  0  0  0  0  0  0
   13.7270    5.7144   19.8610 O   0  0  0  0  0  0  0  0  0  0  0  0
    8.3351    5.5235   15.4478 C   0  0  0  0  0  0  0  0  0  0  0  0
    8.7700    7.8434   21.3915 C   0  0  0  0  0  0  0  0  0  0  0  0
   11.7856    6.8851   19.2401 C   0  0  0  0  0  0  0  0  0  0  0  0
   10.5281    7.4276   19.5649 C   0  0  0  0  0  0  0  0  0  0  0  0
   10.0256    7.2907   20.8484 C   0  0  0  0  0  0  0  0  0  0  0  0
    9.3113    5.3049   14.4911 C   0  0  0  0  0  0  0  0  0  0  0  0
    9.4607    7.5646   16.0139 C   0  0  0  0  0  0  0  0  0  0  0  0
   10.4192    7.3157   15.0955 C   0  0  0  0  0  0  0  0  0  0  0  0
   10.2489    6.4227   23.0218 N   0  0  0  0  0  0  0  0  0  0  0  0
    7.2472    8.0746   23.5050 C   0  0  0  0  0  0  0  0  0  0  0  0
    9.2051    6.9101   23.4604 C   0  0  0  0  0  0  0  0  0  0  0  0
   11.9646    6.0299   21.4251 C   0  0  0  0  0  0  0  0  0  0  0  0
  1  5  1  0
  1 13  1  0
  2 20  2  0
  2 28  1  0
  2 29  1  0
  3 19  4  0
  3 25  4  0
  4 23  4  0
  4 27  1  0
  4 30  4  0
  5 17  1  0
  6  8  1  0
  6 29  1  0
  7 24  4  0
  7 26  4  0
  8 28  1  0
  9 13  2  0
 10 18  1  0
 10 21  4  0
 10 30  4  0
 11 17  2  0
 12 18  1  0
 13 15  1  0
 14 24  1  0
 15 25  1  0
 16 28  2  0
 17 20  1  0
 19 24  4  0
 20 23  1  0
 21 22  4  0
 22 23  4  0
 25 26  4  0
 27 29  2  0
M  END
$$$$

 Created by Python create_sdf_string function

 30 33  0  0  0  0  0  0  0  0999 V2000
    8.3036    9.8571   18.4133 C   0  0  0  0  0  0  0  0  0  0  0  0
    8.3694    7.6612   22.6703 C   0  0  0  0  0  0  0  0  0  0  0  0
    8.4143    6.6863   16.2273 C   0  0  0  0  0  0  0  0  0  0  0  0
   10.7581    6.5674   21.7636 C   0  0  0  0  0  0  0  0  0  0  0  0
    8.4452    8.7960   19.2958 O   0  0  0  0  0  0  0  0  0  0  0  0
    8.7122    6.7842   24.8569 C   0  0  0  0  0  0  0  0  0  0  0  0
   10.3400    6.1726   14.3081 C   0  0  0  0  0  0  0  0  0  0  0  0
    7.4297    7.5873   24.8962 C   0  0  0  0  0  0  0  0  0  0  0  0
    8.1566   10.0536   16.0516 O   0  0  0  0  0  0  0  0  0  0  0  0
   12.4989    6.2074   20.1776 C   0  0  0  0  0  0  0  0  0  0  0  0
    6.9192    9.1053   20.9073 O   0  0  0  0  0  0  0  0  0  0  0  0
   14.3979    6.0729   18.7784 C   0  0  0  0  0  0  0  0  0  0  0  0
    8.6811    9.5354   16.9998 C   0  0  0  0  0  0  0  0  0  0  0  0
    9.2512    4.2713   13.7653 O   0  0  0  0  0  0  0  0  0  0  0  0
    9.6495    8.6317   16.8332 N   0  0  0  0  0  0  0  0  0  0  0  0
    6.2934    8.6988   23.1988 O   0  0  0  0  0  0  0  0  0  0  0  0
    7.9806    8.6543   20.5437 C   0  0  0  0  0  0  0  0  0  0  0  0
   13.7270    5.7144   19.8610 O   0  0  0  0  0  0  0  0  0  0  0  0
    8.3351    5.5235   15.4478 C   0  0  0  0  0  0  0  0  0  0  0  0
    8.7700    7.8434   21.3915 C   0  0  0  0  0  0  0  0  0  0  0  0
   11.7856    6.8851   19.2401 C   0  0  0  0  0  0  0  0  0  0  0  0
   10.5281    7.4276   19.5649 C   0  0  0  0  0  0  0  0  0  0  0  0
   10.0256    7.2907   20.8484 C   0  0  0  0  0  0  0  0  0  0  0  0
    9.3113    5.3049   14.4911 C   0  0  0  0  0  0  0  0  0  0  0  0
    9.4607    7.5646   16.0139 C   0  0  0  0  0  0  0  0  0  0  0  0
   10.4192    7.3157   15.0955 C   0  0  0  0  0  0  0  0  0  0  0  0
   10.2489    6.4227   23.0218 N   0  0  0  0  0  0  0  0  0  0  0  0
    7.2472    8.0746   23.5050 C   0  0  0  0  0  0  0  0  0  0  0  0
    9.2051    6.9101   23.4604 C   0  0  0  0  0  0  0  0  0  0  0  0
   11.9646    6.0299   21.4251 C   0  0  0  0  0  0  0  0  0  0  0  0
  1  5  1  0
  1 13  1  0
  2 20  2  0
  2 28  1  0
  2 29  1  0
  3 19  4  0
  3 25  4  0
  4 23  4  0
  4 27  1  0
  4 30  4  0
  5 17  1  0
  6  8  1  0
  6 29  1  0
  7 24  4  0
  7 26  4  0
  8 28  1  0
  9 13  2  0
 10 18  1  0
 10 21  4  0
 10 30  4  0
 11 17  2  0
 12 18  1  0
 13 15  1  0
 14 24  1  0
 15 25  1  0
 16 28  2  0
 17 20  1  0
 19 24  4  0
 20 23  1  0
 21 22  4  0
 22 23  4  0
 25 26  4  0
 27 29  2  0
M  END
$$$$

 Created by Python create_sdf_string function

 30 33  0  0  0  0  0  0  0  0999 V2000
    8.3036    9.8571   18.4133 C   0  0  0  0  0  0  0  0  0  0  0  0
    8.3694    7.6612   22.6703 C   0  0  0  0  0  0  0  0  0  0  0  0
    8.4143    6.6863   16.2273 C   0  0  0  0  0  0  0  0  0  0  0  0
   10.7581    6.5674   21.7636 C   0  0  0  0  0  0  0  0  0  0  0  0
    8.4452    8.7960   19.2958 O   0  0  0  0  0  0  0  0  0  0  0  0
    8.7122    6.7842   24.8569 C   0  0  0  0  0  0  0  0  0  0  0  0
   10.3400    6.1726   14.3081 C   0  0  0  0  0  0  0  0  0  0  0  0
    7.4297    7.5873   24.8962 C   0  0  0  0  0  0  0  0  0  0  0  0
    8.1566   10.0536   16.0516 O   0  0  0  0  0  0  0  0  0  0  0  0
   12.4989    6.2074   20.1776 C   0  0  0  0  0  0  0  0  0  0  0  0
    6.9192    9.1053   20.9073 O   0  0  0  0  0  0  0  0  0  0  0  0
   14.3979    6.0729   18.7784 C   0  0  0  0  0  0  0  0  0  0  0  0
    8.6811    9.5354   16.9998 C   0  0  0  0  0  0  0  0  0  0  0  0
    9.2512    4.2713   13.7653 O   0  0  0  0  0  0  0  0  0  0  0  0
    9.6495    8.6317   16.8332 N   0  0  0  0  0  0  0  0  0  0  0  0
    6.2934    8.6988   23.1988 O   0  0  0  0  0  0  0  0  0  0  0  0
    7.9806    8.6543   20.5437 C   0  0  0  0  0  0  0  0  0  0  0  0
   13.7270    5.7144   19.8610 O   0  0  0  0  0  0  0  0  0  0  0  0
    8.3351    5.5235   15.4478 C   0  0  0  0  0  0  0  0  0  0  0  0
    8.7700    7.8434   21.3915 C   0  0  0  0  0  0  0  0  0  0  0  0
   11.7856    6.8851   19.2401 C   0  0  0  0  0  0  0  0  0  0  0  0
   10.5281    7.4276   19.5649 C   0  0  0  0  0  0  0  0  0  0  0  0
   10.0256    7.2907   20.8484 C   0  0  0  0  0  0  0  0  0  0  0  0
    9.3113    5.3049   14.4911 C   0  0  0  0  0  0  0  0  0  0  0  0
    9.4607    7.5646   16.0139 C   0  0  0  0  0  0  0  0  0  0  0  0
   10.4192    7.3157   15.0955 C   0  0  0  0  0  0  0  0  0  0  0  0
   10.2489    6.4227   23.0218 N   0  0  0  0  0  0  0  0  0  0  0  0
    7.2472    8.0746   23.5050 C   0  0  0  0  0  0  0  0  0  0  0  0
    9.2051    6.9101   23.4604 C   0  0  0  0  0  0  0  0  0  0  0  0
   11.9646    6.0299   21.4251 C   0  0  0  0  0  0  0  0  0  0  0  0
  1  5  1  0
  1 13  1  0
  2 20  2  0
  2 28  1  0
  2 29  1  0
  3 19  4  0
  3 25  4  0
  4 23  4  0
  4 27  1  0
  4 30  4  0
  5 17  1  0
  6  8  1  0
  6 29  1  0
  7 24  4  0
  7 26  4  0
  8 28  1  0
  9 13  2  0
 10 18  1  0
 10 21  4  0
 10 30  4  0
 11 17  2  0
 12 18  1  0
 13 15  1  0
 14 24  1  0
 15 25  1  0
 16 28  2  0
 17 20  1  0
 19 24  4  0
 20 23  1  0
 21 22  4  0
 22 23  4  0
 25 26  4  0
 27 29  2  0
M  END
$$$$

 Created by Python create_sdf_string function

 30 33  0  0  0  0  0  0  0  0999 V2000
    8.3036    9.8571   18.4133 C   0  0  0  0  0  0  0  0  0  0  0  0
    8.3694    7.6612   22.6703 C   0  0  0  0  0  0  0  0  0  0  0  0
    8.4143    6.6863   16.2273 C   0  0  0  0  0  0  0  0  0  0  0  0
   10.7581    6.5674   21.7636 C   0  0  0  0  0  0  0  0  0  0  0  0
    8.4452    8.7960   19.2958 O   0  0  0  0  0  0  0  0  0  0  0  0
    8.7122    6.7842   24.8569 C   0  0  0  0  0  0  0  0  0  0  0  0
   10.3400    6.1726   14.3081 C   0  0  0  0  0  0  0  0  0  0  0  0
    7.4297    7.5873   24.8962 C   0  0  0  0  0  0  0  0  0  0  0  0
    8.1566   10.0536   16.0516 O   0  0  0  0  0  0  0  0  0  0  0  0
   12.4989    6.2074   20.1776 C   0  0  0  0  0  0  0  0  0  0  0  0
    6.9192    9.1053   20.9073 O   0  0  0  0  0  0  0  0  0  0  0  0
   14.3979    6.0729   18.7784 C   0  0  0  0  0  0  0  0  0  0  0  0
    8.6811    9.5354   16.9998 C   0  0  0  0  0  0  0  0  0  0  0  0
    9.2512    4.2713   13.7653 O   0  0  0  0  0  0  0  0  0  0  0  0
    9.6495    8.6317   16.8332 N   0  0  0  0  0  0  0  0  0  0  0  0
    6.2934    8.6988   23.1988 O   0  0  0  0  0  0  0  0  0  0  0  0
    7.9806    8.6543   20.5437 C   0  0  0  0  0  0  0  0  0  0  0  0
   13.7270    5.7144   19.8610 O   0  0  0  0  0  0  0  0  0  0  0  0
    8.3351    5.5235   15.4478 C   0  0  0  0  0  0  0  0  0  0  0  0
    8.7700    7.8434   21.3915 C   0  0  0  0  0  0  0  0  0  0  0  0
   11.7856    6.8851   19.2401 C   0  0  0  0  0  0  0  0  0  0  0  0
   10.5281    7.4276   19.5649 C   0  0  0  0  0  0  0  0  0  0  0  0
   10.0256    7.2907   20.8484 C   0  0  0  0  0  0  0  0  0  0  0  0
    9.3113    5.3049   14.4911 C   0  0  0  0  0  0  0  0  0  0  0  0
    9.4607    7.5646   16.0139 C   0  0  0  0  0  0  0  0  0  0  0  0
   10.4192    7.3157   15.0955 C   0  0  0  0  0  0  0  0  0  0  0  0
   10.2489    6.4227   23.0218 N   0  0  0  0  0  0  0  0  0  0  0  0
    7.2472    8.0746   23.5050 C   0  0  0  0  0  0  0  0  0  0  0  0
    9.2051    6.9101   23.4604 C   0  0  0  0  0  0  0  0  0  0  0  0
   11.9646    6.0299   21.4251 C   0  0  0  0  0  0  0  0  0  0  0  0
  1  5  1  0
  1 13  1  0
  2 20  2  0
  2 28  1  0
  2 29  1  0
  3 19  4  0
  3 25  4  0
  4 23  4  0
  4 27  1  0
  4 30  4  0
  5 17  1  0
  6  8  1  0
  6 29  1  0
  7 24  4  0
  7 26  4  0
  8 28  1  0
  9 13  2  0
 10 18  1  0
 10 21  4  0
 10 30  4  0
 11 17  2  0
 12 18  1  0
 13 15  1  0
 14 24  1  0
 15 25  1  0
 16 28  2  0
 17 20  1  0
 19 24  4  0
 20 23  1  0
 21 22  4  0
 22 23  4  0
 25 26  4  0
 27 29  2  0
M  END
$$$$

 Created by Python create_sdf_string function

 30 33  0  0  0  0  0  0  0  0999 V2000
    8.3036    9.8571   18.4133 C   0  0  0  0  0  0  0  0  0  0  0  0
    8.3694    7.6612   22.6703 C   0  0  0  0  0  0  0  0  0  0  0  0
    8.4143    6.6863   16.2273 C   0  0  0  0  0  0  0  0  0  0  0  0
   10.7581    6.5674   21.7636 C   0  0  0  0  0  0  0  0  0  0  0  0
    8.4452    8.7960   19.2958 O   0  0  0  0  0  0  0  0  0  0  0  0
    8.7122    6.7842   24.8569 C   0  0  0  0  0  0  0  0  0  0  0  0
   10.3400    6.1726   14.3081 C   0  0  0  0  0  0  0  0  0  0  0  0
    7.4297    7.5873   24.8962 C   0  0  0  0  0  0  0  0  0  0  0  0
    8.1566   10.0536   16.0516 O   0  0  0  0  0  0  0  0  0  0  0  0
   12.4989    6.2074   20.1776 C   0  0  0  0  0  0  0  0  0  0  0  0
    6.9192    9.1053   20.9073 O   0  0  0  0  0  0  0  0  0  0  0  0
   14.3979    6.0729   18.7784 C   0  0  0  0  0  0  0  0  0  0  0  0
    8.6811    9.5354   16.9998 C   0  0  0  0  0  0  0  0  0  0  0  0
    9.2512    4.2713   13.7653 O   0  0  0  0  0  0  0  0  0  0  0  0
    9.6495    8.6317   16.8332 N   0  0  0  0  0  0  0  0  0  0  0  0
    6.2934    8.6988   23.1988 O   0  0  0  0  0  0  0  0  0  0  0  0
    7.9806    8.6543   20.5437 C   0  0  0  0  0  0  0  0  0  0  0  0
   13.7270    5.7144   19.8610 O   0  0  0  0  0  0  0  0  0  0  0  0
    8.3351    5.5235   15.4478 C   0  0  0  0  0  0  0  0  0  0  0  0
    8.7700    7.8434   21.3915 C   0  0  0  0  0  0  0  0  0  0  0  0
   11.7856    6.8851   19.2401 C   0  0  0  0  0  0  0  0  0  0  0  0
   10.5281    7.4276   19.5649 C   0  0  0  0  0  0  0  0  0  0  0  0
   10.0256    7.2907   20.8484 C   0  0  0  0  0  0  0  0  0  0  0  0
    9.3113    5.3049   14.4911 C   0  0  0  0  0  0  0  0  0  0  0  0
    9.4607    7.5646   16.0139 C   0  0  0  0  0  0  0  0  0  0  0  0
   10.4192    7.3157   15.0955 C   0  0  0  0  0  0  0  0  0  0  0  0
   10.2489    6.4227   23.0218 N   0  0  0  0  0  0  0  0  0  0  0  0
    7.2472    8.0746   23.5050 C   0  0  0  0  0  0  0  0  0  0  0  0
    9.2051    6.9101   23.4604 C   0  0  0  0  0  0  0  0  0  0  0  0
   11.9646    6.0299   21.4251 C   0  0  0  0  0  0  0  0  0  0  0  0
  1  5  1  0
  1 13  1  0
  2 20  2  0
  2 28  1  0
  2 29  1  0
  3 19  4  0
  3 25  4  0
  4 23  4  0
  4 27  1  0
  4 30  4  0
  5 17  1  0
  6  8  1  0
  6 29  1  0
  7 24  4  0
  7 26  4  0
  8 28  1  0
  9 13  2  0
 10 18  1  0
 10 21  4  0
 10 30  4  0
 11 17  2  0
 12 18  1  0
 13 15  1  0
 14 24  1  0
 15 25  1  0
 16 28  2  0
 17 20  1  0
 19 24  4  0
 20 23  1  0
 21 22  4  0
 22 23  4  0
 25 26  4  0
 27 29  2  0
M  END
$$$$

 Created by Python create_sdf_string function

 30 33  0  0  0  0  0  0  0  0999 V2000
    8.3036    9.8571   18.4133 C   0  0  0  0  0  0  0  0  0  0  0  0
    8.3694    7.6612   22.6703 C   0  0  0  0  0  0  0  0  0  0  0  0
    8.4143    6.6863   16.2273 C   0  0  0  0  0  0  0  0  0  0  0  0
   10.7581    6.5674   21.7636 C   0  0  0  0  0  0  0  0  0  0  0  0
    8.4452    8.7960   19.2958 O   0  0  0  0  0  0  0  0  0  0  0  0
    8.7122    6.7842   24.8569 C   0  0  0  0  0  0  0  0  0  0  0  0
   10.3400    6.1726   14.3081 C   0  0  0  0  0  0  0  0  0  0  0  0
    7.4297    7.5873   24.8962 C   0  0  0  0  0  0  0  0  0  0  0  0
    8.1566   10.0536   16.0516 O   0  0  0  0  0  0  0  0  0  0  0  0
   12.4989    6.2074   20.1776 C   0  0  0  0  0  0  0  0  0  0  0  0
    6.9192    9.1053   20.9073 O   0  0  0  0  0  0  0  0  0  0  0  0
   14.3979    6.0729   18.7784 C   0  0  0  0  0  0  0  0  0  0  0  0
    8.6811    9.5354   16.9998 C   0  0  0  0  0  0  0  0  0  0  0  0
    9.2512    4.2713   13.7653 O   0  0  0  0  0  0  0  0  0  0  0  0
    9.6495    8.6317   16.8332 N   0  0  0  0  0  0  0  0  0  0  0  0
    6.2934    8.6988   23.1988 O   0  0  0  0  0  0  0  0  0  0  0  0
    7.9806    8.6543   20.5437 C   0  0  0  0  0  0  0  0  0  0  0  0
   13.7270    5.7144   19.8610 O   0  0  0  0  0  0  0  0  0  0  0  0
    8.3351    5.5235   15.4478 C   0  0  0  0  0  0  0  0  0  0  0  0
    8.7700    7.8434   21.3915 C   0  0  0  0  0  0  0  0  0  0  0  0
   11.7856    6.8851   19.2401 C   0  0  0  0  0  0  0  0  0  0  0  0
   10.5281    7.4276   19.5649 C   0  0  0  0  0  0  0  0  0  0  0  0
   10.0256    7.2907   20.8484 C   0  0  0  0  0  0  0  0  0  0  0  0
    9.3113    5.3049   14.4911 C   0  0  0  0  0  0  0  0  0  0  0  0
    9.4607    7.5646   16.0139 C   0  0  0  0  0  0  0  0  0  0  0  0
   10.4192    7.3157   15.0955 C   0  0  0  0  0  0  0  0  0  0  0  0
   10.2489    6.4227   23.0218 N   0  0  0  0  0  0  0  0  0  0  0  0
    7.2472    8.0746   23.5050 C   0  0  0  0  0  0  0  0  0  0  0  0
    9.2051    6.9101   23.4604 C   0  0  0  0  0  0  0  0  0  0  0  0
   11.9646    6.0299   21.4251 C   0  0  0  0  0  0  0  0  0  0  0  0
  1  5  1  0
  1 13  1  0
  2 20  2  0
  2 28  1  0
  2 29  1  0
  3 19  4  0
  3 25  4  0
  4 23  4  0
  4 27  1  0
  4 30  4  0
  5 17  1  0
  6  8  1  0
  6 29  1  0
  7 24  4  0
  7 26  4  0
  8 28  1  0
  9 13  2  0
 10 18  1  0
 10 21  4  0
 10 30  4  0
 11 17  2  0
 12 18  1  0
 13 15  1  0
 14 24  1  0
 15 25  1  0
 16 28  2  0
 17 20  1  0
 19 24  4  0
 20 23  1  0
 21 22  4  0
 22 23  4  0
 25 26  4  0
 27 29  2  0
M  END
$$$$

 Created by Python create_sdf_string function

 30 33  0  0  0  0  0  0  0  0999 V2000
    8.3036    9.8571   18.4133 C   0  0  0  0  0  0  0  0  0  0  0  0
    8.3694    7.6612   22.6703 C   0  0  0  0  0  0  0  0  0  0  0  0
    8.4143    6.6863   16.2273 C   0  0  0  0  0  0  0  0  0  0  0  0
   10.7581    6.5674   21.7636 C   0  0  0  0  0  0  0  0  0  0  0  0
    8.4452    8.7960   19.2958 O   0  0  0  0  0  0  0  0  0  0  0  0
    8.7122    6.7842   24.8569 C   0  0  0  0  0  0  0  0  0  0  0  0
   10.3400    6.1726   14.3081 C   0  0  0  0  0  0  0  0  0  0  0  0
    7.4297    7.5873   24.8962 C   0  0  0  0  0  0  0  0  0  0  0  0
    8.1566   10.0536   16.0516 O   0  0  0  0  0  0  0  0  0  0  0  0
   12.4989    6.2074   20.1776 C   0  0  0  0  0  0  0  0  0  0  0  0
    6.9192    9.1053   20.9073 O   0  0  0  0  0  0  0  0  0  0  0  0
   14.3979    6.0729   18.7784 C   0  0  0  0  0  0  0  0  0  0  0  0
    8.6811    9.5354   16.9998 C   0  0  0  0  0  0  0  0  0  0  0  0
    9.2512    4.2713   13.7653 O   0  0  0  0  0  0  0  0  0  0  0  0
    9.6495    8.6317   16.8332 N   0  0  0  0  0  0  0  0  0  0  0  0
    6.2934    8.6988   23.1988 O   0  0  0  0  0  0  0  0  0  0  0  0
    7.9806    8.6543   20.5437 C   0  0  0  0  0  0  0  0  0  0  0  0
   13.7270    5.7144   19.8610 O   0  0  0  0  0  0  0  0  0  0  0  0
    8.3351    5.5235   15.4478 C   0  0  0  0  0  0  0  0  0  0  0  0
    8.7700    7.8434   21.3915 C   0  0  0  0  0  0  0  0  0  0  0  0
   11.7856    6.8851   19.2401 C   0  0  0  0  0  0  0  0  0  0  0  0
   10.5281    7.4276   19.5649 C   0  0  0  0  0  0  0  0  0  0  0  0
   10.0256    7.2907   20.8484 C   0  0  0  0  0  0  0  0  0  0  0  0
    9.3113    5.3049   14.4911 C   0  0  0  0  0  0  0  0  0  0  0  0
    9.4607    7.5646   16.0139 C   0  0  0  0  0  0  0  0  0  0  0  0
   10.4192    7.3157   15.0955 C   0  0  0  0  0  0  0  0  0  0  0  0
   10.2489    6.4227   23.0218 N   0  0  0  0  0  0  0  0  0  0  0  0
    7.2472    8.0746   23.5050 C   0  0  0  0  0  0  0  0  0  0  0  0
    9.2051    6.9101   23.4604 C   0  0  0  0  0  0  0  0  0  0  0  0
   11.9646    6.0299   21.4251 C   0  0  0  0  0  0  0  0  0  0  0  0
  1  5  1  0
  1 13  1  0
  2 20  2  0
  2 28  1  0
  2 29  1  0
  3 19  4  0
  3 25  4  0
  4 23  4  0
  4 27  1  0
  4 30  4  0
  5 17  1  0
  6  8  1  0
  6 29  1  0
  7 24  4  0
  7 26  4  0
  8 28  1  0
  9 13  2  0
 10 18  1  0
 10 21  4  0
 10 30  4  0
 11 17  2  0
 12 18  1  0
 13 15  1  0
 14 24  1  0
 15 25  1  0
 16 28  2  0
 17 20  1  0
 19 24  4  0
 20 23  1  0
 21 22  4  0
 22 23  4  0
 25 26  4  0
 27 29  2  0
M  END
$$$$

 Created by Python create_sdf_string function

 30 33  0  0  0  0  0  0  0  0999 V2000
    8.3036    9.8571   18.4133 C   0  0  0  0  0  0  0  0  0  0  0  0
    8.3694    7.6612   22.6703 C   0  0  0  0  0  0  0  0  0  0  0  0
    8.4143    6.6863   16.2273 C   0  0  0  0  0  0  0  0  0  0  0  0
   10.7581    6.5674   21.7636 C   0  0  0  0  0  0  0  0  0  0  0  0
    8.4452    8.7960   19.2958 O   0  0  0  0  0  0  0  0  0  0  0  0
    8.7122    6.7842   24.8569 C   0  0  0  0  0  0  0  0  0  0  0  0
   10.3400    6.1726   14.3081 C   0  0  0  0  0  0  0  0  0  0  0  0
    7.4297    7.5873   24.8962 C   0  0  0  0  0  0  0  0  0  0  0  0
    8.1566   10.0536   16.0516 O   0  0  0  0  0  0  0  0  0  0  0  0
   12.4989    6.2074   20.1776 C   0  0  0  0  0  0  0  0  0  0  0  0
    6.9192    9.1053   20.9073 O   0  0  0  0  0  0  0  0  0  0  0  0
   14.3979    6.0729   18.7784 C   0  0  0  0  0  0  0  0  0  0  0  0
    8.6811    9.5354   16.9998 C   0  0  0  0  0  0  0  0  0  0  0  0
    9.2512    4.2713   13.7653 O   0  0  0  0  0  0  0  0  0  0  0  0
    9.6495    8.6317   16.8332 N   0  0  0  0  0  0  0  0  0  0  0  0
    6.2934    8.6988   23.1988 O   0  0  0  0  0  0  0  0  0  0  0  0
    7.9806    8.6543   20.5437 C   0  0  0  0  0  0  0  0  0  0  0  0
   13.7270    5.7144   19.8610 O   0  0  0  0  0  0  0  0  0  0  0  0
    8.3351    5.5235   15.4478 C   0  0  0  0  0  0  0  0  0  0  0  0
    8.7700    7.8434   21.3915 C   0  0  0  0  0  0  0  0  0  0  0  0
   11.7856    6.8851   19.2401 C   0  0  0  0  0  0  0  0  0  0  0  0
   10.5281    7.4276   19.5649 C   0  0  0  0  0  0  0  0  0  0  0  0
   10.0256    7.2907   20.8484 C   0  0  0  0  0  0  0  0  0  0  0  0
    9.3113    5.3049   14.4911 C   0  0  0  0  0  0  0  0  0  0  0  0
    9.4607    7.5646   16.0139 C   0  0  0  0  0  0  0  0  0  0  0  0
   10.4192    7.3157   15.0955 C   0  0  0  0  0  0  0  0  0  0  0  0
   10.2489    6.4227   23.0218 N   0  0  0  0  0  0  0  0  0  0  0  0
    7.2472    8.0746   23.5050 C   0  0  0  0  0  0  0  0  0  0  0  0
    9.2051    6.9101   23.4604 C   0  0  0  0  0  0  0  0  0  0  0  0
   11.9646    6.0299   21.4251 C   0  0  0  0  0  0  0  0  0  0  0  0
  1  5  1  0
  1 13  1  0
  2 20  2  0
  2 28  1  0
  2 29  1  0
  3 19  4  0
  3 25  4  0
  4 23  4  0
  4 27  1  0
  4 30  4  0
  5 17  1  0
  6  8  1  0
  6 29  1  0
  7 24  4  0
  7 26  4  0
  8 28  1  0
  9 13  2  0
 10 18  1  0
 10 21  4  0
 10 30  4  0
 11 17  2  0
 12 18  1  0
 13 15  1  0
 14 24  1  0
 15 25  1  0
 16 28  2  0
 17 20  1  0
 19 24  4  0
 20 23  1  0
 21 22  4  0
 22 23  4  0
 25 26  4  0
 27 29  2  0
M  END
$$$$

 Created by Python create_sdf_string function

 30 33  0  0  0  0  0  0  0  0999 V2000
    8.3036    9.8571   18.4133 C   0  0  0  0  0  0  0  0  0  0  0  0
    8.3694    7.6612   22.6703 C   0  0  0  0  0  0  0  0  0  0  0  0
    8.4143    6.6863   16.2273 C   0  0  0  0  0  0  0  0  0  0  0  0
   10.7581    6.5674   21.7636 C   0  0  0  0  0  0  0  0  0  0  0  0
    8.4452    8.7960   19.2958 O   0  0  0  0  0  0  0  0  0  0  0  0
    8.7122    6.7842   24.8569 C   0  0  0  0  0  0  0  0  0  0  0  0
   10.3400    6.1726   14.3081 C   0  0  0  0  0  0  0  0  0  0  0  0
    7.4297    7.5873   24.8962 C   0  0  0  0  0  0  0  0  0  0  0  0
    8.1566   10.0536   16.0516 O   0  0  0  0  0  0  0  0  0  0  0  0
   12.4989    6.2074   20.1776 C   0  0  0  0  0  0  0  0  0  0  0  0
    6.9192    9.1053   20.9073 O   0  0  0  0  0  0  0  0  0  0  0  0
   14.3979    6.0729   18.7784 C   0  0  0  0  0  0  0  0  0  0  0  0
    8.6811    9.5354   16.9998 C   0  0  0  0  0  0  0  0  0  0  0  0
    9.2512    4.2713   13.7653 O   0  0  0  0  0  0  0  0  0  0  0  0
    9.6495    8.6317   16.8332 N   0  0  0  0  0  0  0  0  0  0  0  0
    6.2934    8.6988   23.1988 O   0  0  0  0  0  0  0  0  0  0  0  0
    7.9806    8.6543   20.5437 C   0  0  0  0  0  0  0  0  0  0  0  0
   13.7270    5.7144   19.8610 O   0  0  0  0  0  0  0  0  0  0  0  0
    8.3351    5.5235   15.4478 C   0  0  0  0  0  0  0  0  0  0  0  0
    8.7700    7.8434   21.3915 C   0  0  0  0  0  0  0  0  0  0  0  0
   11.7856    6.8851   19.2401 C   0  0  0  0  0  0  0  0  0  0  0  0
   10.5281    7.4276   19.5649 C   0  0  0  0  0  0  0  0  0  0  0  0
   10.0256    7.2907   20.8484 C   0  0  0  0  0  0  0  0  0  0  0  0
    9.3113    5.3049   14.4911 C   0  0  0  0  0  0  0  0  0  0  0  0
    9.4607    7.5646   16.0139 C   0  0  0  0  0  0  0  0  0  0  0  0
   10.4192    7.3157   15.0955 C   0  0  0  0  0  0  0  0  0  0  0  0
   10.2489    6.4227   23.0218 N   0  0  0  0  0  0  0  0  0  0  0  0
    7.2472    8.0746   23.5050 C   0  0  0  0  0  0  0  0  0  0  0  0
    9.2051    6.9101   23.4604 C   0  0  0  0  0  0  0  0  0  0  0  0
   11.9646    6.0299   21.4251 C   0  0  0  0  0  0  0  0  0  0  0  0
  1  5  1  0
  1 13  1  0
  2 20  2  0
  2 28  1  0
  2 29  1  0
  3 19  4  0
  3 25  4  0
  4 23  4  0
  4 27  1  0
  4 30  4  0
  5 17  1  0
  6  8  1  0
  6 29  1  0
  7 24  4  0
  7 26  4  0
  8 28  1  0
  9 13  2  0
 10 18  1  0
 10 21  4  0
 10 30  4  0
 11 17  2  0
 12 18  1  0
 13 15  1  0
 14 24  1  0
 15 25  1  0
 16 28  2  0
 17 20  1  0
 19 24  4  0
 20 23  1  0
 21 22  4  0
 22 23  4  0
 25 26  4  0
 27 29  2  0
M  END
$$$$

 Created by Python create_sdf_string function

 30 33  0  0  0  0  0  0  0  0999 V2000
    8.3036    9.8571   18.4133 C   0  0  0  0  0  0  0  0  0  0  0  0
    8.3694    7.6612   22.6703 C   0  0  0  0  0  0  0  0  0  0  0  0
    8.4143    6.6863   16.2273 C   0  0  0  0  0  0  0  0  0  0  0  0
   10.7581    6.5674   21.7636 C   0  0  0  0  0  0  0  0  0  0  0  0
    8.4452    8.7960   19.2958 O   0  0  0  0  0  0  0  0  0  0  0  0
    8.7122    6.7842   24.8569 C   0  0  0  0  0  0  0  0  0  0  0  0
   10.3400    6.1726   14.3081 C   0  0  0  0  0  0  0  0  0  0  0  0
    7.4297    7.5873   24.8962 C   0  0  0  0  0  0  0  0  0  0  0  0
    8.1566   10.0536   16.0516 O   0  0  0  0  0  0  0  0  0  0  0  0
   12.4989    6.2074   20.1776 C   0  0  0  0  0  0  0  0  0  0  0  0
    6.9192    9.1053   20.9073 O   0  0  0  0  0  0  0  0  0  0  0  0
   14.3979    6.0729   18.7784 C   0  0  0  0  0  0  0  0  0  0  0  0
    8.6811    9.5354   16.9998 C   0  0  0  0  0  0  0  0  0  0  0  0
    9.2512    4.2713   13.7653 O   0  0  0  0  0  0  0  0  0  0  0  0
    9.6495    8.6317   16.8332 N   0  0  0  0  0  0  0  0  0  0  0  0
    6.2934    8.6988   23.1988 O   0  0  0  0  0  0  0  0  0  0  0  0
    7.9806    8.6543   20.5437 C   0  0  0  0  0  0  0  0  0  0  0  0
   13.7270    5.7144   19.8610 O   0  0  0  0  0  0  0  0  0  0  0  0
    8.3351    5.5235   15.4478 C   0  0  0  0  0  0  0  0  0  0  0  0
    8.7700    7.8434   21.3915 C   0  0  0  0  0  0  0  0  0  0  0  0
   11.7856    6.8851   19.2401 C   0  0  0  0  0  0  0  0  0  0  0  0
   10.5281    7.4276   19.5649 C   0  0  0  0  0  0  0  0  0  0  0  0
   10.0256    7.2907   20.8484 C   0  0  0  0  0  0  0  0  0  0  0  0
    9.3113    5.3049   14.4911 C   0  0  0  0  0  0  0  0  0  0  0  0
    9.4607    7.5646   16.0139 C   0  0  0  0  0  0  0  0  0  0  0  0
   10.4192    7.3157   15.0955 C   0  0  0  0  0  0  0  0  0  0  0  0
   10.2489    6.4227   23.0218 N   0  0  0  0  0  0  0  0  0  0  0  0
    7.2472    8.0746   23.5050 C   0  0  0  0  0  0  0  0  0  0  0  0
    9.2051    6.9101   23.4604 C   0  0  0  0  0  0  0  0  0  0  0  0
   11.9646    6.0299   21.4251 C   0  0  0  0  0  0  0  0  0  0  0  0
  1  5  1  0
  1 13  1  0
  2 20  2  0
  2 28  1  0
  2 29  1  0
  3 19  4  0
  3 25  4  0
  4 23  4  0
  4 27  1  0
  4 30  4  0
  5 17  1  0
  6  8  1  0
  6 29  1  0
  7 24  4  0
  7 26  4  0
  8 28  1  0
  9 13  2  0
 10 18  1  0
 10 21  4  0
 10 30  4  0
 11 17  2  0
 12 18  1  0
 13 15  1  0
 14 24  1  0
 15 25  1  0
 16 28  2  0
 17 20  1  0
 19 24  4  0
 20 23  1  0
 21 22  4  0
 22 23  4  0
 25 26  4  0
 27 29  2  0
M  END
$$$$

 Created by Python create_sdf_string function

 30 33  0  0  0  0  0  0  0  0999 V2000
    8.3036    9.8571   18.4133 C   0  0  0  0  0  0  0  0  0  0  0  0
    8.3694    7.6612   22.6703 C   0  0  0  0  0  0  0  0  0  0  0  0
    8.4143    6.6863   16.2273 C   0  0  0  0  0  0  0  0  0  0  0  0
   10.7581    6.5674   21.7636 C   0  0  0  0  0  0  0  0  0  0  0  0
    8.4452    8.7960   19.2958 O   0  0  0  0  0  0  0  0  0  0  0  0
    8.7122    6.7842   24.8569 C   0  0  0  0  0  0  0  0  0  0  0  0
   10.3400    6.1726   14.3081 C   0  0  0  0  0  0  0  0  0  0  0  0
    7.4297    7.5873   24.8962 C   0  0  0  0  0  0  0  0  0  0  0  0
    8.1566   10.0536   16.0516 O   0  0  0  0  0  0  0  0  0  0  0  0
   12.4989    6.2074   20.1776 C   0  0  0  0  0  0  0  0  0  0  0  0
    6.9192    9.1053   20.9073 O   0  0  0  0  0  0  0  0  0  0  0  0
   14.3979    6.0729   18.7784 C   0  0  0  0  0  0  0  0  0  0  0  0
    8.6811    9.5354   16.9998 C   0  0  0  0  0  0  0  0  0  0  0  0
    9.2512    4.2713   13.7653 O   0  0  0  0  0  0  0  0  0  0  0  0
    9.6495    8.6317   16.8332 N   0  0  0  0  0  0  0  0  0  0  0  0
    6.2934    8.6988   23.1988 O   0  0  0  0  0  0  0  0  0  0  0  0
    7.9806    8.6543   20.5437 C   0  0  0  0  0  0  0  0  0  0  0  0
   13.7270    5.7144   19.8610 O   0  0  0  0  0  0  0  0  0  0  0  0
    8.3351    5.5235   15.4478 C   0  0  0  0  0  0  0  0  0  0  0  0
    8.7700    7.8434   21.3915 C   0  0  0  0  0  0  0  0  0  0  0  0
   11.7856    6.8851   19.2401 C   0  0  0  0  0  0  0  0  0  0  0  0
   10.5281    7.4276   19.5649 C   0  0  0  0  0  0  0  0  0  0  0  0
   10.0256    7.2907   20.8484 C   0  0  0  0  0  0  0  0  0  0  0  0
    9.3113    5.3049   14.4911 C   0  0  0  0  0  0  0  0  0  0  0  0
    9.4607    7.5646   16.0139 C   0  0  0  0  0  0  0  0  0  0  0  0
   10.4192    7.3157   15.0955 C   0  0  0  0  0  0  0  0  0  0  0  0
   10.2489    6.4227   23.0218 N   0  0  0  0  0  0  0  0  0  0  0  0
    7.2472    8.0746   23.5050 C   0  0  0  0  0  0  0  0  0  0  0  0
    9.2051    6.9101   23.4604 C   0  0  0  0  0  0  0  0  0  0  0  0
   11.9646    6.0299   21.4251 C   0  0  0  0  0  0  0  0  0  0  0  0
  1  5  1  0
  1 13  1  0
  2 20  2  0
  2 28  1  0
  2 29  1  0
  3 19  4  0
  3 25  4  0
  4 23  4  0
  4 27  1  0
  4 30  4  0
  5 17  1  0
  6  8  1  0
  6 29  1  0
  7 24  4  0
  7 26  4  0
  8 28  1  0
  9 13  2  0
 10 18  1  0
 10 21  4  0
 10 30  4  0
 11 17  2  0
 12 18  1  0
 13 15  1  0
 14 24  1  0
 15 25  1  0
 16 28  2  0
 17 20  1  0
 19 24  4  0
 20 23  1  0
 21 22  4  0
 22 23  4  0
 25 26  4  0
 27 29  2  0
M  END
$$$$

 Created by Python create_sdf_string function

 30 33  0  0  0  0  0  0  0  0999 V2000
    8.3036    9.8571   18.4133 C   0  0  0  0  0  0  0  0  0  0  0  0
    8.3694    7.6612   22.6703 C   0  0  0  0  0  0  0  0  0  0  0  0
    8.4143    6.6863   16.2273 C   0  0  0  0  0  0  0  0  0  0  0  0
   10.7581    6.5674   21.7636 C   0  0  0  0  0  0  0  0  0  0  0  0
    8.4452    8.7960   19.2958 O   0  0  0  0  0  0  0  0  0  0  0  0
    8.7122    6.7842   24.8569 C   0  0  0  0  0  0  0  0  0  0  0  0
   10.3400    6.1726   14.3081 C   0  0  0  0  0  0  0  0  0  0  0  0
    7.4297    7.5873   24.8962 C   0  0  0  0  0  0  0  0  0  0  0  0
    8.1566   10.0536   16.0516 O   0  0  0  0  0  0  0  0  0  0  0  0
   12.4989    6.2074   20.1776 C   0  0  0  0  0  0  0  0  0  0  0  0
    6.9192    9.1053   20.9073 O   0  0  0  0  0  0  0  0  0  0  0  0
   14.3979    6.0729   18.7784 C   0  0  0  0  0  0  0  0  0  0  0  0
    8.6811    9.5354   16.9998 C   0  0  0  0  0  0  0  0  0  0  0  0
    9.2512    4.2713   13.7653 O   0  0  0  0  0  0  0  0  0  0  0  0
    9.6495    8.6317   16.8332 N   0  0  0  0  0  0  0  0  0  0  0  0
    6.2934    8.6988   23.1988 O   0  0  0  0  0  0  0  0  0  0  0  0
    7.9806    8.6543   20.5437 C   0  0  0  0  0  0  0  0  0  0  0  0
   13.7270    5.7144   19.8610 O   0  0  0  0  0  0  0  0  0  0  0  0
    8.3351    5.5235   15.4478 C   0  0  0  0  0  0  0  0  0  0  0  0
    8.7700    7.8434   21.3915 C   0  0  0  0  0  0  0  0  0  0  0  0
   11.7856    6.8851   19.2401 C   0  0  0  0  0  0  0  0  0  0  0  0
   10.5281    7.4276   19.5649 C   0  0  0  0  0  0  0  0  0  0  0  0
   10.0256    7.2907   20.8484 C   0  0  0  0  0  0  0  0  0  0  0  0
    9.3113    5.3049   14.4911 C   0  0  0  0  0  0  0  0  0  0  0  0
    9.4607    7.5646   16.0139 C   0  0  0  0  0  0  0  0  0  0  0  0
   10.4192    7.3157   15.0955 C   0  0  0  0  0  0  0  0  0  0  0  0
   10.2489    6.4227   23.0218 N   0  0  0  0  0  0  0  0  0  0  0  0
    7.2472    8.0746   23.5050 C   0  0  0  0  0  0  0  0  0  0  0  0
    9.2051    6.9101   23.4604 C   0  0  0  0  0  0  0  0  0  0  0  0
   11.9646    6.0299   21.4251 C   0  0  0  0  0  0  0  0  0  0  0  0
  1  5  1  0
  1 13  1  0
  2 20  2  0
  2 28  1  0
  2 29  1  0
  3 19  4  0
  3 25  4  0
  4 23  4  0
  4 27  1  0
  4 30  4  0
  5 17  1  0
  6  8  1  0
  6 29  1  0
  7 24  4  0
  7 26  4  0
  8 28  1  0
  9 13  2  0
 10 18  1  0
 10 21  4  0
 10 30  4  0
 11 17  2  0
 12 18  1  0
 13 15  1  0
 14 24  1  0
 15 25  1  0
 16 28  2  0
 17 20  1  0
 19 24  4  0
 20 23  1  0
 21 22  4  0
 22 23  4  0
 25 26  4  0
 27 29  2  0
M  END
$$$$

 Created by Python create_sdf_string function

 30 33  0  0  0  0  0  0  0  0999 V2000
    8.3036    9.8571   18.4133 C   0  0  0  0  0  0  0  0  0  0  0  0
    8.3694    7.6612   22.6703 C   0  0  0  0  0  0  0  0  0  0  0  0
    8.4143    6.6863   16.2273 C   0  0  0  0  0  0  0  0  0  0  0  0
   10.7581    6.5674   21.7636 C   0  0  0  0  0  0  0  0  0  0  0  0
    8.4452    8.7960   19.2958 O   0  0  0  0  0  0  0  0  0  0  0  0
    8.7122    6.7842   24.8569 C   0  0  0  0  0  0  0  0  0  0  0  0
   10.3400    6.1726   14.3081 C   0  0  0  0  0  0  0  0  0  0  0  0
    7.4297    7.5873   24.8962 C   0  0  0  0  0  0  0  0  0  0  0  0
    8.1566   10.0536   16.0516 O   0  0  0  0  0  0  0  0  0  0  0  0
   12.4989    6.2074   20.1776 C   0  0  0  0  0  0  0  0  0  0  0  0
    6.9192    9.1053   20.9073 O   0  0  0  0  0  0  0  0  0  0  0  0
   14.3979    6.0729   18.7784 C   0  0  0  0  0  0  0  0  0  0  0  0
    8.6811    9.5354   16.9998 C   0  0  0  0  0  0  0  0  0  0  0  0
    9.2512    4.2713   13.7653 O   0  0  0  0  0  0  0  0  0  0  0  0
    9.6495    8.6317   16.8332 N   0  0  0  0  0  0  0  0  0  0  0  0
    6.2934    8.6988   23.1988 O   0  0  0  0  0  0  0  0  0  0  0  0
    7.9806    8.6543   20.5437 C   0  0  0  0  0  0  0  0  0  0  0  0
   13.7270    5.7144   19.8610 O   0  0  0  0  0  0  0  0  0  0  0  0
    8.3351    5.5235   15.4478 C   0  0  0  0  0  0  0  0  0  0  0  0
    8.7700    7.8434   21.3915 C   0  0  0  0  0  0  0  0  0  0  0  0
   11.7856    6.8851   19.2401 C   0  0  0  0  0  0  0  0  0  0  0  0
   10.5281    7.4276   19.5649 C   0  0  0  0  0  0  0  0  0  0  0  0
   10.0256    7.2907   20.8484 C   0  0  0  0  0  0  0  0  0  0  0  0
    9.3113    5.3049   14.4911 C   0  0  0  0  0  0  0  0  0  0  0  0
    9.4607    7.5646   16.0139 C   0  0  0  0  0  0  0  0  0  0  0  0
   10.4192    7.3157   15.0955 C   0  0  0  0  0  0  0  0  0  0  0  0
   10.2489    6.4227   23.0218 N   0  0  0  0  0  0  0  0  0  0  0  0
    7.2472    8.0746   23.5050 C   0  0  0  0  0  0  0  0  0  0  0  0
    9.2051    6.9101   23.4604 C   0  0  0  0  0  0  0  0  0  0  0  0
   11.9646    6.0299   21.4251 C   0  0  0  0  0  0  0  0  0  0  0  0
  1  5  1  0
  1 13  1  0
  2 20  2  0
  2 28  1  0
  2 29  1  0
  3 19  4  0
  3 25  4  0
  4 23  4  0
  4 27  1  0
  4 30  4  0
  5 17  1  0
  6  8  1  0
  6 29  1  0
  7 24  4  0
  7 26  4  0
  8 28  1  0
  9 13  2  0
 10 18  1  0
 10 21  4  0
 10 30  4  0
 11 17  2  0
 12 18  1  0
 13 15  1  0
 14 24  1  0
 15 25  1  0
 16 28  2  0
 17 20  1  0
 19 24  4  0
 20 23  1  0
 21 22  4  0
 22 23  4  0
 25 26  4  0
 27 29  2  0
M  END
$$$$

 Created by Python create_sdf_string function

 30 33  0  0  0  0  0  0  0  0999 V2000
    8.3036    9.8571   18.4133 C   0  0  0  0  0  0  0  0  0  0  0  0
    8.3694    7.6612   22.6703 C   0  0  0  0  0  0  0  0  0  0  0  0
    8.4143    6.6863   16.2273 C   0  0  0  0  0  0  0  0  0  0  0  0
   10.7581    6.5674   21.7636 C   0  0  0  0  0  0  0  0  0  0  0  0
    8.4452    8.7960   19.2958 O   0  0  0  0  0  0  0  0  0  0  0  0
    8.7122    6.7842   24.8569 C   0  0  0  0  0  0  0  0  0  0  0  0
   10.3400    6.1726   14.3081 C   0  0  0  0  0  0  0  0  0  0  0  0
    7.4297    7.5873   24.8962 C   0  0  0  0  0  0  0  0  0  0  0  0
    8.1566   10.0536   16.0516 O   0  0  0  0  0  0  0  0  0  0  0  0
   12.4989    6.2074   20.1776 C   0  0  0  0  0  0  0  0  0  0  0  0
    6.9192    9.1053   20.9073 O   0  0  0  0  0  0  0  0  0  0  0  0
   14.3979    6.0729   18.7784 C   0  0  0  0  0  0  0  0  0  0  0  0
    8.6811    9.5354   16.9998 C   0  0  0  0  0  0  0  0  0  0  0  0
    9.2512    4.2713   13.7653 O   0  0  0  0  0  0  0  0  0  0  0  0
    9.6495    8.6317   16.8332 N   0  0  0  0  0  0  0  0  0  0  0  0
    6.2934    8.6988   23.1988 O   0  0  0  0  0  0  0  0  0  0  0  0
    7.9806    8.6543   20.5437 C   0  0  0  0  0  0  0  0  0  0  0  0
   13.7270    5.7144   19.8610 O   0  0  0  0  0  0  0  0  0  0  0  0
    8.3351    5.5235   15.4478 C   0  0  0  0  0  0  0  0  0  0  0  0
    8.7700    7.8434   21.3915 C   0  0  0  0  0  0  0  0  0  0  0  0
   11.7856    6.8851   19.2401 C   0  0  0  0  0  0  0  0  0  0  0  0
   10.5281    7.4276   19.5649 C   0  0  0  0  0  0  0  0  0  0  0  0
   10.0256    7.2907   20.8484 C   0  0  0  0  0  0  0  0  0  0  0  0
    9.3113    5.3049   14.4911 C   0  0  0  0  0  0  0  0  0  0  0  0
    9.4607    7.5646   16.0139 C   0  0  0  0  0  0  0  0  0  0  0  0
   10.4192    7.3157   15.0955 C   0  0  0  0  0  0  0  0  0  0  0  0
   10.2489    6.4227   23.0218 N   0  0  0  0  0  0  0  0  0  0  0  0
    7.2472    8.0746   23.5050 C   0  0  0  0  0  0  0  0  0  0  0  0
    9.2051    6.9101   23.4604 C   0  0  0  0  0  0  0  0  0  0  0  0
   11.9646    6.0299   21.4251 C   0  0  0  0  0  0  0  0  0  0  0  0
  1  5  1  0
  1 13  1  0
  2 20  2  0
  2 28  1  0
  2 29  1  0
  3 19  4  0
  3 25  4  0
  4 23  4  0
  4 27  1  0
  4 30  4  0
  5 17  1  0
  6  8  1  0
  6 29  1  0
  7 24  4  0
  7 26  4  0
  8 28  1  0
  9 13  2  0
 10 18  1  0
 10 21  4  0
 10 30  4  0
 11 17  2  0
 12 18  1  0
 13 15  1  0
 14 24  1  0
 15 25  1  0
 16 28  2  0
 17 20  1  0
 19 24  4  0
 20 23  1  0
 21 22  4  0
 22 23  4  0
 25 26  4  0
 27 29  2  0
M  END
$$$$

 Created by Python create_sdf_string function

 30 33  0  0  0  0  0  0  0  0999 V2000
    8.3036    9.8571   18.4133 C   0  0  0  0  0  0  0  0  0  0  0  0
    8.3694    7.6612   22.6703 C   0  0  0  0  0  0  0  0  0  0  0  0
    8.4143    6.6863   16.2273 C   0  0  0  0  0  0  0  0  0  0  0  0
   10.7581    6.5674   21.7636 C   0  0  0  0  0  0  0  0  0  0  0  0
    8.4452    8.7960   19.2958 O   0  0  0  0  0  0  0  0  0  0  0  0
    8.7122    6.7842   24.8569 C   0  0  0  0  0  0  0  0  0  0  0  0
   10.3400    6.1726   14.3081 C   0  0  0  0  0  0  0  0  0  0  0  0
    7.4297    7.5873   24.8962 C   0  0  0  0  0  0  0  0  0  0  0  0
    8.1566   10.0536   16.0516 O   0  0  0  0  0  0  0  0  0  0  0  0
   12.4989    6.2074   20.1776 C   0  0  0  0  0  0  0  0  0  0  0  0
    6.9192    9.1053   20.9073 O   0  0  0  0  0  0  0  0  0  0  0  0
   14.3979    6.0729   18.7784 C   0  0  0  0  0  0  0  0  0  0  0  0
    8.6811    9.5354   16.9998 C   0  0  0  0  0  0  0  0  0  0  0  0
    9.2512    4.2713   13.7653 O   0  0  0  0  0  0  0  0  0  0  0  0
    9.6495    8.6317   16.8332 N   0  0  0  0  0  0  0  0  0  0  0  0
    6.2934    8.6988   23.1988 O   0  0  0  0  0  0  0  0  0  0  0  0
    7.9806    8.6543   20.5437 C   0  0  0  0  0  0  0  0  0  0  0  0
   13.7270    5.7144   19.8610 O   0  0  0  0  0  0  0  0  0  0  0  0
    8.3351    5.5235   15.4478 C   0  0  0  0  0  0  0  0  0  0  0  0
    8.7700    7.8434   21.3915 C   0  0  0  0  0  0  0  0  0  0  0  0
   11.7856    6.8851   19.2401 C   0  0  0  0  0  0  0  0  0  0  0  0
   10.5281    7.4276   19.5649 C   0  0  0  0  0  0  0  0  0  0  0  0
   10.0256    7.2907   20.8484 C   0  0  0  0  0  0  0  0  0  0  0  0
    9.3113    5.3049   14.4911 C   0  0  0  0  0  0  0  0  0  0  0  0
    9.4607    7.5646   16.0139 C   0  0  0  0  0  0  0  0  0  0  0  0
   10.4192    7.3157   15.0955 C   0  0  0  0  0  0  0  0  0  0  0  0
   10.2489    6.4227   23.0218 N   0  0  0  0  0  0  0  0  0  0  0  0
    7.2472    8.0746   23.5050 C   0  0  0  0  0  0  0  0  0  0  0  0
    9.2051    6.9101   23.4604 C   0  0  0  0  0  0  0  0  0  0  0  0
   11.9646    6.0299   21.4251 C   0  0  0  0  0  0  0  0  0  0  0  0
  1  5  1  0
  1 13  1  0
  2 20  2  0
  2 28  1  0
  2 29  1  0
  3 19  4  0
  3 25  4  0
  4 23  4  0
  4 27  1  0
  4 30  4  0
  5 17  1  0
  6  8  1  0
  6 29  1  0
  7 24  4  0
  7 26  4  0
  8 28  1  0
  9 13  2  0
 10 18  1  0
 10 21  4  0
 10 30  4  0
 11 17  2  0
 12 18  1  0
 13 15  1  0
 14 24  1  0
 15 25  1  0
 16 28  2  0
 17 20  1  0
 19 24  4  0
 20 23  1  0
 21 22  4  0
 22 23  4  0
 25 26  4  0
 27 29  2  0
M  END
$$$$

 Created by Python create_sdf_string function

 30 33  0  0  0  0  0  0  0  0999 V2000
    8.3036    9.8571   18.4133 C   0  0  0  0  0  0  0  0  0  0  0  0
    8.3694    7.6612   22.6703 C   0  0  0  0  0  0  0  0  0  0  0  0
    8.4143    6.6863   16.2273 C   0  0  0  0  0  0  0  0  0  0  0  0
   10.7581    6.5674   21.7636 C   0  0  0  0  0  0  0  0  0  0  0  0
    8.4452    8.7960   19.2958 O   0  0  0  0  0  0  0  0  0  0  0  0
    8.7122    6.7842   24.8569 C   0  0  0  0  0  0  0  0  0  0  0  0
   10.3400    6.1726   14.3081 C   0  0  0  0  0  0  0  0  0  0  0  0
    7.4297    7.5873   24.8962 C   0  0  0  0  0  0  0  0  0  0  0  0
    8.1566   10.0536   16.0516 O   0  0  0  0  0  0  0  0  0  0  0  0
   12.4989    6.2074   20.1776 C   0  0  0  0  0  0  0  0  0  0  0  0
    6.9192    9.1053   20.9073 O   0  0  0  0  0  0  0  0  0  0  0  0
   14.3979    6.0729   18.7784 C   0  0  0  0  0  0  0  0  0  0  0  0
    8.6811    9.5354   16.9998 C   0  0  0  0  0  0  0  0  0  0  0  0
    9.2512    4.2713   13.7653 O   0  0  0  0  0  0  0  0  0  0  0  0
    9.6495    8.6317   16.8332 N   0  0  0  0  0  0  0  0  0  0  0  0
    6.2934    8.6988   23.1988 O   0  0  0  0  0  0  0  0  0  0  0  0
    7.9806    8.6543   20.5437 C   0  0  0  0  0  0  0  0  0  0  0  0
   13.7270    5.7144   19.8610 O   0  0  0  0  0  0  0  0  0  0  0  0
    8.3351    5.5235   15.4478 C   0  0  0  0  0  0  0  0  0  0  0  0
    8.7700    7.8434   21.3915 C   0  0  0  0  0  0  0  0  0  0  0  0
   11.7856    6.8851   19.2401 C   0  0  0  0  0  0  0  0  0  0  0  0
   10.5281    7.4276   19.5649 C   0  0  0  0  0  0  0  0  0  0  0  0
   10.0256    7.2907   20.8484 C   0  0  0  0  0  0  0  0  0  0  0  0
    9.3113    5.3049   14.4911 C   0  0  0  0  0  0  0  0  0  0  0  0
    9.4607    7.5646   16.0139 C   0  0  0  0  0  0  0  0  0  0  0  0
   10.4192    7.3157   15.0955 C   0  0  0  0  0  0  0  0  0  0  0  0
   10.2489    6.4227   23.0218 N   0  0  0  0  0  0  0  0  0  0  0  0
    7.2472    8.0746   23.5050 C   0  0  0  0  0  0  0  0  0  0  0  0
    9.2051    6.9101   23.4604 C   0  0  0  0  0  0  0  0  0  0  0  0
   11.9646    6.0299   21.4251 C   0  0  0  0  0  0  0  0  0  0  0  0
  1  5  1  0
  1 13  1  0
  2 20  2  0
  2 28  1  0
  2 29  1  0
  3 19  4  0
  3 25  4  0
  4 23  4  0
  4 27  1  0
  4 30  4  0
  5 17  1  0
  6  8  1  0
  6 29  1  0
  7 24  4  0
  7 26  4  0
  8 28  1  0
  9 13  2  0
 10 18  1  0
 10 21  4  0
 10 30  4  0
 11 17  2  0
 12 18  1  0
 13 15  1  0
 14 24  1  0
 15 25  1  0
 16 28  2  0
 17 20  1  0
 19 24  4  0
 20 23  1  0
 21 22  4  0
 22 23  4  0
 25 26  4  0
 27 29  2  0
M  END
$$$$

 Created by Python create_sdf_string function

 30 33  0  0  0  0  0  0  0  0999 V2000
    8.3036    9.8571   18.4133 C   0  0  0  0  0  0  0  0  0  0  0  0
    8.3694    7.6612   22.6703 C   0  0  0  0  0  0  0  0  0  0  0  0
    8.4143    6.6863   16.2273 C   0  0  0  0  0  0  0  0  0  0  0  0
   10.7581    6.5674   21.7636 C   0  0  0  0  0  0  0  0  0  0  0  0
    8.4452    8.7960   19.2958 O   0  0  0  0  0  0  0  0  0  0  0  0
    8.7122    6.7842   24.8569 C   0  0  0  0  0  0  0  0  0  0  0  0
   10.3400    6.1726   14.3081 C   0  0  0  0  0  0  0  0  0  0  0  0
    7.4297    7.5873   24.8962 C   0  0  0  0  0  0  0  0  0  0  0  0
    8.1566   10.0536   16.0516 O   0  0  0  0  0  0  0  0  0  0  0  0
   12.4989    6.2074   20.1776 C   0  0  0  0  0  0  0  0  0  0  0  0
    6.9192    9.1053   20.9073 O   0  0  0  0  0  0  0  0  0  0  0  0
   14.3979    6.0729   18.7784 C   0  0  0  0  0  0  0  0  0  0  0  0
    8.6811    9.5354   16.9998 C   0  0  0  0  0  0  0  0  0  0  0  0
    9.2512    4.2713   13.7653 O   0  0  0  0  0  0  0  0  0  0  0  0
    9.6495    8.6317   16.8332 N   0  0  0  0  0  0  0  0  0  0  0  0
    6.2934    8.6988   23.1988 O   0  0  0  0  0  0  0  0  0  0  0  0
    7.9806    8.6543   20.5437 C   0  0  0  0  0  0  0  0  0  0  0  0
   13.7270    5.7144   19.8610 O   0  0  0  0  0  0  0  0  0  0  0  0
    8.3351    5.5235   15.4478 C   0  0  0  0  0  0  0  0  0  0  0  0
    8.7700    7.8434   21.3915 C   0  0  0  0  0  0  0  0  0  0  0  0
   11.7856    6.8851   19.2401 C   0  0  0  0  0  0  0  0  0  0  0  0
   10.5281    7.4276   19.5649 C   0  0  0  0  0  0  0  0  0  0  0  0
   10.0256    7.2907   20.8484 C   0  0  0  0  0  0  0  0  0  0  0  0
    9.3113    5.3049   14.4911 C   0  0  0  0  0  0  0  0  0  0  0  0
    9.4607    7.5646   16.0139 C   0  0  0  0  0  0  0  0  0  0  0  0
   10.4192    7.3157   15.0955 C   0  0  0  0  0  0  0  0  0  0  0  0
   10.2489    6.4227   23.0218 N   0  0  0  0  0  0  0  0  0  0  0  0
    7.2472    8.0746   23.5050 C   0  0  0  0  0  0  0  0  0  0  0  0
    9.2051    6.9101   23.4604 C   0  0  0  0  0  0  0  0  0  0  0  0
   11.9646    6.0299   21.4251 C   0  0  0  0  0  0  0  0  0  0  0  0
  1  5  1  0
  1 13  1  0
  2 20  2  0
  2 28  1  0
  2 29  1  0
  3 19  4  0
  3 25  4  0
  4 23  4  0
  4 27  1  0
  4 30  4  0
  5 17  1  0
  6  8  1  0
  6 29  1  0
  7 24  4  0
  7 26  4  0
  8 28  1  0
  9 13  2  0
 10 18  1  0
 10 21  4  0
 10 30  4  0
 11 17  2  0
 12 18  1  0
 13 15  1  0
 14 24  1  0
 15 25  1  0
 16 28  2  0
 17 20  1  0
 19 24  4  0
 20 23  1  0
 21 22  4  0
 22 23  4  0
 25 26  4  0
 27 29  2  0
M  END
$$$$

 Created by Python create_sdf_string function

 30 33  0  0  0  0  0  0  0  0999 V2000
    8.3036    9.8571   18.4133 C   0  0  0  0  0  0  0  0  0  0  0  0
    8.3694    7.6612   22.6703 C   0  0  0  0  0  0  0  0  0  0  0  0
    8.4143    6.6863   16.2273 C   0  0  0  0  0  0  0  0  0  0  0  0
   10.7581    6.5674   21.7636 C   0  0  0  0  0  0  0  0  0  0  0  0
    8.4452    8.7960   19.2958 O   0  0  0  0  0  0  0  0  0  0  0  0
    8.7122    6.7842   24.8569 C   0  0  0  0  0  0  0  0  0  0  0  0
   10.3400    6.1726   14.3081 C   0  0  0  0  0  0  0  0  0  0  0  0
    7.4297    7.5873   24.8962 C   0  0  0  0  0  0  0  0  0  0  0  0
    8.1566   10.0536   16.0516 O   0  0  0  0  0  0  0  0  0  0  0  0
   12.4989    6.2074   20.1776 C   0  0  0  0  0  0  0  0  0  0  0  0
    6.9192    9.1053   20.9073 O   0  0  0  0  0  0  0  0  0  0  0  0
   14.3979    6.0729   18.7784 C   0  0  0  0  0  0  0  0  0  0  0  0
    8.6811    9.5354   16.9998 C   0  0  0  0  0  0  0  0  0  0  0  0
    9.2512    4.2713   13.7653 O   0  0  0  0  0  0  0  0  0  0  0  0
    9.6495    8.6317   16.8332 N   0  0  0  0  0  0  0  0  0  0  0  0
    6.2934    8.6988   23.1988 O   0  0  0  0  0  0  0  0  0  0  0  0
    7.9806    8.6543   20.5437 C   0  0  0  0  0  0  0  0  0  0  0  0
   13.7270    5.7144   19.8610 O   0  0  0  0  0  0  0  0  0  0  0  0
    8.3351    5.5235   15.4478 C   0  0  0  0  0  0  0  0  0  0  0  0
    8.7700    7.8434   21.3915 C   0  0  0  0  0  0  0  0  0  0  0  0
   11.7856    6.8851   19.2401 C   0  0  0  0  0  0  0  0  0  0  0  0
   10.5281    7.4276   19.5649 C   0  0  0  0  0  0  0  0  0  0  0  0
   10.0256    7.2907   20.8484 C   0  0  0  0  0  0  0  0  0  0  0  0
    9.3113    5.3049   14.4911 C   0  0  0  0  0  0  0  0  0  0  0  0
    9.4607    7.5646   16.0139 C   0  0  0  0  0  0  0  0  0  0  0  0
   10.4192    7.3157   15.0955 C   0  0  0  0  0  0  0  0  0  0  0  0
   10.2489    6.4227   23.0218 N   0  0  0  0  0  0  0  0  0  0  0  0
    7.2472    8.0746   23.5050 C   0  0  0  0  0  0  0  0  0  0  0  0
    9.2051    6.9101   23.4604 C   0  0  0  0  0  0  0  0  0  0  0  0
   11.9646    6.0299   21.4251 C   0  0  0  0  0  0  0  0  0  0  0  0
  1  5  1  0
  1 13  1  0
  2 20  2  0
  2 28  1  0
  2 29  1  0
  3 19  4  0
  3 25  4  0
  4 23  4  0
  4 27  1  0
  4 30  4  0
  5 17  1  0
  6  8  1  0
  6 29  1  0
  7 24  4  0
  7 26  4  0
  8 28  1  0
  9 13  2  0
 10 18  1  0
 10 21  4  0
 10 30  4  0
 11 17  2  0
 12 18  1  0
 13 15  1  0
 14 24  1  0
 15 25  1  0
 16 28  2  0
 17 20  1  0
 19 24  4  0
 20 23  1  0
 21 22  4  0
 22 23  4  0
 25 26  4  0
 27 29  2  0
M  END
$$$$

 Created by Python create_sdf_string function

 30 33  0  0  0  0  0  0  0  0999 V2000
    8.3036    9.8571   18.4133 C   0  0  0  0  0  0  0  0  0  0  0  0
    8.3694    7.6612   22.6703 C   0  0  0  0  0  0  0  0  0  0  0  0
    8.4143    6.6863   16.2273 C   0  0  0  0  0  0  0  0  0  0  0  0
   10.7581    6.5674   21.7636 C   0  0  0  0  0  0  0  0  0  0  0  0
    8.4452    8.7960   19.2958 O   0  0  0  0  0  0  0  0  0  0  0  0
    8.7122    6.7842   24.8569 C   0  0  0  0  0  0  0  0  0  0  0  0
   10.3400    6.1726   14.3081 C   0  0  0  0  0  0  0  0  0  0  0  0
    7.4297    7.5873   24.8962 C   0  0  0  0  0  0  0  0  0  0  0  0
    8.1566   10.0536   16.0516 O   0  0  0  0  0  0  0  0  0  0  0  0
   12.4989    6.2074   20.1776 C   0  0  0  0  0  0  0  0  0  0  0  0
    6.9192    9.1053   20.9073 O   0  0  0  0  0  0  0  0  0  0  0  0
   14.3979    6.0729   18.7784 C   0  0  0  0  0  0  0  0  0  0  0  0
    8.6811    9.5354   16.9998 C   0  0  0  0  0  0  0  0  0  0  0  0
    9.2512    4.2713   13.7653 O   0  0  0  0  0  0  0  0  0  0  0  0
    9.6495    8.6317   16.8332 N   0  0  0  0  0  0  0  0  0  0  0  0
    6.2934    8.6988   23.1988 O   0  0  0  0  0  0  0  0  0  0  0  0
    7.9806    8.6543   20.5437 C   0  0  0  0  0  0  0  0  0  0  0  0
   13.7270    5.7144   19.8610 O   0  0  0  0  0  0  0  0  0  0  0  0
    8.3351    5.5235   15.4478 C   0  0  0  0  0  0  0  0  0  0  0  0
    8.7700    7.8434   21.3915 C   0  0  0  0  0  0  0  0  0  0  0  0
   11.7856    6.8851   19.2401 C   0  0  0  0  0  0  0  0  0  0  0  0
   10.5281    7.4276   19.5649 C   0  0  0  0  0  0  0  0  0  0  0  0
   10.0256    7.2907   20.8484 C   0  0  0  0  0  0  0  0  0  0  0  0
    9.3113    5.3049   14.4911 C   0  0  0  0  0  0  0  0  0  0  0  0
    9.4607    7.5646   16.0139 C   0  0  0  0  0  0  0  0  0  0  0  0
   10.4192    7.3157   15.0955 C   0  0  0  0  0  0  0  0  0  0  0  0
   10.2489    6.4227   23.0218 N   0  0  0  0  0  0  0  0  0  0  0  0
    7.2472    8.0746   23.5050 C   0  0  0  0  0  0  0  0  0  0  0  0
    9.2051    6.9101   23.4604 C   0  0  0  0  0  0  0  0  0  0  0  0
   11.9646    6.0299   21.4251 C   0  0  0  0  0  0  0  0  0  0  0  0
  1  5  1  0
  1 13  1  0
  2 20  2  0
  2 28  1  0
  2 29  1  0
  3 19  4  0
  3 25  4  0
  4 23  4  0
  4 27  1  0
  4 30  4  0
  5 17  1  0
  6  8  1  0
  6 29  1  0
  7 24  4  0
  7 26  4  0
  8 28  1  0
  9 13  2  0
 10 18  1  0
 10 21  4  0
 10 30  4  0
 11 17  2  0
 12 18  1  0
 13 15  1  0
 14 24  1  0
 15 25  1  0
 16 28  2  0
 17 20  1  0
 19 24  4  0
 20 23  1  0
 21 22  4  0
 22 23  4  0
 25 26  4  0
 27 29  2  0
M  END
$$$$

 Created by Python create_sdf_string function

 30 33  0  0  0  0  0  0  0  0999 V2000
    8.3036    9.8571   18.4133 C   0  0  0  0  0  0  0  0  0  0  0  0
    8.3694    7.6612   22.6703 C   0  0  0  0  0  0  0  0  0  0  0  0
    8.4143    6.6863   16.2273 C   0  0  0  0  0  0  0  0  0  0  0  0
   10.7581    6.5674   21.7636 C   0  0  0  0  0  0  0  0  0  0  0  0
    8.4452    8.7960   19.2958 O   0  0  0  0  0  0  0  0  0  0  0  0
    8.7122    6.7842   24.8569 C   0  0  0  0  0  0  0  0  0  0  0  0
   10.3400    6.1726   14.3081 C   0  0  0  0  0  0  0  0  0  0  0  0
    7.4297    7.5873   24.8962 C   0  0  0  0  0  0  0  0  0  0  0  0
    8.1566   10.0536   16.0516 O   0  0  0  0  0  0  0  0  0  0  0  0
   12.4989    6.2074   20.1776 C   0  0  0  0  0  0  0  0  0  0  0  0
    6.9192    9.1053   20.9073 O   0  0  0  0  0  0  0  0  0  0  0  0
   14.3979    6.0729   18.7784 C   0  0  0  0  0  0  0  0  0  0  0  0
    8.6811    9.5354   16.9998 C   0  0  0  0  0  0  0  0  0  0  0  0
    9.2512    4.2713   13.7653 O   0  0  0  0  0  0  0  0  0  0  0  0
    9.6495    8.6317   16.8332 N   0  0  0  0  0  0  0  0  0  0  0  0
    6.2934    8.6988   23.1988 O   0  0  0  0  0  0  0  0  0  0  0  0
    7.9806    8.6543   20.5437 C   0  0  0  0  0  0  0  0  0  0  0  0
   13.7270    5.7144   19.8610 O   0  0  0  0  0  0  0  0  0  0  0  0
    8.3351    5.5235   15.4478 C   0  0  0  0  0  0  0  0  0  0  0  0
    8.7700    7.8434   21.3915 C   0  0  0  0  0  0  0  0  0  0  0  0
   11.7856    6.8851   19.2401 C   0  0  0  0  0  0  0  0  0  0  0  0
   10.5281    7.4276   19.5649 C   0  0  0  0  0  0  0  0  0  0  0  0
   10.0256    7.2907   20.8484 C   0  0  0  0  0  0  0  0  0  0  0  0
    9.3113    5.3049   14.4911 C   0  0  0  0  0  0  0  0  0  0  0  0
    9.4607    7.5646   16.0139 C   0  0  0  0  0  0  0  0  0  0  0  0
   10.4192    7.3157   15.0955 C   0  0  0  0  0  0  0  0  0  0  0  0
   10.2489    6.4227   23.0218 N   0  0  0  0  0  0  0  0  0  0  0  0
    7.2472    8.0746   23.5050 C   0  0  0  0  0  0  0  0  0  0  0  0
    9.2051    6.9101   23.4604 C   0  0  0  0  0  0  0  0  0  0  0  0
   11.9646    6.0299   21.4251 C   0  0  0  0  0  0  0  0  0  0  0  0
  1  5  1  0
  1 13  1  0
  2 20  2  0
  2 28  1  0
  2 29  1  0
  3 19  4  0
  3 25  4  0
  4 23  4  0
  4 27  1  0
  4 30  4  0
  5 17  1  0
  6  8  1  0
  6 29  1  0
  7 24  4  0
  7 26  4  0
  8 28  1  0
  9 13  2  0
 10 18  1  0
 10 21  4  0
 10 30  4  0
 11 17  2  0
 12 18  1  0
 13 15  1  0
 14 24  1  0
 15 25  1  0
 16 28  2  0
 17 20  1  0
 19 24  4  0
 20 23  1  0
 21 22  4  0
 22 23  4  0
 25 26  4  0
 27 29  2  0
M  END
$$$$

 Created by Python create_sdf_string function

 30 33  0  0  0  0  0  0  0  0999 V2000
    8.3036    9.8571   18.4133 C   0  0  0  0  0  0  0  0  0  0  0  0
    8.3694    7.6612   22.6703 C   0  0  0  0  0  0  0  0  0  0  0  0
    8.4143    6.6863   16.2273 C   0  0  0  0  0  0  0  0  0  0  0  0
   10.7581    6.5674   21.7636 C   0  0  0  0  0  0  0  0  0  0  0  0
    8.4452    8.7960   19.2958 O   0  0  0  0  0  0  0  0  0  0  0  0
    8.7122    6.7842   24.8569 C   0  0  0  0  0  0  0  0  0  0  0  0
   10.3400    6.1726   14.3081 C   0  0  0  0  0  0  0  0  0  0  0  0
    7.4297    7.5873   24.8962 C   0  0  0  0  0  0  0  0  0  0  0  0
    8.1566   10.0536   16.0516 O   0  0  0  0  0  0  0  0  0  0  0  0
   12.4989    6.2074   20.1776 C   0  0  0  0  0  0  0  0  0  0  0  0
    6.9192    9.1053   20.9073 O   0  0  0  0  0  0  0  0  0  0  0  0
   14.3979    6.0729   18.7784 C   0  0  0  0  0  0  0  0  0  0  0  0
    8.6811    9.5354   16.9998 C   0  0  0  0  0  0  0  0  0  0  0  0
    9.2512    4.2713   13.7653 O   0  0  0  0  0  0  0  0  0  0  0  0
    9.6495    8.6317   16.8332 N   0  0  0  0  0  0  0  0  0  0  0  0
    6.2934    8.6988   23.1988 O   0  0  0  0  0  0  0  0  0  0  0  0
    7.9806    8.6543   20.5437 C   0  0  0  0  0  0  0  0  0  0  0  0
   13.7270    5.7144   19.8610 O   0  0  0  0  0  0  0  0  0  0  0  0
    8.3351    5.5235   15.4478 C   0  0  0  0  0  0  0  0  0  0  0  0
    8.7700    7.8434   21.3915 C   0  0  0  0  0  0  0  0  0  0  0  0
   11.7856    6.8851   19.2401 C   0  0  0  0  0  0  0  0  0  0  0  0
   10.5281    7.4276   19.5649 C   0  0  0  0  0  0  0  0  0  0  0  0
   10.0256    7.2907   20.8484 C   0  0  0  0  0  0  0  0  0  0  0  0
    9.3113    5.3049   14.4911 C   0  0  0  0  0  0  0  0  0  0  0  0
    9.4607    7.5646   16.0139 C   0  0  0  0  0  0  0  0  0  0  0  0
   10.4192    7.3157   15.0955 C   0  0  0  0  0  0  0  0  0  0  0  0
   10.2489    6.4227   23.0218 N   0  0  0  0  0  0  0  0  0  0  0  0
    7.2472    8.0746   23.5050 C   0  0  0  0  0  0  0  0  0  0  0  0
    9.2051    6.9101   23.4604 C   0  0  0  0  0  0  0  0  0  0  0  0
   11.9646    6.0299   21.4251 C   0  0  0  0  0  0  0  0  0  0  0  0
  1  5  1  0
  1 13  1  0
  2 20  2  0
  2 28  1  0
  2 29  1  0
  3 19  4  0
  3 25  4  0
  4 23  4  0
  4 27  1  0
  4 30  4  0
  5 17  1  0
  6  8  1  0
  6 29  1  0
  7 24  4  0
  7 26  4  0
  8 28  1  0
  9 13  2  0
 10 18  1  0
 10 21  4  0
 10 30  4  0
 11 17  2  0
 12 18  1  0
 13 15  1  0
 14 24  1  0
 15 25  1  0
 16 28  2  0
 17 20  1  0
 19 24  4  0
 20 23  1  0
 21 22  4  0
 22 23  4  0
 25 26  4  0
 27 29  2  0
M  END
$$$$

 Created by Python create_sdf_string function

 30 33  0  0  0  0  0  0  0  0999 V2000
    8.3036    9.8571   18.4133 C   0  0  0  0  0  0  0  0  0  0  0  0
    8.3694    7.6612   22.6703 C   0  0  0  0  0  0  0  0  0  0  0  0
    8.4143    6.6863   16.2273 C   0  0  0  0  0  0  0  0  0  0  0  0
   10.7581    6.5674   21.7636 C   0  0  0  0  0  0  0  0  0  0  0  0
    8.4452    8.7960   19.2958 O   0  0  0  0  0  0  0  0  0  0  0  0
    8.7122    6.7842   24.8569 C   0  0  0  0  0  0  0  0  0  0  0  0
   10.3400    6.1726   14.3081 C   0  0  0  0  0  0  0  0  0  0  0  0
    7.4297    7.5873   24.8962 C   0  0  0  0  0  0  0  0  0  0  0  0
    8.1566   10.0536   16.0516 O   0  0  0  0  0  0  0  0  0  0  0  0
   12.4989    6.2074   20.1776 C   0  0  0  0  0  0  0  0  0  0  0  0
    6.9192    9.1053   20.9073 O   0  0  0  0  0  0  0  0  0  0  0  0
   14.3979    6.0729   18.7784 C   0  0  0  0  0  0  0  0  0  0  0  0
    8.6811    9.5354   16.9998 C   0  0  0  0  0  0  0  0  0  0  0  0
    9.2512    4.2713   13.7653 O   0  0  0  0  0  0  0  0  0  0  0  0
    9.6495    8.6317   16.8332 N   0  0  0  0  0  0  0  0  0  0  0  0
    6.2934    8.6988   23.1988 O   0  0  0  0  0  0  0  0  0  0  0  0
    7.9806    8.6543   20.5437 C   0  0  0  0  0  0  0  0  0  0  0  0
   13.7270    5.7144   19.8610 O   0  0  0  0  0  0  0  0  0  0  0  0
    8.3351    5.5235   15.4478 C   0  0  0  0  0  0  0  0  0  0  0  0
    8.7700    7.8434   21.3915 C   0  0  0  0  0  0  0  0  0  0  0  0
   11.7856    6.8851   19.2401 C   0  0  0  0  0  0  0  0  0  0  0  0
   10.5281    7.4276   19.5649 C   0  0  0  0  0  0  0  0  0  0  0  0
   10.0256    7.2907   20.8484 C   0  0  0  0  0  0  0  0  0  0  0  0
    9.3113    5.3049   14.4911 C   0  0  0  0  0  0  0  0  0  0  0  0
    9.4607    7.5646   16.0139 C   0  0  0  0  0  0  0  0  0  0  0  0
   10.4192    7.3157   15.0955 C   0  0  0  0  0  0  0  0  0  0  0  0
   10.2489    6.4227   23.0218 N   0  0  0  0  0  0  0  0  0  0  0  0
    7.2472    8.0746   23.5050 C   0  0  0  0  0  0  0  0  0  0  0  0
    9.2051    6.9101   23.4604 C   0  0  0  0  0  0  0  0  0  0  0  0
   11.9646    6.0299   21.4251 C   0  0  0  0  0  0  0  0  0  0  0  0
  1  5  1  0
  1 13  1  0
  2 20  2  0
  2 28  1  0
  2 29  1  0
  3 19  4  0
  3 25  4  0
  4 23  4  0
  4 27  1  0
  4 30  4  0
  5 17  1  0
  6  8  1  0
  6 29  1  0
  7 24  4  0
  7 26  4  0
  8 28  1  0
  9 13  2  0
 10 18  1  0
 10 21  4  0
 10 30  4  0
 11 17  2  0
 12 18  1  0
 13 15  1  0
 14 24  1  0
 15 25  1  0
 16 28  2  0
 17 20  1  0
 19 24  4  0
 20 23  1  0
 21 22  4  0
 22 23  4  0
 25 26  4  0
 27 29  2  0
M  END
$$$$

 Created by Python create_sdf_string function

 30 33  0  0  0  0  0  0  0  0999 V2000
    8.3036    9.8571   18.4133 C   0  0  0  0  0  0  0  0  0  0  0  0
    8.3694    7.6612   22.6703 C   0  0  0  0  0  0  0  0  0  0  0  0
    8.4143    6.6863   16.2273 C   0  0  0  0  0  0  0  0  0  0  0  0
   10.7581    6.5674   21.7636 C   0  0  0  0  0  0  0  0  0  0  0  0
    8.4452    8.7960   19.2958 O   0  0  0  0  0  0  0  0  0  0  0  0
    8.7122    6.7842   24.8569 C   0  0  0  0  0  0  0  0  0  0  0  0
   10.3400    6.1726   14.3081 C   0  0  0  0  0  0  0  0  0  0  0  0
    7.4297    7.5873   24.8962 C   0  0  0  0  0  0  0  0  0  0  0  0
    8.1566   10.0536   16.0516 O   0  0  0  0  0  0  0  0  0  0  0  0
   12.4989    6.2074   20.1776 C   0  0  0  0  0  0  0  0  0  0  0  0
    6.9192    9.1053   20.9073 O   0  0  0  0  0  0  0  0  0  0  0  0
   14.3979    6.0729   18.7784 C   0  0  0  0  0  0  0  0  0  0  0  0
    8.6811    9.5354   16.9998 C   0  0  0  0  0  0  0  0  0  0  0  0
    9.2512    4.2713   13.7653 O   0  0  0  0  0  0  0  0  0  0  0  0
    9.6495    8.6317   16.8332 N   0  0  0  0  0  0  0  0  0  0  0  0
    6.2934    8.6988   23.1988 O   0  0  0  0  0  0  0  0  0  0  0  0
    7.9806    8.6543   20.5437 C   0  0  0  0  0  0  0  0  0  0  0  0
   13.7270    5.7144   19.8610 O   0  0  0  0  0  0  0  0  0  0  0  0
    8.3351    5.5235   15.4478 C   0  0  0  0  0  0  0  0  0  0  0  0
    8.7700    7.8434   21.3915 C   0  0  0  0  0  0  0  0  0  0  0  0
   11.7856    6.8851   19.2401 C   0  0  0  0  0  0  0  0  0  0  0  0
   10.5281    7.4276   19.5649 C   0  0  0  0  0  0  0  0  0  0  0  0
   10.0256    7.2907   20.8484 C   0  0  0  0  0  0  0  0  0  0  0  0
    9.3113    5.3049   14.4911 C   0  0  0  0  0  0  0  0  0  0  0  0
    9.4607    7.5646   16.0139 C   0  0  0  0  0  0  0  0  0  0  0  0
   10.4192    7.3157   15.0955 C   0  0  0  0  0  0  0  0  0  0  0  0
   10.2489    6.4227   23.0218 N   0  0  0  0  0  0  0  0  0  0  0  0
    7.2472    8.0746   23.5050 C   0  0  0  0  0  0  0  0  0  0  0  0
    9.2051    6.9101   23.4604 C   0  0  0  0  0  0  0  0  0  0  0  0
   11.9646    6.0299   21.4251 C   0  0  0  0  0  0  0  0  0  0  0  0
  1  5  1  0
  1 13  1  0
  2 20  2  0
  2 28  1  0
  2 29  1  0
  3 19  4  0
  3 25  4  0
  4 23  4  0
  4 27  1  0
  4 30  4  0
  5 17  1  0
  6  8  1  0
  6 29  1  0
  7 24  4  0
  7 26  4  0
  8 28  1  0
  9 13  2  0
 10 18  1  0
 10 21  4  0
 10 30  4  0
 11 17  2  0
 12 18  1  0
 13 15  1  0
 14 24  1  0
 15 25  1  0
 16 28  2  0
 17 20  1  0
 19 24  4  0
 20 23  1  0
 21 22  4  0
 22 23  4  0
 25 26  4  0
 27 29  2  0
M  END
$$$$

 Created by Python create_sdf_string function

 30 33  0  0  0  0  0  0  0  0999 V2000
    8.3036    9.8571   18.4133 C   0  0  0  0  0  0  0  0  0  0  0  0
    8.3694    7.6612   22.6703 C   0  0  0  0  0  0  0  0  0  0  0  0
    8.4143    6.6863   16.2273 C   0  0  0  0  0  0  0  0  0  0  0  0
   10.7581    6.5674   21.7636 C   0  0  0  0  0  0  0  0  0  0  0  0
    8.4452    8.7960   19.2958 O   0  0  0  0  0  0  0  0  0  0  0  0
    8.7122    6.7842   24.8569 C   0  0  0  0  0  0  0  0  0  0  0  0
   10.3400    6.1726   14.3081 C   0  0  0  0  0  0  0  0  0  0  0  0
    7.4297    7.5873   24.8962 C   0  0  0  0  0  0  0  0  0  0  0  0
    8.1566   10.0536   16.0516 O   0  0  0  0  0  0  0  0  0  0  0  0
   12.4989    6.2074   20.1776 C   0  0  0  0  0  0  0  0  0  0  0  0
    6.9192    9.1053   20.9073 O   0  0  0  0  0  0  0  0  0  0  0  0
   14.3979    6.0729   18.7784 C   0  0  0  0  0  0  0  0  0  0  0  0
    8.6811    9.5354   16.9998 C   0  0  0  0  0  0  0  0  0  0  0  0
    9.2512    4.2713   13.7653 O   0  0  0  0  0  0  0  0  0  0  0  0
    9.6495    8.6317   16.8332 N   0  0  0  0  0  0  0  0  0  0  0  0
    6.2934    8.6988   23.1988 O   0  0  0  0  0  0  0  0  0  0  0  0
    7.9806    8.6543   20.5437 C   0  0  0  0  0  0  0  0  0  0  0  0
   13.7270    5.7144   19.8610 O   0  0  0  0  0  0  0  0  0  0  0  0
    8.3351    5.5235   15.4478 C   0  0  0  0  0  0  0  0  0  0  0  0
    8.7700    7.8434   21.3915 C   0  0  0  0  0  0  0  0  0  0  0  0
   11.7856    6.8851   19.2401 C   0  0  0  0  0  0  0  0  0  0  0  0
   10.5281    7.4276   19.5649 C   0  0  0  0  0  0  0  0  0  0  0  0
   10.0256    7.2907   20.8484 C   0  0  0  0  0  0  0  0  0  0  0  0
    9.3113    5.3049   14.4911 C   0  0  0  0  0  0  0  0  0  0  0  0
    9.4607    7.5646   16.0139 C   0  0  0  0  0  0  0  0  0  0  0  0
   10.4192    7.3157   15.0955 C   0  0  0  0  0  0  0  0  0  0  0  0
   10.2489    6.4227   23.0218 N   0  0  0  0  0  0  0  0  0  0  0  0
    7.2472    8.0746   23.5050 C   0  0  0  0  0  0  0  0  0  0  0  0
    9.2051    6.9101   23.4604 C   0  0  0  0  0  0  0  0  0  0  0  0
   11.9646    6.0299   21.4251 C   0  0  0  0  0  0  0  0  0  0  0  0
  1  5  1  0
  1 13  1  0
  2 20  2  0
  2 28  1  0
  2 29  1  0
  3 19  4  0
  3 25  4  0
  4 23  4  0
  4 27  1  0
  4 30  4  0
  5 17  1  0
  6  8  1  0
  6 29  1  0
  7 24  4  0
  7 26  4  0
  8 28  1  0
  9 13  2  0
 10 18  1  0
 10 21  4  0
 10 30  4  0
 11 17  2  0
 12 18  1  0
 13 15  1  0
 14 24  1  0
 15 25  1  0
 16 28  2  0
 17 20  1  0
 19 24  4  0
 20 23  1  0
 21 22  4  0
 22 23  4  0
 25 26  4  0
 27 29  2  0
M  END
$$$$

 Created by Python create_sdf_string function

 30 33  0  0  0  0  0  0  0  0999 V2000
    8.3036    9.8571   18.4133 C   0  0  0  0  0  0  0  0  0  0  0  0
    8.3694    7.6612   22.6703 C   0  0  0  0  0  0  0  0  0  0  0  0
    8.4143    6.6863   16.2273 C   0  0  0  0  0  0  0  0  0  0  0  0
   10.7581    6.5674   21.7636 C   0  0  0  0  0  0  0  0  0  0  0  0
    8.4452    8.7960   19.2958 O   0  0  0  0  0  0  0  0  0  0  0  0
    8.7122    6.7842   24.8569 C   0  0  0  0  0  0  0  0  0  0  0  0
   10.3400    6.1726   14.3081 C   0  0  0  0  0  0  0  0  0  0  0  0
    7.4297    7.5873   24.8962 C   0  0  0  0  0  0  0  0  0  0  0  0
    8.1566   10.0536   16.0516 O   0  0  0  0  0  0  0  0  0  0  0  0
   12.4989    6.2074   20.1776 C   0  0  0  0  0  0  0  0  0  0  0  0
    6.9192    9.1053   20.9073 O   0  0  0  0  0  0  0  0  0  0  0  0
   14.3979    6.0729   18.7784 C   0  0  0  0  0  0  0  0  0  0  0  0
    8.6811    9.5354   16.9998 C   0  0  0  0  0  0  0  0  0  0  0  0
    9.2512    4.2713   13.7653 O   0  0  0  0  0  0  0  0  0  0  0  0
    9.6495    8.6317   16.8332 N   0  0  0  0  0  0  0  0  0  0  0  0
    6.2934    8.6988   23.1988 O   0  0  0  0  0  0  0  0  0  0  0  0
    7.9806    8.6543   20.5437 C   0  0  0  0  0  0  0  0  0  0  0  0
   13.7270    5.7144   19.8610 O   0  0  0  0  0  0  0  0  0  0  0  0
    8.3351    5.5235   15.4478 C   0  0  0  0  0  0  0  0  0  0  0  0
    8.7700    7.8434   21.3915 C   0  0  0  0  0  0  0  0  0  0  0  0
   11.7856    6.8851   19.2401 C   0  0  0  0  0  0  0  0  0  0  0  0
   10.5281    7.4276   19.5649 C   0  0  0  0  0  0  0  0  0  0  0  0
   10.0256    7.2907   20.8484 C   0  0  0  0  0  0  0  0  0  0  0  0
    9.3113    5.3049   14.4911 C   0  0  0  0  0  0  0  0  0  0  0  0
    9.4607    7.5646   16.0139 C   0  0  0  0  0  0  0  0  0  0  0  0
   10.4192    7.3157   15.0955 C   0  0  0  0  0  0  0  0  0  0  0  0
   10.2489    6.4227   23.0218 N   0  0  0  0  0  0  0  0  0  0  0  0
    7.2472    8.0746   23.5050 C   0  0  0  0  0  0  0  0  0  0  0  0
    9.2051    6.9101   23.4604 C   0  0  0  0  0  0  0  0  0  0  0  0
   11.9646    6.0299   21.4251 C   0  0  0  0  0  0  0  0  0  0  0  0
  1  5  1  0
  1 13  1  0
  2 20  2  0
  2 28  1  0
  2 29  1  0
  3 19  4  0
  3 25  4  0
  4 23  4  0
  4 27  1  0
  4 30  4  0
  5 17  1  0
  6  8  1  0
  6 29  1  0
  7 24  4  0
  7 26  4  0
  8 28  1  0
  9 13  2  0
 10 18  1  0
 10 21  4  0
 10 30  4  0
 11 17  2  0
 12 18  1  0
 13 15  1  0
 14 24  1  0
 15 25  1  0
 16 28  2  0
 17 20  1  0
 19 24  4  0
 20 23  1  0
 21 22  4  0
 22 23  4  0
 25 26  4  0
 27 29  2  0
M  END
$$$$

 Created by Python create_sdf_string function

 30 33  0  0  0  0  0  0  0  0999 V2000
    8.3036    9.8571   18.4133 C   0  0  0  0  0  0  0  0  0  0  0  0
    8.3694    7.6612   22.6703 C   0  0  0  0  0  0  0  0  0  0  0  0
    8.4143    6.6863   16.2273 C   0  0  0  0  0  0  0  0  0  0  0  0
   10.7581    6.5674   21.7636 C   0  0  0  0  0  0  0  0  0  0  0  0
    8.4452    8.7960   19.2958 O   0  0  0  0  0  0  0  0  0  0  0  0
    8.7122    6.7842   24.8569 C   0  0  0  0  0  0  0  0  0  0  0  0
   10.3400    6.1726   14.3081 C   0  0  0  0  0  0  0  0  0  0  0  0
    7.4297    7.5873   24.8962 C   0  0  0  0  0  0  0  0  0  0  0  0
    8.1566   10.0536   16.0516 O   0  0  0  0  0  0  0  0  0  0  0  0
   12.4989    6.2074   20.1776 C   0  0  0  0  0  0  0  0  0  0  0  0
    6.9192    9.1053   20.9073 O   0  0  0  0  0  0  0  0  0  0  0  0
   14.3979    6.0729   18.7784 C   0  0  0  0  0  0  0  0  0  0  0  0
    8.6811    9.5354   16.9998 C   0  0  0  0  0  0  0  0  0  0  0  0
    9.2512    4.2713   13.7653 O   0  0  0  0  0  0  0  0  0  0  0  0
    9.6495    8.6317   16.8332 N   0  0  0  0  0  0  0  0  0  0  0  0
    6.2934    8.6988   23.1988 O   0  0  0  0  0  0  0  0  0  0  0  0
    7.9806    8.6543   20.5437 C   0  0  0  0  0  0  0  0  0  0  0  0
   13.7270    5.7144   19.8610 O   0  0  0  0  0  0  0  0  0  0  0  0
    8.3351    5.5235   15.4478 C   0  0  0  0  0  0  0  0  0  0  0  0
    8.7700    7.8434   21.3915 C   0  0  0  0  0  0  0  0  0  0  0  0
   11.7856    6.8851   19.2401 C   0  0  0  0  0  0  0  0  0  0  0  0
   10.5281    7.4276   19.5649 C   0  0  0  0  0  0  0  0  0  0  0  0
   10.0256    7.2907   20.8484 C   0  0  0  0  0  0  0  0  0  0  0  0
    9.3113    5.3049   14.4911 C   0  0  0  0  0  0  0  0  0  0  0  0
    9.4607    7.5646   16.0139 C   0  0  0  0  0  0  0  0  0  0  0  0
   10.4192    7.3157   15.0955 C   0  0  0  0  0  0  0  0  0  0  0  0
   10.2489    6.4227   23.0218 N   0  0  0  0  0  0  0  0  0  0  0  0
    7.2472    8.0746   23.5050 C   0  0  0  0  0  0  0  0  0  0  0  0
    9.2051    6.9101   23.4604 C   0  0  0  0  0  0  0  0  0  0  0  0
   11.9646    6.0299   21.4251 C   0  0  0  0  0  0  0  0  0  0  0  0
  1  5  1  0
  1 13  1  0
  2 20  2  0
  2 28  1  0
  2 29  1  0
  3 19  4  0
  3 25  4  0
  4 23  4  0
  4 27  1  0
  4 30  4  0
  5 17  1  0
  6  8  1  0
  6 29  1  0
  7 24  4  0
  7 26  4  0
  8 28  1  0
  9 13  2  0
 10 18  1  0
 10 21  4  0
 10 30  4  0
 11 17  2  0
 12 18  1  0
 13 15  1  0
 14 24  1  0
 15 25  1  0
 16 28  2  0
 17 20  1  0
 19 24  4  0
 20 23  1  0
 21 22  4  0
 22 23  4  0
 25 26  4  0
 27 29  2  0
M  END
$$$$

 Created by Python create_sdf_string function

 30 33  0  0  0  0  0  0  0  0999 V2000
    8.3036    9.8571   18.4133 C   0  0  0  0  0  0  0  0  0  0  0  0
    8.3694    7.6612   22.6703 C   0  0  0  0  0  0  0  0  0  0  0  0
    8.4143    6.6863   16.2273 C   0  0  0  0  0  0  0  0  0  0  0  0
   10.7581    6.5674   21.7636 C   0  0  0  0  0  0  0  0  0  0  0  0
    8.4452    8.7960   19.2958 O   0  0  0  0  0  0  0  0  0  0  0  0
    8.7122    6.7842   24.8569 C   0  0  0  0  0  0  0  0  0  0  0  0
   10.3400    6.1726   14.3081 C   0  0  0  0  0  0  0  0  0  0  0  0
    7.4297    7.5873   24.8962 C   0  0  0  0  0  0  0  0  0  0  0  0
    8.1566   10.0536   16.0516 O   0  0  0  0  0  0  0  0  0  0  0  0
   12.4989    6.2074   20.1776 C   0  0  0  0  0  0  0  0  0  0  0  0
    6.9192    9.1053   20.9073 O   0  0  0  0  0  0  0  0  0  0  0  0
   14.3979    6.0729   18.7784 C   0  0  0  0  0  0  0  0  0  0  0  0
    8.6811    9.5354   16.9998 C   0  0  0  0  0  0  0  0  0  0  0  0
    9.2512    4.2713   13.7653 O   0  0  0  0  0  0  0  0  0  0  0  0
    9.6495    8.6317   16.8332 N   0  0  0  0  0  0  0  0  0  0  0  0
    6.2934    8.6988   23.1988 O   0  0  0  0  0  0  0  0  0  0  0  0
    7.9806    8.6543   20.5437 C   0  0  0  0  0  0  0  0  0  0  0  0
   13.7270    5.7144   19.8610 O   0  0  0  0  0  0  0  0  0  0  0  0
    8.3351    5.5235   15.4478 C   0  0  0  0  0  0  0  0  0  0  0  0
    8.7700    7.8434   21.3915 C   0  0  0  0  0  0  0  0  0  0  0  0
   11.7856    6.8851   19.2401 C   0  0  0  0  0  0  0  0  0  0  0  0
   10.5281    7.4276   19.5649 C   0  0  0  0  0  0  0  0  0  0  0  0
   10.0256    7.2907   20.8484 C   0  0  0  0  0  0  0  0  0  0  0  0
    9.3113    5.3049   14.4911 C   0  0  0  0  0  0  0  0  0  0  0  0
    9.4607    7.5646   16.0139 C   0  0  0  0  0  0  0  0  0  0  0  0
   10.4192    7.3157   15.0955 C   0  0  0  0  0  0  0  0  0  0  0  0
   10.2489    6.4227   23.0218 N   0  0  0  0  0  0  0  0  0  0  0  0
    7.2472    8.0746   23.5050 C   0  0  0  0  0  0  0  0  0  0  0  0
    9.2051    6.9101   23.4604 C   0  0  0  0  0  0  0  0  0  0  0  0
   11.9646    6.0299   21.4251 C   0  0  0  0  0  0  0  0  0  0  0  0
  1  5  1  0
  1 13  1  0
  2 20  2  0
  2 28  1  0
  2 29  1  0
  3 19  4  0
  3 25  4  0
  4 23  4  0
  4 27  1  0
  4 30  4  0
  5 17  1  0
  6  8  1  0
  6 29  1  0
  7 24  4  0
  7 26  4  0
  8 28  1  0
  9 13  2  0
 10 18  1  0
 10 21  4  0
 10 30  4  0
 11 17  2  0
 12 18  1  0
 13 15  1  0
 14 24  1  0
 15 25  1  0
 16 28  2  0
 17 20  1  0
 19 24  4  0
 20 23  1  0
 21 22  4  0
 22 23  4  0
 25 26  4  0
 27 29  2  0
M  END
$$$$

 Created by Python create_sdf_string function

 30 33  0  0  0  0  0  0  0  0999 V2000
    8.3036    9.8571   18.4133 C   0  0  0  0  0  0  0  0  0  0  0  0
    8.3694    7.6612   22.6703 C   0  0  0  0  0  0  0  0  0  0  0  0
    8.4143    6.6863   16.2273 C   0  0  0  0  0  0  0  0  0  0  0  0
   10.7581    6.5674   21.7636 C   0  0  0  0  0  0  0  0  0  0  0  0
    8.4452    8.7960   19.2958 O   0  0  0  0  0  0  0  0  0  0  0  0
    8.7122    6.7842   24.8569 C   0  0  0  0  0  0  0  0  0  0  0  0
   10.3400    6.1726   14.3081 C   0  0  0  0  0  0  0  0  0  0  0  0
    7.4297    7.5873   24.8962 C   0  0  0  0  0  0  0  0  0  0  0  0
    8.1566   10.0536   16.0516 O   0  0  0  0  0  0  0  0  0  0  0  0
   12.4989    6.2074   20.1776 C   0  0  0  0  0  0  0  0  0  0  0  0
    6.9192    9.1053   20.9073 O   0  0  0  0  0  0  0  0  0  0  0  0
   14.3979    6.0729   18.7784 C   0  0  0  0  0  0  0  0  0  0  0  0
    8.6811    9.5354   16.9998 C   0  0  0  0  0  0  0  0  0  0  0  0
    9.2512    4.2713   13.7653 O   0  0  0  0  0  0  0  0  0  0  0  0
    9.6495    8.6317   16.8332 N   0  0  0  0  0  0  0  0  0  0  0  0
    6.2934    8.6988   23.1988 O   0  0  0  0  0  0  0  0  0  0  0  0
    7.9806    8.6543   20.5437 C   0  0  0  0  0  0  0  0  0  0  0  0
   13.7270    5.7144   19.8610 O   0  0  0  0  0  0  0  0  0  0  0  0
    8.3351    5.5235   15.4478 C   0  0  0  0  0  0  0  0  0  0  0  0
    8.7700    7.8434   21.3915 C   0  0  0  0  0  0  0  0  0  0  0  0
   11.7856    6.8851   19.2401 C   0  0  0  0  0  0  0  0  0  0  0  0
   10.5281    7.4276   19.5649 C   0  0  0  0  0  0  0  0  0  0  0  0
   10.0256    7.2907   20.8484 C   0  0  0  0  0  0  0  0  0  0  0  0
    9.3113    5.3049   14.4911 C   0  0  0  0  0  0  0  0  0  0  0  0
    9.4607    7.5646   16.0139 C   0  0  0  0  0  0  0  0  0  0  0  0
   10.4192    7.3157   15.0955 C   0  0  0  0  0  0  0  0  0  0  0  0
   10.2489    6.4227   23.0218 N   0  0  0  0  0  0  0  0  0  0  0  0
    7.2472    8.0746   23.5050 C   0  0  0  0  0  0  0  0  0  0  0  0
    9.2051    6.9101   23.4604 C   0  0  0  0  0  0  0  0  0  0  0  0
   11.9646    6.0299   21.4251 C   0  0  0  0  0  0  0  0  0  0  0  0
  1  5  1  0
  1 13  1  0
  2 20  2  0
  2 28  1  0
  2 29  1  0
  3 19  4  0
  3 25  4  0
  4 23  4  0
  4 27  1  0
  4 30  4  0
  5 17  1  0
  6  8  1  0
  6 29  1  0
  7 24  4  0
  7 26  4  0
  8 28  1  0
  9 13  2  0
 10 18  1  0
 10 21  4  0
 10 30  4  0
 11 17  2  0
 12 18  1  0
 13 15  1  0
 14 24  1  0
 15 25  1  0
 16 28  2  0
 17 20  1  0
 19 24  4  0
 20 23  1  0
 21 22  4  0
 22 23  4  0
 25 26  4  0
 27 29  2  0
M  END
$$$$

 Created by Python create_sdf_string function

 30 33  0  0  0  0  0  0  0  0999 V2000
    8.3036    9.8571   18.4133 C   0  0  0  0  0  0  0  0  0  0  0  0
    8.3694    7.6612   22.6703 C   0  0  0  0  0  0  0  0  0  0  0  0
    8.4143    6.6863   16.2273 C   0  0  0  0  0  0  0  0  0  0  0  0
   10.7581    6.5674   21.7636 C   0  0  0  0  0  0  0  0  0  0  0  0
    8.4452    8.7960   19.2958 O   0  0  0  0  0  0  0  0  0  0  0  0
    8.7122    6.7842   24.8569 C   0  0  0  0  0  0  0  0  0  0  0  0
   10.3400    6.1726   14.3081 C   0  0  0  0  0  0  0  0  0  0  0  0
    7.4297    7.5873   24.8962 C   0  0  0  0  0  0  0  0  0  0  0  0
    8.1566   10.0536   16.0516 O   0  0  0  0  0  0  0  0  0  0  0  0
   12.4989    6.2074   20.1776 C   0  0  0  0  0  0  0  0  0  0  0  0
    6.9192    9.1053   20.9073 O   0  0  0  0  0  0  0  0  0  0  0  0
   14.3979    6.0729   18.7784 C   0  0  0  0  0  0  0  0  0  0  0  0
    8.6811    9.5354   16.9998 C   0  0  0  0  0  0  0  0  0  0  0  0
    9.2512    4.2713   13.7653 O   0  0  0  0  0  0  0  0  0  0  0  0
    9.6495    8.6317   16.8332 N   0  0  0  0  0  0  0  0  0  0  0  0
    6.2934    8.6988   23.1988 O   0  0  0  0  0  0  0  0  0  0  0  0
    7.9806    8.6543   20.5437 C   0  0  0  0  0  0  0  0  0  0  0  0
   13.7270    5.7144   19.8610 O   0  0  0  0  0  0  0  0  0  0  0  0
    8.3351    5.5235   15.4478 C   0  0  0  0  0  0  0  0  0  0  0  0
    8.7700    7.8434   21.3915 C   0  0  0  0  0  0  0  0  0  0  0  0
   11.7856    6.8851   19.2401 C   0  0  0  0  0  0  0  0  0  0  0  0
   10.5281    7.4276   19.5649 C   0  0  0  0  0  0  0  0  0  0  0  0
   10.0256    7.2907   20.8484 C   0  0  0  0  0  0  0  0  0  0  0  0
    9.3113    5.3049   14.4911 C   0  0  0  0  0  0  0  0  0  0  0  0
    9.4607    7.5646   16.0139 C   0  0  0  0  0  0  0  0  0  0  0  0
   10.4192    7.3157   15.0955 C   0  0  0  0  0  0  0  0  0  0  0  0
   10.2489    6.4227   23.0218 N   0  0  0  0  0  0  0  0  0  0  0  0
    7.2472    8.0746   23.5050 C   0  0  0  0  0  0  0  0  0  0  0  0
    9.2051    6.9101   23.4604 C   0  0  0  0  0  0  0  0  0  0  0  0
   11.9646    6.0299   21.4251 C   0  0  0  0  0  0  0  0  0  0  0  0
  1  5  1  0
  1 13  1  0
  2 20  2  0
  2 28  1  0
  2 29  1  0
  3 19  4  0
  3 25  4  0
  4 23  4  0
  4 27  1  0
  4 30  4  0
  5 17  1  0
  6  8  1  0
  6 29  1  0
  7 24  4  0
  7 26  4  0
  8 28  1  0
  9 13  2  0
 10 18  1  0
 10 21  4  0
 10 30  4  0
 11 17  2  0
 12 18  1  0
 13 15  1  0
 14 24  1  0
 15 25  1  0
 16 28  2  0
 17 20  1  0
 19 24  4  0
 20 23  1  0
 21 22  4  0
 22 23  4  0
 25 26  4  0
 27 29  2  0
M  END
$$$$

 Created by Python create_sdf_string function

 30 33  0  0  0  0  0  0  0  0999 V2000
    8.3036    9.8571   18.4133 C   0  0  0  0  0  0  0  0  0  0  0  0
    8.3694    7.6612   22.6703 C   0  0  0  0  0  0  0  0  0  0  0  0
    8.4143    6.6863   16.2273 C   0  0  0  0  0  0  0  0  0  0  0  0
   10.7581    6.5674   21.7636 C   0  0  0  0  0  0  0  0  0  0  0  0
    8.4452    8.7960   19.2958 O   0  0  0  0  0  0  0  0  0  0  0  0
    8.7122    6.7842   24.8569 C   0  0  0  0  0  0  0  0  0  0  0  0
   10.3400    6.1726   14.3081 C   0  0  0  0  0  0  0  0  0  0  0  0
    7.4297    7.5873   24.8962 C   0  0  0  0  0  0  0  0  0  0  0  0
    8.1566   10.0536   16.0516 O   0  0  0  0  0  0  0  0  0  0  0  0
   12.4989    6.2074   20.1776 C   0  0  0  0  0  0  0  0  0  0  0  0
    6.9192    9.1053   20.9073 O   0  0  0  0  0  0  0  0  0  0  0  0
   14.3979    6.0729   18.7784 C   0  0  0  0  0  0  0  0  0  0  0  0
    8.6811    9.5354   16.9998 C   0  0  0  0  0  0  0  0  0  0  0  0
    9.2512    4.2713   13.7653 O   0  0  0  0  0  0  0  0  0  0  0  0
    9.6495    8.6317   16.8332 N   0  0  0  0  0  0  0  0  0  0  0  0
    6.2934    8.6988   23.1988 O   0  0  0  0  0  0  0  0  0  0  0  0
    7.9806    8.6543   20.5437 C   0  0  0  0  0  0  0  0  0  0  0  0
   13.7270    5.7144   19.8610 O   0  0  0  0  0  0  0  0  0  0  0  0
    8.3351    5.5235   15.4478 C   0  0  0  0  0  0  0  0  0  0  0  0
    8.7700    7.8434   21.3915 C   0  0  0  0  0  0  0  0  0  0  0  0
   11.7856    6.8851   19.2401 C   0  0  0  0  0  0  0  0  0  0  0  0
   10.5281    7.4276   19.5649 C   0  0  0  0  0  0  0  0  0  0  0  0
   10.0256    7.2907   20.8484 C   0  0  0  0  0  0  0  0  0  0  0  0
    9.3113    5.3049   14.4911 C   0  0  0  0  0  0  0  0  0  0  0  0
    9.4607    7.5646   16.0139 C   0  0  0  0  0  0  0  0  0  0  0  0
   10.4192    7.3157   15.0955 C   0  0  0  0  0  0  0  0  0  0  0  0
   10.2489    6.4227   23.0218 N   0  0  0  0  0  0  0  0  0  0  0  0
    7.2472    8.0746   23.5050 C   0  0  0  0  0  0  0  0  0  0  0  0
    9.2051    6.9101   23.4604 C   0  0  0  0  0  0  0  0  0  0  0  0
   11.9646    6.0299   21.4251 C   0  0  0  0  0  0  0  0  0  0  0  0
  1  5  1  0
  1 13  1  0
  2 20  2  0
  2 28  1  0
  2 29  1  0
  3 19  4  0
  3 25  4  0
  4 23  4  0
  4 27  1  0
  4 30  4  0
  5 17  1  0
  6  8  1  0
  6 29  1  0
  7 24  4  0
  7 26  4  0
  8 28  1  0
  9 13  2  0
 10 18  1  0
 10 21  4  0
 10 30  4  0
 11 17  2  0
 12 18  1  0
 13 15  1  0
 14 24  1  0
 15 25  1  0
 16 28  2  0
 17 20  1  0
 19 24  4  0
 20 23  1  0
 21 22  4  0
 22 23  4  0
 25 26  4  0
 27 29  2  0
M  END
$$$$

 Created by Python create_sdf_string function

 30 33  0  0  0  0  0  0  0  0999 V2000
    8.3036    9.8571   18.4133 C   0  0  0  0  0  0  0  0  0  0  0  0
    8.3694    7.6612   22.6703 C   0  0  0  0  0  0  0  0  0  0  0  0
    8.4143    6.6863   16.2273 C   0  0  0  0  0  0  0  0  0  0  0  0
   10.7581    6.5674   21.7636 C   0  0  0  0  0  0  0  0  0  0  0  0
    8.4452    8.7960   19.2958 O   0  0  0  0  0  0  0  0  0  0  0  0
    8.7122    6.7842   24.8569 C   0  0  0  0  0  0  0  0  0  0  0  0
   10.3400    6.1726   14.3081 C   0  0  0  0  0  0  0  0  0  0  0  0
    7.4297    7.5873   24.8962 C   0  0  0  0  0  0  0  0  0  0  0  0
    8.1566   10.0536   16.0516 O   0  0  0  0  0  0  0  0  0  0  0  0
   12.4989    6.2074   20.1776 C   0  0  0  0  0  0  0  0  0  0  0  0
    6.9192    9.1053   20.9073 O   0  0  0  0  0  0  0  0  0  0  0  0
   14.3979    6.0729   18.7784 C   0  0  0  0  0  0  0  0  0  0  0  0
    8.6811    9.5354   16.9998 C   0  0  0  0  0  0  0  0  0  0  0  0
    9.2512    4.2713   13.7653 O   0  0  0  0  0  0  0  0  0  0  0  0
    9.6495    8.6317   16.8332 N   0  0  0  0  0  0  0  0  0  0  0  0
    6.2934    8.6988   23.1988 O   0  0  0  0  0  0  0  0  0  0  0  0
    7.9806    8.6543   20.5437 C   0  0  0  0  0  0  0  0  0  0  0  0
   13.7270    5.7144   19.8610 O   0  0  0  0  0  0  0  0  0  0  0  0
    8.3351    5.5235   15.4478 C   0  0  0  0  0  0  0  0  0  0  0  0
    8.7700    7.8434   21.3915 C   0  0  0  0  0  0  0  0  0  0  0  0
   11.7856    6.8851   19.2401 C   0  0  0  0  0  0  0  0  0  0  0  0
   10.5281    7.4276   19.5649 C   0  0  0  0  0  0  0  0  0  0  0  0
   10.0256    7.2907   20.8484 C   0  0  0  0  0  0  0  0  0  0  0  0
    9.3113    5.3049   14.4911 C   0  0  0  0  0  0  0  0  0  0  0  0
    9.4607    7.5646   16.0139 C   0  0  0  0  0  0  0  0  0  0  0  0
   10.4192    7.3157   15.0955 C   0  0  0  0  0  0  0  0  0  0  0  0
   10.2489    6.4227   23.0218 N   0  0  0  0  0  0  0  0  0  0  0  0
    7.2472    8.0746   23.5050 C   0  0  0  0  0  0  0  0  0  0  0  0
    9.2051    6.9101   23.4604 C   0  0  0  0  0  0  0  0  0  0  0  0
   11.9646    6.0299   21.4251 C   0  0  0  0  0  0  0  0  0  0  0  0
  1  5  1  0
  1 13  1  0
  2 20  2  0
  2 28  1  0
  2 29  1  0
  3 19  4  0
  3 25  4  0
  4 23  4  0
  4 27  1  0
  4 30  4  0
  5 17  1  0
  6  8  1  0
  6 29  1  0
  7 24  4  0
  7 26  4  0
  8 28  1  0
  9 13  2  0
 10 18  1  0
 10 21  4  0
 10 30  4  0
 11 17  2  0
 12 18  1  0
 13 15  1  0
 14 24  1  0
 15 25  1  0
 16 28  2  0
 17 20  1  0
 19 24  4  0
 20 23  1  0
 21 22  4  0
 22 23  4  0
 25 26  4  0
 27 29  2  0
M  END
$$$$

 Created by Python create_sdf_string function

 30 33  0  0  0  0  0  0  0  0999 V2000
    8.3036    9.8571   18.4133 C   0  0  0  0  0  0  0  0  0  0  0  0
    8.3694    7.6612   22.6703 C   0  0  0  0  0  0  0  0  0  0  0  0
    8.4143    6.6863   16.2273 C   0  0  0  0  0  0  0  0  0  0  0  0
   10.7581    6.5674   21.7636 C   0  0  0  0  0  0  0  0  0  0  0  0
    8.4452    8.7960   19.2958 O   0  0  0  0  0  0  0  0  0  0  0  0
    8.7122    6.7842   24.8569 C   0  0  0  0  0  0  0  0  0  0  0  0
   10.3400    6.1726   14.3081 C   0  0  0  0  0  0  0  0  0  0  0  0
    7.4297    7.5873   24.8962 C   0  0  0  0  0  0  0  0  0  0  0  0
    8.1566   10.0536   16.0516 O   0  0  0  0  0  0  0  0  0  0  0  0
   12.4989    6.2074   20.1776 C   0  0  0  0  0  0  0  0  0  0  0  0
    6.9192    9.1053   20.9073 O   0  0  0  0  0  0  0  0  0  0  0  0
   14.3979    6.0729   18.7784 C   0  0  0  0  0  0  0  0  0  0  0  0
    8.6811    9.5354   16.9998 C   0  0  0  0  0  0  0  0  0  0  0  0
    9.2512    4.2713   13.7653 O   0  0  0  0  0  0  0  0  0  0  0  0
    9.6495    8.6317   16.8332 N   0  0  0  0  0  0  0  0  0  0  0  0
    6.2934    8.6988   23.1988 O   0  0  0  0  0  0  0  0  0  0  0  0
    7.9806    8.6543   20.5437 C   0  0  0  0  0  0  0  0  0  0  0  0
   13.7270    5.7144   19.8610 O   0  0  0  0  0  0  0  0  0  0  0  0
    8.3351    5.5235   15.4478 C   0  0  0  0  0  0  0  0  0  0  0  0
    8.7700    7.8434   21.3915 C   0  0  0  0  0  0  0  0  0  0  0  0
   11.7856    6.8851   19.2401 C   0  0  0  0  0  0  0  0  0  0  0  0
   10.5281    7.4276   19.5649 C   0  0  0  0  0  0  0  0  0  0  0  0
   10.0256    7.2907   20.8484 C   0  0  0  0  0  0  0  0  0  0  0  0
    9.3113    5.3049   14.4911 C   0  0  0  0  0  0  0  0  0  0  0  0
    9.4607    7.5646   16.0139 C   0  0  0  0  0  0  0  0  0  0  0  0
   10.4192    7.3157   15.0955 C   0  0  0  0  0  0  0  0  0  0  0  0
   10.2489    6.4227   23.0218 N   0  0  0  0  0  0  0  0  0  0  0  0
    7.2472    8.0746   23.5050 C   0  0  0  0  0  0  0  0  0  0  0  0
    9.2051    6.9101   23.4604 C   0  0  0  0  0  0  0  0  0  0  0  0
   11.9646    6.0299   21.4251 C   0  0  0  0  0  0  0  0  0  0  0  0
  1  5  1  0
  1 13  1  0
  2 20  2  0
  2 28  1  0
  2 29  1  0
  3 19  4  0
  3 25  4  0
  4 23  4  0
  4 27  1  0
  4 30  4  0
  5 17  1  0
  6  8  1  0
  6 29  1  0
  7 24  4  0
  7 26  4  0
  8 28  1  0
  9 13  2  0
 10 18  1  0
 10 21  4  0
 10 30  4  0
 11 17  2  0
 12 18  1  0
 13 15  1  0
 14 24  1  0
 15 25  1  0
 16 28  2  0
 17 20  1  0
 19 24  4  0
 20 23  1  0
 21 22  4  0
 22 23  4  0
 25 26  4  0
 27 29  2  0
M  END
$$$$

 Created by Python create_sdf_string function

 30 33  0  0  0  0  0  0  0  0999 V2000
    8.3036    9.8571   18.4133 C   0  0  0  0  0  0  0  0  0  0  0  0
    8.3694    7.6612   22.6703 C   0  0  0  0  0  0  0  0  0  0  0  0
    8.4143    6.6863   16.2273 C   0  0  0  0  0  0  0  0  0  0  0  0
   10.7581    6.5674   21.7636 C   0  0  0  0  0  0  0  0  0  0  0  0
    8.4452    8.7960   19.2958 O   0  0  0  0  0  0  0  0  0  0  0  0
    8.7122    6.7842   24.8569 C   0  0  0  0  0  0  0  0  0  0  0  0
   10.3400    6.1726   14.3081 C   0  0  0  0  0  0  0  0  0  0  0  0
    7.4297    7.5873   24.8962 C   0  0  0  0  0  0  0  0  0  0  0  0
    8.1566   10.0536   16.0516 O   0  0  0  0  0  0  0  0  0  0  0  0
   12.4989    6.2074   20.1776 C   0  0  0  0  0  0  0  0  0  0  0  0
    6.9192    9.1053   20.9073 O   0  0  0  0  0  0  0  0  0  0  0  0
   14.3979    6.0729   18.7784 C   0  0  0  0  0  0  0  0  0  0  0  0
    8.6811    9.5354   16.9998 C   0  0  0  0  0  0  0  0  0  0  0  0
    9.2512    4.2713   13.7653 O   0  0  0  0  0  0  0  0  0  0  0  0
    9.6495    8.6317   16.8332 N   0  0  0  0  0  0  0  0  0  0  0  0
    6.2934    8.6988   23.1988 O   0  0  0  0  0  0  0  0  0  0  0  0
    7.9806    8.6543   20.5437 C   0  0  0  0  0  0  0  0  0  0  0  0
   13.7270    5.7144   19.8610 O   0  0  0  0  0  0  0  0  0  0  0  0
    8.3351    5.5235   15.4478 C   0  0  0  0  0  0  0  0  0  0  0  0
    8.7700    7.8434   21.3915 C   0  0  0  0  0  0  0  0  0  0  0  0
   11.7856    6.8851   19.2401 C   0  0  0  0  0  0  0  0  0  0  0  0
   10.5281    7.4276   19.5649 C   0  0  0  0  0  0  0  0  0  0  0  0
   10.0256    7.2907   20.8484 C   0  0  0  0  0  0  0  0  0  0  0  0
    9.3113    5.3049   14.4911 C   0  0  0  0  0  0  0  0  0  0  0  0
    9.4607    7.5646   16.0139 C   0  0  0  0  0  0  0  0  0  0  0  0
   10.4192    7.3157   15.0955 C   0  0  0  0  0  0  0  0  0  0  0  0
   10.2489    6.4227   23.0218 N   0  0  0  0  0  0  0  0  0  0  0  0
    7.2472    8.0746   23.5050 C   0  0  0  0  0  0  0  0  0  0  0  0
    9.2051    6.9101   23.4604 C   0  0  0  0  0  0  0  0  0  0  0  0
   11.9646    6.0299   21.4251 C   0  0  0  0  0  0  0  0  0  0  0  0
  1  5  1  0
  1 13  1  0
  2 20  2  0
  2 28  1  0
  2 29  1  0
  3 19  4  0
  3 25  4  0
  4 23  4  0
  4 27  1  0
  4 30  4  0
  5 17  1  0
  6  8  1  0
  6 29  1  0
  7 24  4  0
  7 26  4  0
  8 28  1  0
  9 13  2  0
 10 18  1  0
 10 21  4  0
 10 30  4  0
 11 17  2  0
 12 18  1  0
 13 15  1  0
 14 24  1  0
 15 25  1  0
 16 28  2  0
 17 20  1  0
 19 24  4  0
 20 23  1  0
 21 22  4  0
 22 23  4  0
 25 26  4  0
 27 29  2  0
M  END
$$$$

 Created by Python create_sdf_string function

 30 33  0  0  0  0  0  0  0  0999 V2000
    8.3036    9.8571   18.4133 C   0  0  0  0  0  0  0  0  0  0  0  0
    8.3694    7.6612   22.6703 C   0  0  0  0  0  0  0  0  0  0  0  0
    8.4143    6.6863   16.2273 C   0  0  0  0  0  0  0  0  0  0  0  0
   10.7581    6.5674   21.7636 C   0  0  0  0  0  0  0  0  0  0  0  0
    8.4452    8.7960   19.2958 O   0  0  0  0  0  0  0  0  0  0  0  0
    8.7122    6.7842   24.8569 C   0  0  0  0  0  0  0  0  0  0  0  0
   10.3400    6.1726   14.3081 C   0  0  0  0  0  0  0  0  0  0  0  0
    7.4297    7.5873   24.8962 C   0  0  0  0  0  0  0  0  0  0  0  0
    8.1566   10.0536   16.0516 O   0  0  0  0  0  0  0  0  0  0  0  0
   12.4989    6.2074   20.1776 C   0  0  0  0  0  0  0  0  0  0  0  0
    6.9192    9.1053   20.9073 O   0  0  0  0  0  0  0  0  0  0  0  0
   14.3979    6.0729   18.7784 C   0  0  0  0  0  0  0  0  0  0  0  0
    8.6811    9.5354   16.9998 C   0  0  0  0  0  0  0  0  0  0  0  0
    9.2512    4.2713   13.7653 O   0  0  0  0  0  0  0  0  0  0  0  0
    9.6495    8.6317   16.8332 N   0  0  0  0  0  0  0  0  0  0  0  0
    6.2934    8.6988   23.1988 O   0  0  0  0  0  0  0  0  0  0  0  0
    7.9806    8.6543   20.5437 C   0  0  0  0  0  0  0  0  0  0  0  0
   13.7270    5.7144   19.8610 O   0  0  0  0  0  0  0  0  0  0  0  0
    8.3351    5.5235   15.4478 C   0  0  0  0  0  0  0  0  0  0  0  0
    8.7700    7.8434   21.3915 C   0  0  0  0  0  0  0  0  0  0  0  0
   11.7856    6.8851   19.2401 C   0  0  0  0  0  0  0  0  0  0  0  0
   10.5281    7.4276   19.5649 C   0  0  0  0  0  0  0  0  0  0  0  0
   10.0256    7.2907   20.8484 C   0  0  0  0  0  0  0  0  0  0  0  0
    9.3113    5.3049   14.4911 C   0  0  0  0  0  0  0  0  0  0  0  0
    9.4607    7.5646   16.0139 C   0  0  0  0  0  0  0  0  0  0  0  0
   10.4192    7.3157   15.0955 C   0  0  0  0  0  0  0  0  0  0  0  0
   10.2489    6.4227   23.0218 N   0  0  0  0  0  0  0  0  0  0  0  0
    7.2472    8.0746   23.5050 C   0  0  0  0  0  0  0  0  0  0  0  0
    9.2051    6.9101   23.4604 C   0  0  0  0  0  0  0  0  0  0  0  0
   11.9646    6.0299   21.4251 C   0  0  0  0  0  0  0  0  0  0  0  0
  1  5  1  0
  1 13  1  0
  2 20  2  0
  2 28  1  0
  2 29  1  0
  3 19  4  0
  3 25  4  0
  4 23  4  0
  4 27  1  0
  4 30  4  0
  5 17  1  0
  6  8  1  0
  6 29  1  0
  7 24  4  0
  7 26  4  0
  8 28  1  0
  9 13  2  0
 10 18  1  0
 10 21  4  0
 10 30  4  0
 11 17  2  0
 12 18  1  0
 13 15  1  0
 14 24  1  0
 15 25  1  0
 16 28  2  0
 17 20  1  0
 19 24  4  0
 20 23  1  0
 21 22  4  0
 22 23  4  0
 25 26  4  0
 27 29  2  0
M  END
$$$$

 Created by Python create_sdf_string function

 30 33  0  0  0  0  0  0  0  0999 V2000
    8.3036    9.8571   18.4133 C   0  0  0  0  0  0  0  0  0  0  0  0
    8.3694    7.6612   22.6703 C   0  0  0  0  0  0  0  0  0  0  0  0
    8.4143    6.6863   16.2273 C   0  0  0  0  0  0  0  0  0  0  0  0
   10.7581    6.5674   21.7636 C   0  0  0  0  0  0  0  0  0  0  0  0
    8.4452    8.7960   19.2958 O   0  0  0  0  0  0  0  0  0  0  0  0
    8.7122    6.7842   24.8569 C   0  0  0  0  0  0  0  0  0  0  0  0
   10.3400    6.1726   14.3081 C   0  0  0  0  0  0  0  0  0  0  0  0
    7.4297    7.5873   24.8962 C   0  0  0  0  0  0  0  0  0  0  0  0
    8.1566   10.0536   16.0516 O   0  0  0  0  0  0  0  0  0  0  0  0
   12.4989    6.2074   20.1776 C   0  0  0  0  0  0  0  0  0  0  0  0
    6.9192    9.1053   20.9073 O   0  0  0  0  0  0  0  0  0  0  0  0
   14.3979    6.0729   18.7784 C   0  0  0  0  0  0  0  0  0  0  0  0
    8.6811    9.5354   16.9998 C   0  0  0  0  0  0  0  0  0  0  0  0
    9.2512    4.2713   13.7653 O   0  0  0  0  0  0  0  0  0  0  0  0
    9.6495    8.6317   16.8332 N   0  0  0  0  0  0  0  0  0  0  0  0
    6.2934    8.6988   23.1988 O   0  0  0  0  0  0  0  0  0  0  0  0
    7.9806    8.6543   20.5437 C   0  0  0  0  0  0  0  0  0  0  0  0
   13.7270    5.7144   19.8610 O   0  0  0  0  0  0  0  0  0  0  0  0
    8.3351    5.5235   15.4478 C   0  0  0  0  0  0  0  0  0  0  0  0
    8.7700    7.8434   21.3915 C   0  0  0  0  0  0  0  0  0  0  0  0
   11.7856    6.8851   19.2401 C   0  0  0  0  0  0  0  0  0  0  0  0
   10.5281    7.4276   19.5649 C   0  0  0  0  0  0  0  0  0  0  0  0
   10.0256    7.2907   20.8484 C   0  0  0  0  0  0  0  0  0  0  0  0
    9.3113    5.3049   14.4911 C   0  0  0  0  0  0  0  0  0  0  0  0
    9.4607    7.5646   16.0139 C   0  0  0  0  0  0  0  0  0  0  0  0
   10.4192    7.3157   15.0955 C   0  0  0  0  0  0  0  0  0  0  0  0
   10.2489    6.4227   23.0218 N   0  0  0  0  0  0  0  0  0  0  0  0
    7.2472    8.0746   23.5050 C   0  0  0  0  0  0  0  0  0  0  0  0
    9.2051    6.9101   23.4604 C   0  0  0  0  0  0  0  0  0  0  0  0
   11.9646    6.0299   21.4251 C   0  0  0  0  0  0  0  0  0  0  0  0
  1  5  1  0
  1 13  1  0
  2 20  2  0
  2 28  1  0
  2 29  1  0
  3 19  4  0
  3 25  4  0
  4 23  4  0
  4 27  1  0
  4 30  4  0
  5 17  1  0
  6  8  1  0
  6 29  1  0
  7 24  4  0
  7 26  4  0
  8 28  1  0
  9 13  2  0
 10 18  1  0
 10 21  4  0
 10 30  4  0
 11 17  2  0
 12 18  1  0
 13 15  1  0
 14 24  1  0
 15 25  1  0
 16 28  2  0
 17 20  1  0
 19 24  4  0
 20 23  1  0
 21 22  4  0
 22 23  4  0
 25 26  4  0
 27 29  2  0
M  END
$$$$

 Created by Python create_sdf_string function

 30 33  0  0  0  0  0  0  0  0999 V2000
    8.3036    9.8571   18.4133 C   0  0  0  0  0  0  0  0  0  0  0  0
    8.3694    7.6612   22.6703 C   0  0  0  0  0  0  0  0  0  0  0  0
    8.4143    6.6863   16.2273 C   0  0  0  0  0  0  0  0  0  0  0  0
   10.7581    6.5674   21.7636 C   0  0  0  0  0  0  0  0  0  0  0  0
    8.4452    8.7960   19.2958 O   0  0  0  0  0  0  0  0  0  0  0  0
    8.7122    6.7842   24.8569 C   0  0  0  0  0  0  0  0  0  0  0  0
   10.3400    6.1726   14.3081 C   0  0  0  0  0  0  0  0  0  0  0  0
    7.4297    7.5873   24.8962 C   0  0  0  0  0  0  0  0  0  0  0  0
    8.1566   10.0536   16.0516 O   0  0  0  0  0  0  0  0  0  0  0  0
   12.4989    6.2074   20.1776 C   0  0  0  0  0  0  0  0  0  0  0  0
    6.9192    9.1053   20.9073 O   0  0  0  0  0  0  0  0  0  0  0  0
   14.3979    6.0729   18.7784 C   0  0  0  0  0  0  0  0  0  0  0  0
    8.6811    9.5354   16.9998 C   0  0  0  0  0  0  0  0  0  0  0  0
    9.2512    4.2713   13.7653 O   0  0  0  0  0  0  0  0  0  0  0  0
    9.6495    8.6317   16.8332 N   0  0  0  0  0  0  0  0  0  0  0  0
    6.2934    8.6988   23.1988 O   0  0  0  0  0  0  0  0  0  0  0  0
    7.9806    8.6543   20.5437 C   0  0  0  0  0  0  0  0  0  0  0  0
   13.7270    5.7144   19.8610 O   0  0  0  0  0  0  0  0  0  0  0  0
    8.3351    5.5235   15.4478 C   0  0  0  0  0  0  0  0  0  0  0  0
    8.7700    7.8434   21.3915 C   0  0  0  0  0  0  0  0  0  0  0  0
   11.7856    6.8851   19.2401 C   0  0  0  0  0  0  0  0  0  0  0  0
   10.5281    7.4276   19.5649 C   0  0  0  0  0  0  0  0  0  0  0  0
   10.0256    7.2907   20.8484 C   0  0  0  0  0  0  0  0  0  0  0  0
    9.3113    5.3049   14.4911 C   0  0  0  0  0  0  0  0  0  0  0  0
    9.4607    7.5646   16.0139 C   0  0  0  0  0  0  0  0  0  0  0  0
   10.4192    7.3157   15.0955 C   0  0  0  0  0  0  0  0  0  0  0  0
   10.2489    6.4227   23.0218 N   0  0  0  0  0  0  0  0  0  0  0  0
    7.2472    8.0746   23.5050 C   0  0  0  0  0  0  0  0  0  0  0  0
    9.2051    6.9101   23.4604 C   0  0  0  0  0  0  0  0  0  0  0  0
   11.9646    6.0299   21.4251 C   0  0  0  0  0  0  0  0  0  0  0  0
  1  5  1  0
  1 13  1  0
  2 20  2  0
  2 28  1  0
  2 29  1  0
  3 19  4  0
  3 25  4  0
  4 23  4  0
  4 27  1  0
  4 30  4  0
  5 17  1  0
  6  8  1  0
  6 29  1  0
  7 24  4  0
  7 26  4  0
  8 28  1  0
  9 13  2  0
 10 18  1  0
 10 21  4  0
 10 30  4  0
 11 17  2  0
 12 18  1  0
 13 15  1  0
 14 24  1  0
 15 25  1  0
 16 28  2  0
 17 20  1  0
 19 24  4  0
 20 23  1  0
 21 22  4  0
 22 23  4  0
 25 26  4  0
 27 29  2  0
M  END
$$$$

 Created by Python create_sdf_string function

 30 33  0  0  0  0  0  0  0  0999 V2000
    8.3036    9.8571   18.4133 C   0  0  0  0  0  0  0  0  0  0  0  0
    8.3694    7.6612   22.6703 C   0  0  0  0  0  0  0  0  0  0  0  0
    8.4143    6.6863   16.2273 C   0  0  0  0  0  0  0  0  0  0  0  0
   10.7581    6.5674   21.7636 C   0  0  0  0  0  0  0  0  0  0  0  0
    8.4452    8.7960   19.2958 O   0  0  0  0  0  0  0  0  0  0  0  0
    8.7122    6.7842   24.8569 C   0  0  0  0  0  0  0  0  0  0  0  0
   10.3400    6.1726   14.3081 C   0  0  0  0  0  0  0  0  0  0  0  0
    7.4297    7.5873   24.8962 C   0  0  0  0  0  0  0  0  0  0  0  0
    8.1566   10.0536   16.0516 O   0  0  0  0  0  0  0  0  0  0  0  0
   12.4989    6.2074   20.1776 C   0  0  0  0  0  0  0  0  0  0  0  0
    6.9192    9.1053   20.9073 O   0  0  0  0  0  0  0  0  0  0  0  0
   14.3979    6.0729   18.7784 C   0  0  0  0  0  0  0  0  0  0  0  0
    8.6811    9.5354   16.9998 C   0  0  0  0  0  0  0  0  0  0  0  0
    9.2512    4.2713   13.7653 O   0  0  0  0  0  0  0  0  0  0  0  0
    9.6495    8.6317   16.8332 N   0  0  0  0  0  0  0  0  0  0  0  0
    6.2934    8.6988   23.1988 O   0  0  0  0  0  0  0  0  0  0  0  0
    7.9806    8.6543   20.5437 C   0  0  0  0  0  0  0  0  0  0  0  0
   13.7270    5.7144   19.8610 O   0  0  0  0  0  0  0  0  0  0  0  0
    8.3351    5.5235   15.4478 C   0  0  0  0  0  0  0  0  0  0  0  0
    8.7700    7.8434   21.3915 C   0  0  0  0  0  0  0  0  0  0  0  0
   11.7856    6.8851   19.2401 C   0  0  0  0  0  0  0  0  0  0  0  0
   10.5281    7.4276   19.5649 C   0  0  0  0  0  0  0  0  0  0  0  0
   10.0256    7.2907   20.8484 C   0  0  0  0  0  0  0  0  0  0  0  0
    9.3113    5.3049   14.4911 C   0  0  0  0  0  0  0  0  0  0  0  0
    9.4607    7.5646   16.0139 C   0  0  0  0  0  0  0  0  0  0  0  0
   10.4192    7.3157   15.0955 C   0  0  0  0  0  0  0  0  0  0  0  0
   10.2489    6.4227   23.0218 N   0  0  0  0  0  0  0  0  0  0  0  0
    7.2472    8.0746   23.5050 C   0  0  0  0  0  0  0  0  0  0  0  0
    9.2051    6.9101   23.4604 C   0  0  0  0  0  0  0  0  0  0  0  0
   11.9646    6.0299   21.4251 C   0  0  0  0  0  0  0  0  0  0  0  0
  1  5  1  0
  1 13  1  0
  2 20  2  0
  2 28  1  0
  2 29  1  0
  3 19  4  0
  3 25  4  0
  4 23  4  0
  4 27  1  0
  4 30  4  0
  5 17  1  0
  6  8  1  0
  6 29  1  0
  7 24  4  0
  7 26  4  0
  8 28  1  0
  9 13  2  0
 10 18  1  0
 10 21  4  0
 10 30  4  0
 11 17  2  0
 12 18  1  0
 13 15  1  0
 14 24  1  0
 15 25  1  0
 16 28  2  0
 17 20  1  0
 19 24  4  0
 20 23  1  0
 21 22  4  0
 22 23  4  0
 25 26  4  0
 27 29  2  0
M  END
$$$$

 Created by Python create_sdf_string function

 30 33  0  0  0  0  0  0  0  0999 V2000
    8.3036    9.8571   18.4133 C   0  0  0  0  0  0  0  0  0  0  0  0
    8.3694    7.6612   22.6703 C   0  0  0  0  0  0  0  0  0  0  0  0
    8.4143    6.6863   16.2273 C   0  0  0  0  0  0  0  0  0  0  0  0
   10.7581    6.5674   21.7636 C   0  0  0  0  0  0  0  0  0  0  0  0
    8.4452    8.7960   19.2958 O   0  0  0  0  0  0  0  0  0  0  0  0
    8.7122    6.7842   24.8569 C   0  0  0  0  0  0  0  0  0  0  0  0
   10.3400    6.1726   14.3081 C   0  0  0  0  0  0  0  0  0  0  0  0
    7.4297    7.5873   24.8962 C   0  0  0  0  0  0  0  0  0  0  0  0
    8.1566   10.0536   16.0516 O   0  0  0  0  0  0  0  0  0  0  0  0
   12.4989    6.2074   20.1776 C   0  0  0  0  0  0  0  0  0  0  0  0
    6.9192    9.1053   20.9073 O   0  0  0  0  0  0  0  0  0  0  0  0
   14.3979    6.0729   18.7784 C   0  0  0  0  0  0  0  0  0  0  0  0
    8.6811    9.5354   16.9998 C   0  0  0  0  0  0  0  0  0  0  0  0
    9.2512    4.2713   13.7653 O   0  0  0  0  0  0  0  0  0  0  0  0
    9.6495    8.6317   16.8332 N   0  0  0  0  0  0  0  0  0  0  0  0
    6.2934    8.6988   23.1988 O   0  0  0  0  0  0  0  0  0  0  0  0
    7.9806    8.6543   20.5437 C   0  0  0  0  0  0  0  0  0  0  0  0
   13.7270    5.7144   19.8610 O   0  0  0  0  0  0  0  0  0  0  0  0
    8.3351    5.5235   15.4478 C   0  0  0  0  0  0  0  0  0  0  0  0
    8.7700    7.8434   21.3915 C   0  0  0  0  0  0  0  0  0  0  0  0
   11.7856    6.8851   19.2401 C   0  0  0  0  0  0  0  0  0  0  0  0
   10.5281    7.4276   19.5649 C   0  0  0  0  0  0  0  0  0  0  0  0
   10.0256    7.2907   20.8484 C   0  0  0  0  0  0  0  0  0  0  0  0
    9.3113    5.3049   14.4911 C   0  0  0  0  0  0  0  0  0  0  0  0
    9.4607    7.5646   16.0139 C   0  0  0  0  0  0  0  0  0  0  0  0
   10.4192    7.3157   15.0955 C   0  0  0  0  0  0  0  0  0  0  0  0
   10.2489    6.4227   23.0218 N   0  0  0  0  0  0  0  0  0  0  0  0
    7.2472    8.0746   23.5050 C   0  0  0  0  0  0  0  0  0  0  0  0
    9.2051    6.9101   23.4604 C   0  0  0  0  0  0  0  0  0  0  0  0
   11.9646    6.0299   21.4251 C   0  0  0  0  0  0  0  0  0  0  0  0
  1  5  1  0
  1 13  1  0
  2 20  2  0
  2 28  1  0
  2 29  1  0
  3 19  4  0
  3 25  4  0
  4 23  4  0
  4 27  1  0
  4 30  4  0
  5 17  1  0
  6  8  1  0
  6 29  1  0
  7 24  4  0
  7 26  4  0
  8 28  1  0
  9 13  2  0
 10 18  1  0
 10 21  4  0
 10 30  4  0
 11 17  2  0
 12 18  1  0
 13 15  1  0
 14 24  1  0
 15 25  1  0
 16 28  2  0
 17 20  1  0
 19 24  4  0
 20 23  1  0
 21 22  4  0
 22 23  4  0
 25 26  4  0
 27 29  2  0
M  END
$$$$

 Created by Python create_sdf_string function

 30 33  0  0  0  0  0  0  0  0999 V2000
    8.3036    9.8571   18.4133 C   0  0  0  0  0  0  0  0  0  0  0  0
    8.3694    7.6612   22.6703 C   0  0  0  0  0  0  0  0  0  0  0  0
    8.4143    6.6863   16.2273 C   0  0  0  0  0  0  0  0  0  0  0  0
   10.7581    6.5674   21.7636 C   0  0  0  0  0  0  0  0  0  0  0  0
    8.4452    8.7960   19.2958 O   0  0  0  0  0  0  0  0  0  0  0  0
    8.7122    6.7842   24.8569 C   0  0  0  0  0  0  0  0  0  0  0  0
   10.3400    6.1726   14.3081 C   0  0  0  0  0  0  0  0  0  0  0  0
    7.4297    7.5873   24.8962 C   0  0  0  0  0  0  0  0  0  0  0  0
    8.1566   10.0536   16.0516 O   0  0  0  0  0  0  0  0  0  0  0  0
   12.4989    6.2074   20.1776 C   0  0  0  0  0  0  0  0  0  0  0  0
    6.9192    9.1053   20.9073 O   0  0  0  0  0  0  0  0  0  0  0  0
   14.3979    6.0729   18.7784 C   0  0  0  0  0  0  0  0  0  0  0  0
    8.6811    9.5354   16.9998 C   0  0  0  0  0  0  0  0  0  0  0  0
    9.2512    4.2713   13.7653 O   0  0  0  0  0  0  0  0  0  0  0  0
    9.6495    8.6317   16.8332 N   0  0  0  0  0  0  0  0  0  0  0  0
    6.2934    8.6988   23.1988 O   0  0  0  0  0  0  0  0  0  0  0  0
    7.9806    8.6543   20.5437 C   0  0  0  0  0  0  0  0  0  0  0  0
   13.7270    5.7144   19.8610 O   0  0  0  0  0  0  0  0  0  0  0  0
    8.3351    5.5235   15.4478 C   0  0  0  0  0  0  0  0  0  0  0  0
    8.7700    7.8434   21.3915 C   0  0  0  0  0  0  0  0  0  0  0  0
   11.7856    6.8851   19.2401 C   0  0  0  0  0  0  0  0  0  0  0  0
   10.5281    7.4276   19.5649 C   0  0  0  0  0  0  0  0  0  0  0  0
   10.0256    7.2907   20.8484 C   0  0  0  0  0  0  0  0  0  0  0  0
    9.3113    5.3049   14.4911 C   0  0  0  0  0  0  0  0  0  0  0  0
    9.4607    7.5646   16.0139 C   0  0  0  0  0  0  0  0  0  0  0  0
   10.4192    7.3157   15.0955 C   0  0  0  0  0  0  0  0  0  0  0  0
   10.2489    6.4227   23.0218 N   0  0  0  0  0  0  0  0  0  0  0  0
    7.2472    8.0746   23.5050 C   0  0  0  0  0  0  0  0  0  0  0  0
    9.2051    6.9101   23.4604 C   0  0  0  0  0  0  0  0  0  0  0  0
   11.9646    6.0299   21.4251 C   0  0  0  0  0  0  0  0  0  0  0  0
  1  5  1  0
  1 13  1  0
  2 20  2  0
  2 28  1  0
  2 29  1  0
  3 19  4  0
  3 25  4  0
  4 23  4  0
  4 27  1  0
  4 30  4  0
  5 17  1  0
  6  8  1  0
  6 29  1  0
  7 24  4  0
  7 26  4  0
  8 28  1  0
  9 13  2  0
 10 18  1  0
 10 21  4  0
 10 30  4  0
 11 17  2  0
 12 18  1  0
 13 15  1  0
 14 24  1  0
 15 25  1  0
 16 28  2  0
 17 20  1  0
 19 24  4  0
 20 23  1  0
 21 22  4  0
 22 23  4  0
 25 26  4  0
 27 29  2  0
M  END
$$$$

 Created by Python create_sdf_string function

 30 33  0  0  0  0  0  0  0  0999 V2000
    8.3036    9.8571   18.4133 C   0  0  0  0  0  0  0  0  0  0  0  0
    8.3694    7.6612   22.6703 C   0  0  0  0  0  0  0  0  0  0  0  0
    8.4143    6.6863   16.2273 C   0  0  0  0  0  0  0  0  0  0  0  0
   10.7581    6.5674   21.7636 C   0  0  0  0  0  0  0  0  0  0  0  0
    8.4452    8.7960   19.2958 O   0  0  0  0  0  0  0  0  0  0  0  0
    8.7122    6.7842   24.8569 C   0  0  0  0  0  0  0  0  0  0  0  0
   10.3400    6.1726   14.3081 C   0  0  0  0  0  0  0  0  0  0  0  0
    7.4297    7.5873   24.8962 C   0  0  0  0  0  0  0  0  0  0  0  0
    8.1566   10.0536   16.0516 O   0  0  0  0  0  0  0  0  0  0  0  0
   12.4989    6.2074   20.1776 C   0  0  0  0  0  0  0  0  0  0  0  0
    6.9192    9.1053   20.9073 O   0  0  0  0  0  0  0  0  0  0  0  0
   14.3979    6.0729   18.7784 C   0  0  0  0  0  0  0  0  0  0  0  0
    8.6811    9.5354   16.9998 C   0  0  0  0  0  0  0  0  0  0  0  0
    9.2512    4.2713   13.7653 O   0  0  0  0  0  0  0  0  0  0  0  0
    9.6495    8.6317   16.8332 N   0  0  0  0  0  0  0  0  0  0  0  0
    6.2934    8.6988   23.1988 O   0  0  0  0  0  0  0  0  0  0  0  0
    7.9806    8.6543   20.5437 C   0  0  0  0  0  0  0  0  0  0  0  0
   13.7270    5.7144   19.8610 O   0  0  0  0  0  0  0  0  0  0  0  0
    8.3351    5.5235   15.4478 C   0  0  0  0  0  0  0  0  0  0  0  0
    8.7700    7.8434   21.3915 C   0  0  0  0  0  0  0  0  0  0  0  0
   11.7856    6.8851   19.2401 C   0  0  0  0  0  0  0  0  0  0  0  0
   10.5281    7.4276   19.5649 C   0  0  0  0  0  0  0  0  0  0  0  0
   10.0256    7.2907   20.8484 C   0  0  0  0  0  0  0  0  0  0  0  0
    9.3113    5.3049   14.4911 C   0  0  0  0  0  0  0  0  0  0  0  0
    9.4607    7.5646   16.0139 C   0  0  0  0  0  0  0  0  0  0  0  0
   10.4192    7.3157   15.0955 C   0  0  0  0  0  0  0  0  0  0  0  0
   10.2489    6.4227   23.0218 N   0  0  0  0  0  0  0  0  0  0  0  0
    7.2472    8.0746   23.5050 C   0  0  0  0  0  0  0  0  0  0  0  0
    9.2051    6.9101   23.4604 C   0  0  0  0  0  0  0  0  0  0  0  0
   11.9646    6.0299   21.4251 C   0  0  0  0  0  0  0  0  0  0  0  0
  1  5  1  0
  1 13  1  0
  2 20  2  0
  2 28  1  0
  2 29  1  0
  3 19  4  0
  3 25  4  0
  4 23  4  0
  4 27  1  0
  4 30  4  0
  5 17  1  0
  6  8  1  0
  6 29  1  0
  7 24  4  0
  7 26  4  0
  8 28  1  0
  9 13  2  0
 10 18  1  0
 10 21  4  0
 10 30  4  0
 11 17  2  0
 12 18  1  0
 13 15  1  0
 14 24  1  0
 15 25  1  0
 16 28  2  0
 17 20  1  0
 19 24  4  0
 20 23  1  0
 21 22  4  0
 22 23  4  0
 25 26  4  0
 27 29  2  0
M  END
$$$$

 Created by Python create_sdf_string function

 30 33  0  0  0  0  0  0  0  0999 V2000
    8.3036    9.8571   18.4133 C   0  0  0  0  0  0  0  0  0  0  0  0
    8.3694    7.6612   22.6703 C   0  0  0  0  0  0  0  0  0  0  0  0
    8.4143    6.6863   16.2273 C   0  0  0  0  0  0  0  0  0  0  0  0
   10.7581    6.5674   21.7636 C   0  0  0  0  0  0  0  0  0  0  0  0
    8.4452    8.7960   19.2958 O   0  0  0  0  0  0  0  0  0  0  0  0
    8.7122    6.7842   24.8569 C   0  0  0  0  0  0  0  0  0  0  0  0
   10.3400    6.1726   14.3081 C   0  0  0  0  0  0  0  0  0  0  0  0
    7.4297    7.5873   24.8962 C   0  0  0  0  0  0  0  0  0  0  0  0
    8.1566   10.0536   16.0516 O   0  0  0  0  0  0  0  0  0  0  0  0
   12.4989    6.2074   20.1776 C   0  0  0  0  0  0  0  0  0  0  0  0
    6.9192    9.1053   20.9073 O   0  0  0  0  0  0  0  0  0  0  0  0
   14.3979    6.0729   18.7784 C   0  0  0  0  0  0  0  0  0  0  0  0
    8.6811    9.5354   16.9998 C   0  0  0  0  0  0  0  0  0  0  0  0
    9.2512    4.2713   13.7653 O   0  0  0  0  0  0  0  0  0  0  0  0
    9.6495    8.6317   16.8332 N   0  0  0  0  0  0  0  0  0  0  0  0
    6.2934    8.6988   23.1988 O   0  0  0  0  0  0  0  0  0  0  0  0
    7.9806    8.6543   20.5437 C   0  0  0  0  0  0  0  0  0  0  0  0
   13.7270    5.7144   19.8610 O   0  0  0  0  0  0  0  0  0  0  0  0
    8.3351    5.5235   15.4478 C   0  0  0  0  0  0  0  0  0  0  0  0
    8.7700    7.8434   21.3915 C   0  0  0  0  0  0  0  0  0  0  0  0
   11.7856    6.8851   19.2401 C   0  0  0  0  0  0  0  0  0  0  0  0
   10.5281    7.4276   19.5649 C   0  0  0  0  0  0  0  0  0  0  0  0
   10.0256    7.2907   20.8484 C   0  0  0  0  0  0  0  0  0  0  0  0
    9.3113    5.3049   14.4911 C   0  0  0  0  0  0  0  0  0  0  0  0
    9.4607    7.5646   16.0139 C   0  0  0  0  0  0  0  0  0  0  0  0
   10.4192    7.3157   15.0955 C   0  0  0  0  0  0  0  0  0  0  0  0
   10.2489    6.4227   23.0218 N   0  0  0  0  0  0  0  0  0  0  0  0
    7.2472    8.0746   23.5050 C   0  0  0  0  0  0  0  0  0  0  0  0
    9.2051    6.9101   23.4604 C   0  0  0  0  0  0  0  0  0  0  0  0
   11.9646    6.0299   21.4251 C   0  0  0  0  0  0  0  0  0  0  0  0
  1  5  1  0
  1 13  1  0
  2 20  2  0
  2 28  1  0
  2 29  1  0
  3 19  4  0
  3 25  4  0
  4 23  4  0
  4 27  1  0
  4 30  4  0
  5 17  1  0
  6  8  1  0
  6 29  1  0
  7 24  4  0
  7 26  4  0
  8 28  1  0
  9 13  2  0
 10 18  1  0
 10 21  4  0
 10 30  4  0
 11 17  2  0
 12 18  1  0
 13 15  1  0
 14 24  1  0
 15 25  1  0
 16 28  2  0
 17 20  1  0
 19 24  4  0
 20 23  1  0
 21 22  4  0
 22 23  4  0
 25 26  4  0
 27 29  2  0
M  END
$$$$

 Created by Python create_sdf_string function

 30 33  0  0  0  0  0  0  0  0999 V2000
    8.3036    9.8571   18.4133 C   0  0  0  0  0  0  0  0  0  0  0  0
    8.3694    7.6612   22.6703 C   0  0  0  0  0  0  0  0  0  0  0  0
    8.4143    6.6863   16.2273 C   0  0  0  0  0  0  0  0  0  0  0  0
   10.7581    6.5674   21.7636 C   0  0  0  0  0  0  0  0  0  0  0  0
    8.4452    8.7960   19.2958 O   0  0  0  0  0  0  0  0  0  0  0  0
    8.7122    6.7842   24.8569 C   0  0  0  0  0  0  0  0  0  0  0  0
   10.3400    6.1726   14.3081 C   0  0  0  0  0  0  0  0  0  0  0  0
    7.4297    7.5873   24.8962 C   0  0  0  0  0  0  0  0  0  0  0  0
    8.1566   10.0536   16.0516 O   0  0  0  0  0  0  0  0  0  0  0  0
   12.4989    6.2074   20.1776 C   0  0  0  0  0  0  0  0  0  0  0  0
    6.9192    9.1053   20.9073 O   0  0  0  0  0  0  0  0  0  0  0  0
   14.3979    6.0729   18.7784 C   0  0  0  0  0  0  0  0  0  0  0  0
    8.6811    9.5354   16.9998 C   0  0  0  0  0  0  0  0  0  0  0  0
    9.2512    4.2713   13.7653 O   0  0  0  0  0  0  0  0  0  0  0  0
    9.6495    8.6317   16.8332 N   0  0  0  0  0  0  0  0  0  0  0  0
    6.2934    8.6988   23.1988 O   0  0  0  0  0  0  0  0  0  0  0  0
    7.9806    8.6543   20.5437 C   0  0  0  0  0  0  0  0  0  0  0  0
   13.7270    5.7144   19.8610 O   0  0  0  0  0  0  0  0  0  0  0  0
    8.3351    5.5235   15.4478 C   0  0  0  0  0  0  0  0  0  0  0  0
    8.7700    7.8434   21.3915 C   0  0  0  0  0  0  0  0  0  0  0  0
   11.7856    6.8851   19.2401 C   0  0  0  0  0  0  0  0  0  0  0  0
   10.5281    7.4276   19.5649 C   0  0  0  0  0  0  0  0  0  0  0  0
   10.0256    7.2907   20.8484 C   0  0  0  0  0  0  0  0  0  0  0  0
    9.3113    5.3049   14.4911 C   0  0  0  0  0  0  0  0  0  0  0  0
    9.4607    7.5646   16.0139 C   0  0  0  0  0  0  0  0  0  0  0  0
   10.4192    7.3157   15.0955 C   0  0  0  0  0  0  0  0  0  0  0  0
   10.2489    6.4227   23.0218 N   0  0  0  0  0  0  0  0  0  0  0  0
    7.2472    8.0746   23.5050 C   0  0  0  0  0  0  0  0  0  0  0  0
    9.2051    6.9101   23.4604 C   0  0  0  0  0  0  0  0  0  0  0  0
   11.9646    6.0299   21.4251 C   0  0  0  0  0  0  0  0  0  0  0  0
  1  5  1  0
  1 13  1  0
  2 20  2  0
  2 28  1  0
  2 29  1  0
  3 19  4  0
  3 25  4  0
  4 23  4  0
  4 27  1  0
  4 30  4  0
  5 17  1  0
  6  8  1  0
  6 29  1  0
  7 24  4  0
  7 26  4  0
  8 28  1  0
  9 13  2  0
 10 18  1  0
 10 21  4  0
 10 30  4  0
 11 17  2  0
 12 18  1  0
 13 15  1  0
 14 24  1  0
 15 25  1  0
 16 28  2  0
 17 20  1  0
 19 24  4  0
 20 23  1  0
 21 22  4  0
 22 23  4  0
 25 26  4  0
 27 29  2  0
M  END
$$$$

 Created by Python create_sdf_string function

 30 33  0  0  0  0  0  0  0  0999 V2000
    8.3036    9.8571   18.4133 C   0  0  0  0  0  0  0  0  0  0  0  0
    8.3694    7.6612   22.6703 C   0  0  0  0  0  0  0  0  0  0  0  0
    8.4143    6.6863   16.2273 C   0  0  0  0  0  0  0  0  0  0  0  0
   10.7581    6.5674   21.7636 C   0  0  0  0  0  0  0  0  0  0  0  0
    8.4452    8.7960   19.2958 O   0  0  0  0  0  0  0  0  0  0  0  0
    8.7122    6.7842   24.8569 C   0  0  0  0  0  0  0  0  0  0  0  0
   10.3400    6.1726   14.3081 C   0  0  0  0  0  0  0  0  0  0  0  0
    7.4297    7.5873   24.8962 C   0  0  0  0  0  0  0  0  0  0  0  0
    8.1566   10.0536   16.0516 O   0  0  0  0  0  0  0  0  0  0  0  0
   12.4989    6.2074   20.1776 C   0  0  0  0  0  0  0  0  0  0  0  0
    6.9192    9.1053   20.9073 O   0  0  0  0  0  0  0  0  0  0  0  0
   14.3979    6.0729   18.7784 C   0  0  0  0  0  0  0  0  0  0  0  0
    8.6811    9.5354   16.9998 C   0  0  0  0  0  0  0  0  0  0  0  0
    9.2512    4.2713   13.7653 O   0  0  0  0  0  0  0  0  0  0  0  0
    9.6495    8.6317   16.8332 N   0  0  0  0  0  0  0  0  0  0  0  0
    6.2934    8.6988   23.1988 O   0  0  0  0  0  0  0  0  0  0  0  0
    7.9806    8.6543   20.5437 C   0  0  0  0  0  0  0  0  0  0  0  0
   13.7270    5.7144   19.8610 O   0  0  0  0  0  0  0  0  0  0  0  0
    8.3351    5.5235   15.4478 C   0  0  0  0  0  0  0  0  0  0  0  0
    8.7700    7.8434   21.3915 C   0  0  0  0  0  0  0  0  0  0  0  0
   11.7856    6.8851   19.2401 C   0  0  0  0  0  0  0  0  0  0  0  0
   10.5281    7.4276   19.5649 C   0  0  0  0  0  0  0  0  0  0  0  0
   10.0256    7.2907   20.8484 C   0  0  0  0  0  0  0  0  0  0  0  0
    9.3113    5.3049   14.4911 C   0  0  0  0  0  0  0  0  0  0  0  0
    9.4607    7.5646   16.0139 C   0  0  0  0  0  0  0  0  0  0  0  0
   10.4192    7.3157   15.0955 C   0  0  0  0  0  0  0  0  0  0  0  0
   10.2489    6.4227   23.0218 N   0  0  0  0  0  0  0  0  0  0  0  0
    7.2472    8.0746   23.5050 C   0  0  0  0  0  0  0  0  0  0  0  0
    9.2051    6.9101   23.4604 C   0  0  0  0  0  0  0  0  0  0  0  0
   11.9646    6.0299   21.4251 C   0  0  0  0  0  0  0  0  0  0  0  0
  1  5  1  0
  1 13  1  0
  2 20  2  0
  2 28  1  0
  2 29  1  0
  3 19  4  0
  3 25  4  0
  4 23  4  0
  4 27  1  0
  4 30  4  0
  5 17  1  0
  6  8  1  0
  6 29  1  0
  7 24  4  0
  7 26  4  0
  8 28  1  0
  9 13  2  0
 10 18  1  0
 10 21  4  0
 10 30  4  0
 11 17  2  0
 12 18  1  0
 13 15  1  0
 14 24  1  0
 15 25  1  0
 16 28  2  0
 17 20  1  0
 19 24  4  0
 20 23  1  0
 21 22  4  0
 22 23  4  0
 25 26  4  0
 27 29  2  0
M  END
$$$$

 Created by Python create_sdf_string function

 30 33  0  0  0  0  0  0  0  0999 V2000
    8.3036    9.8571   18.4133 C   0  0  0  0  0  0  0  0  0  0  0  0
    8.3694    7.6612   22.6703 C   0  0  0  0  0  0  0  0  0  0  0  0
    8.4143    6.6863   16.2273 C   0  0  0  0  0  0  0  0  0  0  0  0
   10.7581    6.5674   21.7636 C   0  0  0  0  0  0  0  0  0  0  0  0
    8.4452    8.7960   19.2958 O   0  0  0  0  0  0  0  0  0  0  0  0
    8.7122    6.7842   24.8569 C   0  0  0  0  0  0  0  0  0  0  0  0
   10.3400    6.1726   14.3081 C   0  0  0  0  0  0  0  0  0  0  0  0
    7.4297    7.5873   24.8962 C   0  0  0  0  0  0  0  0  0  0  0  0
    8.1566   10.0536   16.0516 O   0  0  0  0  0  0  0  0  0  0  0  0
   12.4989    6.2074   20.1776 C   0  0  0  0  0  0  0  0  0  0  0  0
    6.9192    9.1053   20.9073 O   0  0  0  0  0  0  0  0  0  0  0  0
   14.3979    6.0729   18.7784 C   0  0  0  0  0  0  0  0  0  0  0  0
    8.6811    9.5354   16.9998 C   0  0  0  0  0  0  0  0  0  0  0  0
    9.2512    4.2713   13.7653 O   0  0  0  0  0  0  0  0  0  0  0  0
    9.6495    8.6317   16.8332 N   0  0  0  0  0  0  0  0  0  0  0  0
    6.2934    8.6988   23.1988 O   0  0  0  0  0  0  0  0  0  0  0  0
    7.9806    8.6543   20.5437 C   0  0  0  0  0  0  0  0  0  0  0  0
   13.7270    5.7144   19.8610 O   0  0  0  0  0  0  0  0  0  0  0  0
    8.3351    5.5235   15.4478 C   0  0  0  0  0  0  0  0  0  0  0  0
    8.7700    7.8434   21.3915 C   0  0  0  0  0  0  0  0  0  0  0  0
   11.7856    6.8851   19.2401 C   0  0  0  0  0  0  0  0  0  0  0  0
   10.5281    7.4276   19.5649 C   0  0  0  0  0  0  0  0  0  0  0  0
   10.0256    7.2907   20.8484 C   0  0  0  0  0  0  0  0  0  0  0  0
    9.3113    5.3049   14.4911 C   0  0  0  0  0  0  0  0  0  0  0  0
    9.4607    7.5646   16.0139 C   0  0  0  0  0  0  0  0  0  0  0  0
   10.4192    7.3157   15.0955 C   0  0  0  0  0  0  0  0  0  0  0  0
   10.2489    6.4227   23.0218 N   0  0  0  0  0  0  0  0  0  0  0  0
    7.2472    8.0746   23.5050 C   0  0  0  0  0  0  0  0  0  0  0  0
    9.2051    6.9101   23.4604 C   0  0  0  0  0  0  0  0  0  0  0  0
   11.9646    6.0299   21.4251 C   0  0  0  0  0  0  0  0  0  0  0  0
  1  5  1  0
  1 13  1  0
  2 20  2  0
  2 28  1  0
  2 29  1  0
  3 19  4  0
  3 25  4  0
  4 23  4  0
  4 27  1  0
  4 30  4  0
  5 17  1  0
  6  8  1  0
  6 29  1  0
  7 24  4  0
  7 26  4  0
  8 28  1  0
  9 13  2  0
 10 18  1  0
 10 21  4  0
 10 30  4  0
 11 17  2  0
 12 18  1  0
 13 15  1  0
 14 24  1  0
 15 25  1  0
 16 28  2  0
 17 20  1  0
 19 24  4  0
 20 23  1  0
 21 22  4  0
 22 23  4  0
 25 26  4  0
 27 29  2  0
M  END
$$$$

 Created by Python create_sdf_string function

 30 33  0  0  0  0  0  0  0  0999 V2000
    8.3036    9.8571   18.4133 C   0  0  0  0  0  0  0  0  0  0  0  0
    8.3694    7.6612   22.6703 C   0  0  0  0  0  0  0  0  0  0  0  0
    8.4143    6.6863   16.2273 C   0  0  0  0  0  0  0  0  0  0  0  0
   10.7581    6.5674   21.7636 C   0  0  0  0  0  0  0  0  0  0  0  0
    8.4452    8.7960   19.2958 O   0  0  0  0  0  0  0  0  0  0  0  0
    8.7122    6.7842   24.8569 C   0  0  0  0  0  0  0  0  0  0  0  0
   10.3400    6.1726   14.3081 C   0  0  0  0  0  0  0  0  0  0  0  0
    7.4297    7.5873   24.8962 C   0  0  0  0  0  0  0  0  0  0  0  0
    8.1566   10.0536   16.0516 O   0  0  0  0  0  0  0  0  0  0  0  0
   12.4989    6.2074   20.1776 C   0  0  0  0  0  0  0  0  0  0  0  0
    6.9192    9.1053   20.9073 O   0  0  0  0  0  0  0  0  0  0  0  0
   14.3979    6.0729   18.7784 C   0  0  0  0  0  0  0  0  0  0  0  0
    8.6811    9.5354   16.9998 C   0  0  0  0  0  0  0  0  0  0  0  0
    9.2512    4.2713   13.7653 O   0  0  0  0  0  0  0  0  0  0  0  0
    9.6495    8.6317   16.8332 N   0  0  0  0  0  0  0  0  0  0  0  0
    6.2934    8.6988   23.1988 O   0  0  0  0  0  0  0  0  0  0  0  0
    7.9806    8.6543   20.5437 C   0  0  0  0  0  0  0  0  0  0  0  0
   13.7270    5.7144   19.8610 O   0  0  0  0  0  0  0  0  0  0  0  0
    8.3351    5.5235   15.4478 C   0  0  0  0  0  0  0  0  0  0  0  0
    8.7700    7.8434   21.3915 C   0  0  0  0  0  0  0  0  0  0  0  0
   11.7856    6.8851   19.2401 C   0  0  0  0  0  0  0  0  0  0  0  0
   10.5281    7.4276   19.5649 C   0  0  0  0  0  0  0  0  0  0  0  0
   10.0256    7.2907   20.8484 C   0  0  0  0  0  0  0  0  0  0  0  0
    9.3113    5.3049   14.4911 C   0  0  0  0  0  0  0  0  0  0  0  0
    9.4607    7.5646   16.0139 C   0  0  0  0  0  0  0  0  0  0  0  0
   10.4192    7.3157   15.0955 C   0  0  0  0  0  0  0  0  0  0  0  0
   10.2489    6.4227   23.0218 N   0  0  0  0  0  0  0  0  0  0  0  0
    7.2472    8.0746   23.5050 C   0  0  0  0  0  0  0  0  0  0  0  0
    9.2051    6.9101   23.4604 C   0  0  0  0  0  0  0  0  0  0  0  0
   11.9646    6.0299   21.4251 C   0  0  0  0  0  0  0  0  0  0  0  0
  1  5  1  0
  1 13  1  0
  2 20  2  0
  2 28  1  0
  2 29  1  0
  3 19  4  0
  3 25  4  0
  4 23  4  0
  4 27  1  0
  4 30  4  0
  5 17  1  0
  6  8  1  0
  6 29  1  0
  7 24  4  0
  7 26  4  0
  8 28  1  0
  9 13  2  0
 10 18  1  0
 10 21  4  0
 10 30  4  0
 11 17  2  0
 12 18  1  0
 13 15  1  0
 14 24  1  0
 15 25  1  0
 16 28  2  0
 17 20  1  0
 19 24  4  0
 20 23  1  0
 21 22  4  0
 22 23  4  0
 25 26  4  0
 27 29  2  0
M  END
$$$$

 Created by Python create_sdf_string function

 30 33  0  0  0  0  0  0  0  0999 V2000
    8.3036    9.8571   18.4133 C   0  0  0  0  0  0  0  0  0  0  0  0
    8.3694    7.6612   22.6703 C   0  0  0  0  0  0  0  0  0  0  0  0
    8.4143    6.6863   16.2273 C   0  0  0  0  0  0  0  0  0  0  0  0
   10.7581    6.5674   21.7636 C   0  0  0  0  0  0  0  0  0  0  0  0
    8.4452    8.7960   19.2958 O   0  0  0  0  0  0  0  0  0  0  0  0
    8.7122    6.7842   24.8569 C   0  0  0  0  0  0  0  0  0  0  0  0
   10.3400    6.1726   14.3081 C   0  0  0  0  0  0  0  0  0  0  0  0
    7.4297    7.5873   24.8962 C   0  0  0  0  0  0  0  0  0  0  0  0
    8.1566   10.0536   16.0516 O   0  0  0  0  0  0  0  0  0  0  0  0
   12.4989    6.2074   20.1776 C   0  0  0  0  0  0  0  0  0  0  0  0
    6.9192    9.1053   20.9073 O   0  0  0  0  0  0  0  0  0  0  0  0
   14.3979    6.0729   18.7784 C   0  0  0  0  0  0  0  0  0  0  0  0
    8.6811    9.5354   16.9998 C   0  0  0  0  0  0  0  0  0  0  0  0
    9.2512    4.2713   13.7653 O   0  0  0  0  0  0  0  0  0  0  0  0
    9.6495    8.6317   16.8332 N   0  0  0  0  0  0  0  0  0  0  0  0
    6.2934    8.6988   23.1988 O   0  0  0  0  0  0  0  0  0  0  0  0
    7.9806    8.6543   20.5437 C   0  0  0  0  0  0  0  0  0  0  0  0
   13.7270    5.7144   19.8610 O   0  0  0  0  0  0  0  0  0  0  0  0
    8.3351    5.5235   15.4478 C   0  0  0  0  0  0  0  0  0  0  0  0
    8.7700    7.8434   21.3915 C   0  0  0  0  0  0  0  0  0  0  0  0
   11.7856    6.8851   19.2401 C   0  0  0  0  0  0  0  0  0  0  0  0
   10.5281    7.4276   19.5649 C   0  0  0  0  0  0  0  0  0  0  0  0
   10.0256    7.2907   20.8484 C   0  0  0  0  0  0  0  0  0  0  0  0
    9.3113    5.3049   14.4911 C   0  0  0  0  0  0  0  0  0  0  0  0
    9.4607    7.5646   16.0139 C   0  0  0  0  0  0  0  0  0  0  0  0
   10.4192    7.3157   15.0955 C   0  0  0  0  0  0  0  0  0  0  0  0
   10.2489    6.4227   23.0218 N   0  0  0  0  0  0  0  0  0  0  0  0
    7.2472    8.0746   23.5050 C   0  0  0  0  0  0  0  0  0  0  0  0
    9.2051    6.9101   23.4604 C   0  0  0  0  0  0  0  0  0  0  0  0
   11.9646    6.0299   21.4251 C   0  0  0  0  0  0  0  0  0  0  0  0
  1  5  1  0
  1 13  1  0
  2 20  2  0
  2 28  1  0
  2 29  1  0
  3 19  4  0
  3 25  4  0
  4 23  4  0
  4 27  1  0
  4 30  4  0
  5 17  1  0
  6  8  1  0
  6 29  1  0
  7 24  4  0
  7 26  4  0
  8 28  1  0
  9 13  2  0
 10 18  1  0
 10 21  4  0
 10 30  4  0
 11 17  2  0
 12 18  1  0
 13 15  1  0
 14 24  1  0
 15 25  1  0
 16 28  2  0
 17 20  1  0
 19 24  4  0
 20 23  1  0
 21 22  4  0
 22 23  4  0
 25 26  4  0
 27 29  2  0
M  END
$$$$

 Created by Python create_sdf_string function

 30 33  0  0  0  0  0  0  0  0999 V2000
    8.3036    9.8571   18.4133 C   0  0  0  0  0  0  0  0  0  0  0  0
    8.3694    7.6612   22.6703 C   0  0  0  0  0  0  0  0  0  0  0  0
    8.4143    6.6863   16.2273 C   0  0  0  0  0  0  0  0  0  0  0  0
   10.7581    6.5674   21.7636 C   0  0  0  0  0  0  0  0  0  0  0  0
    8.4452    8.7960   19.2958 O   0  0  0  0  0  0  0  0  0  0  0  0
    8.7122    6.7842   24.8569 C   0  0  0  0  0  0  0  0  0  0  0  0
   10.3400    6.1726   14.3081 C   0  0  0  0  0  0  0  0  0  0  0  0
    7.4297    7.5873   24.8962 C   0  0  0  0  0  0  0  0  0  0  0  0
    8.1566   10.0536   16.0516 O   0  0  0  0  0  0  0  0  0  0  0  0
   12.4989    6.2074   20.1776 C   0  0  0  0  0  0  0  0  0  0  0  0
    6.9192    9.1053   20.9073 O   0  0  0  0  0  0  0  0  0  0  0  0
   14.3979    6.0729   18.7784 C   0  0  0  0  0  0  0  0  0  0  0  0
    8.6811    9.5354   16.9998 C   0  0  0  0  0  0  0  0  0  0  0  0
    9.2512    4.2713   13.7653 O   0  0  0  0  0  0  0  0  0  0  0  0
    9.6495    8.6317   16.8332 N   0  0  0  0  0  0  0  0  0  0  0  0
    6.2934    8.6988   23.1988 O   0  0  0  0  0  0  0  0  0  0  0  0
    7.9806    8.6543   20.5437 C   0  0  0  0  0  0  0  0  0  0  0  0
   13.7270    5.7144   19.8610 O   0  0  0  0  0  0  0  0  0  0  0  0
    8.3351    5.5235   15.4478 C   0  0  0  0  0  0  0  0  0  0  0  0
    8.7700    7.8434   21.3915 C   0  0  0  0  0  0  0  0  0  0  0  0
   11.7856    6.8851   19.2401 C   0  0  0  0  0  0  0  0  0  0  0  0
   10.5281    7.4276   19.5649 C   0  0  0  0  0  0  0  0  0  0  0  0
   10.0256    7.2907   20.8484 C   0  0  0  0  0  0  0  0  0  0  0  0
    9.3113    5.3049   14.4911 C   0  0  0  0  0  0  0  0  0  0  0  0
    9.4607    7.5646   16.0139 C   0  0  0  0  0  0  0  0  0  0  0  0
   10.4192    7.3157   15.0955 C   0  0  0  0  0  0  0  0  0  0  0  0
   10.2489    6.4227   23.0218 N   0  0  0  0  0  0  0  0  0  0  0  0
    7.2472    8.0746   23.5050 C   0  0  0  0  0  0  0  0  0  0  0  0
    9.2051    6.9101   23.4604 C   0  0  0  0  0  0  0  0  0  0  0  0
   11.9646    6.0299   21.4251 C   0  0  0  0  0  0  0  0  0  0  0  0
  1  5  1  0
  1 13  1  0
  2 20  2  0
  2 28  1  0
  2 29  1  0
  3 19  4  0
  3 25  4  0
  4 23  4  0
  4 27  1  0
  4 30  4  0
  5 17  1  0
  6  8  1  0
  6 29  1  0
  7 24  4  0
  7 26  4  0
  8 28  1  0
  9 13  2  0
 10 18  1  0
 10 21  4  0
 10 30  4  0
 11 17  2  0
 12 18  1  0
 13 15  1  0
 14 24  1  0
 15 25  1  0
 16 28  2  0
 17 20  1  0
 19 24  4  0
 20 23  1  0
 21 22  4  0
 22 23  4  0
 25 26  4  0
 27 29  2  0
M  END
$$$$

 Created by Python create_sdf_string function

 30 33  0  0  0  0  0  0  0  0999 V2000
    8.3036    9.8571   18.4133 C   0  0  0  0  0  0  0  0  0  0  0  0
    8.3694    7.6612   22.6703 C   0  0  0  0  0  0  0  0  0  0  0  0
    8.4143    6.6863   16.2273 C   0  0  0  0  0  0  0  0  0  0  0  0
   10.7581    6.5674   21.7636 C   0  0  0  0  0  0  0  0  0  0  0  0
    8.4452    8.7960   19.2958 O   0  0  0  0  0  0  0  0  0  0  0  0
    8.7122    6.7842   24.8569 C   0  0  0  0  0  0  0  0  0  0  0  0
   10.3400    6.1726   14.3081 C   0  0  0  0  0  0  0  0  0  0  0  0
    7.4297    7.5873   24.8962 C   0  0  0  0  0  0  0  0  0  0  0  0
    8.1566   10.0536   16.0516 O   0  0  0  0  0  0  0  0  0  0  0  0
   12.4989    6.2074   20.1776 C   0  0  0  0  0  0  0  0  0  0  0  0
    6.9192    9.1053   20.9073 O   0  0  0  0  0  0  0  0  0  0  0  0
   14.3979    6.0729   18.7784 C   0  0  0  0  0  0  0  0  0  0  0  0
    8.6811    9.5354   16.9998 C   0  0  0  0  0  0  0  0  0  0  0  0
    9.2512    4.2713   13.7653 O   0  0  0  0  0  0  0  0  0  0  0  0
    9.6495    8.6317   16.8332 N   0  0  0  0  0  0  0  0  0  0  0  0
    6.2934    8.6988   23.1988 O   0  0  0  0  0  0  0  0  0  0  0  0
    7.9806    8.6543   20.5437 C   0  0  0  0  0  0  0  0  0  0  0  0
   13.7270    5.7144   19.8610 O   0  0  0  0  0  0  0  0  0  0  0  0
    8.3351    5.5235   15.4478 C   0  0  0  0  0  0  0  0  0  0  0  0
    8.7700    7.8434   21.3915 C   0  0  0  0  0  0  0  0  0  0  0  0
   11.7856    6.8851   19.2401 C   0  0  0  0  0  0  0  0  0  0  0  0
   10.5281    7.4276   19.5649 C   0  0  0  0  0  0  0  0  0  0  0  0
   10.0256    7.2907   20.8484 C   0  0  0  0  0  0  0  0  0  0  0  0
    9.3113    5.3049   14.4911 C   0  0  0  0  0  0  0  0  0  0  0  0
    9.4607    7.5646   16.0139 C   0  0  0  0  0  0  0  0  0  0  0  0
   10.4192    7.3157   15.0955 C   0  0  0  0  0  0  0  0  0  0  0  0
   10.2489    6.4227   23.0218 N   0  0  0  0  0  0  0  0  0  0  0  0
    7.2472    8.0746   23.5050 C   0  0  0  0  0  0  0  0  0  0  0  0
    9.2051    6.9101   23.4604 C   0  0  0  0  0  0  0  0  0  0  0  0
   11.9646    6.0299   21.4251 C   0  0  0  0  0  0  0  0  0  0  0  0
  1  5  1  0
  1 13  1  0
  2 20  2  0
  2 28  1  0
  2 29  1  0
  3 19  4  0
  3 25  4  0
  4 23  4  0
  4 27  1  0
  4 30  4  0
  5 17  1  0
  6  8  1  0
  6 29  1  0
  7 24  4  0
  7 26  4  0
  8 28  1  0
  9 13  2  0
 10 18  1  0
 10 21  4  0
 10 30  4  0
 11 17  2  0
 12 18  1  0
 13 15  1  0
 14 24  1  0
 15 25  1  0
 16 28  2  0
 17 20  1  0
 19 24  4  0
 20 23  1  0
 21 22  4  0
 22 23  4  0
 25 26  4  0
 27 29  2  0
M  END
$$$$

 Created by Python create_sdf_string function

 30 33  0  0  0  0  0  0  0  0999 V2000
    8.3036    9.8571   18.4133 C   0  0  0  0  0  0  0  0  0  0  0  0
    8.3694    7.6612   22.6703 C   0  0  0  0  0  0  0  0  0  0  0  0
    8.4143    6.6863   16.2273 C   0  0  0  0  0  0  0  0  0  0  0  0
   10.7581    6.5674   21.7636 C   0  0  0  0  0  0  0  0  0  0  0  0
    8.4452    8.7960   19.2958 O   0  0  0  0  0  0  0  0  0  0  0  0
    8.7122    6.7842   24.8569 C   0  0  0  0  0  0  0  0  0  0  0  0
   10.3400    6.1726   14.3081 C   0  0  0  0  0  0  0  0  0  0  0  0
    7.4297    7.5873   24.8962 C   0  0  0  0  0  0  0  0  0  0  0  0
    8.1566   10.0536   16.0516 O   0  0  0  0  0  0  0  0  0  0  0  0
   12.4989    6.2074   20.1776 C   0  0  0  0  0  0  0  0  0  0  0  0
    6.9192    9.1053   20.9073 O   0  0  0  0  0  0  0  0  0  0  0  0
   14.3979    6.0729   18.7784 C   0  0  0  0  0  0  0  0  0  0  0  0
    8.6811    9.5354   16.9998 C   0  0  0  0  0  0  0  0  0  0  0  0
    9.2512    4.2713   13.7653 O   0  0  0  0  0  0  0  0  0  0  0  0
    9.6495    8.6317   16.8332 N   0  0  0  0  0  0  0  0  0  0  0  0
    6.2934    8.6988   23.1988 O   0  0  0  0  0  0  0  0  0  0  0  0
    7.9806    8.6543   20.5437 C   0  0  0  0  0  0  0  0  0  0  0  0
   13.7270    5.7144   19.8610 O   0  0  0  0  0  0  0  0  0  0  0  0
    8.3351    5.5235   15.4478 C   0  0  0  0  0  0  0  0  0  0  0  0
    8.7700    7.8434   21.3915 C   0  0  0  0  0  0  0  0  0  0  0  0
   11.7856    6.8851   19.2401 C   0  0  0  0  0  0  0  0  0  0  0  0
   10.5281    7.4276   19.5649 C   0  0  0  0  0  0  0  0  0  0  0  0
   10.0256    7.2907   20.8484 C   0  0  0  0  0  0  0  0  0  0  0  0
    9.3113    5.3049   14.4911 C   0  0  0  0  0  0  0  0  0  0  0  0
    9.4607    7.5646   16.0139 C   0  0  0  0  0  0  0  0  0  0  0  0
   10.4192    7.3157   15.0955 C   0  0  0  0  0  0  0  0  0  0  0  0
   10.2489    6.4227   23.0218 N   0  0  0  0  0  0  0  0  0  0  0  0
    7.2472    8.0746   23.5050 C   0  0  0  0  0  0  0  0  0  0  0  0
    9.2051    6.9101   23.4604 C   0  0  0  0  0  0  0  0  0  0  0  0
   11.9646    6.0299   21.4251 C   0  0  0  0  0  0  0  0  0  0  0  0
  1  5  1  0
  1 13  1  0
  2 20  2  0
  2 28  1  0
  2 29  1  0
  3 19  4  0
  3 25  4  0
  4 23  4  0
  4 27  1  0
  4 30  4  0
  5 17  1  0
  6  8  1  0
  6 29  1  0
  7 24  4  0
  7 26  4  0
  8 28  1  0
  9 13  2  0
 10 18  1  0
 10 21  4  0
 10 30  4  0
 11 17  2  0
 12 18  1  0
 13 15  1  0
 14 24  1  0
 15 25  1  0
 16 28  2  0
 17 20  1  0
 19 24  4  0
 20 23  1  0
 21 22  4  0
 22 23  4  0
 25 26  4  0
 27 29  2  0
M  END
$$$$

 Created by Python create_sdf_string function

 30 33  0  0  0  0  0  0  0  0999 V2000
    8.3036    9.8571   18.4133 C   0  0  0  0  0  0  0  0  0  0  0  0
    8.3694    7.6612   22.6703 C   0  0  0  0  0  0  0  0  0  0  0  0
    8.4143    6.6863   16.2273 C   0  0  0  0  0  0  0  0  0  0  0  0
   10.7581    6.5674   21.7636 C   0  0  0  0  0  0  0  0  0  0  0  0
    8.4452    8.7960   19.2958 O   0  0  0  0  0  0  0  0  0  0  0  0
    8.7122    6.7842   24.8569 C   0  0  0  0  0  0  0  0  0  0  0  0
   10.3400    6.1726   14.3081 C   0  0  0  0  0  0  0  0  0  0  0  0
    7.4297    7.5873   24.8962 C   0  0  0  0  0  0  0  0  0  0  0  0
    8.1566   10.0536   16.0516 O   0  0  0  0  0  0  0  0  0  0  0  0
   12.4989    6.2074   20.1776 C   0  0  0  0  0  0  0  0  0  0  0  0
    6.9192    9.1053   20.9073 O   0  0  0  0  0  0  0  0  0  0  0  0
   14.3979    6.0729   18.7784 C   0  0  0  0  0  0  0  0  0  0  0  0
    8.6811    9.5354   16.9998 C   0  0  0  0  0  0  0  0  0  0  0  0
    9.2512    4.2713   13.7653 O   0  0  0  0  0  0  0  0  0  0  0  0
    9.6495    8.6317   16.8332 N   0  0  0  0  0  0  0  0  0  0  0  0
    6.2934    8.6988   23.1988 O   0  0  0  0  0  0  0  0  0  0  0  0
    7.9806    8.6543   20.5437 C   0  0  0  0  0  0  0  0  0  0  0  0
   13.7270    5.7144   19.8610 O   0  0  0  0  0  0  0  0  0  0  0  0
    8.3351    5.5235   15.4478 C   0  0  0  0  0  0  0  0  0  0  0  0
    8.7700    7.8434   21.3915 C   0  0  0  0  0  0  0  0  0  0  0  0
   11.7856    6.8851   19.2401 C   0  0  0  0  0  0  0  0  0  0  0  0
   10.5281    7.4276   19.5649 C   0  0  0  0  0  0  0  0  0  0  0  0
   10.0256    7.2907   20.8484 C   0  0  0  0  0  0  0  0  0  0  0  0
    9.3113    5.3049   14.4911 C   0  0  0  0  0  0  0  0  0  0  0  0
    9.4607    7.5646   16.0139 C   0  0  0  0  0  0  0  0  0  0  0  0
   10.4192    7.3157   15.0955 C   0  0  0  0  0  0  0  0  0  0  0  0
   10.2489    6.4227   23.0218 N   0  0  0  0  0  0  0  0  0  0  0  0
    7.2472    8.0746   23.5050 C   0  0  0  0  0  0  0  0  0  0  0  0
    9.2051    6.9101   23.4604 C   0  0  0  0  0  0  0  0  0  0  0  0
   11.9646    6.0299   21.4251 C   0  0  0  0  0  0  0  0  0  0  0  0
  1  5  1  0
  1 13  1  0
  2 20  2  0
  2 28  1  0
  2 29  1  0
  3 19  4  0
  3 25  4  0
  4 23  4  0
  4 27  1  0
  4 30  4  0
  5 17  1  0
  6  8  1  0
  6 29  1  0
  7 24  4  0
  7 26  4  0
  8 28  1  0
  9 13  2  0
 10 18  1  0
 10 21  4  0
 10 30  4  0
 11 17  2  0
 12 18  1  0
 13 15  1  0
 14 24  1  0
 15 25  1  0
 16 28  2  0
 17 20  1  0
 19 24  4  0
 20 23  1  0
 21 22  4  0
 22 23  4  0
 25 26  4  0
 27 29  2  0
M  END
$$$$

 Created by Python create_sdf_string function

 30 33  0  0  0  0  0  0  0  0999 V2000
    8.3036    9.8571   18.4133 C   0  0  0  0  0  0  0  0  0  0  0  0
    8.3694    7.6612   22.6703 C   0  0  0  0  0  0  0  0  0  0  0  0
    8.4143    6.6863   16.2273 C   0  0  0  0  0  0  0  0  0  0  0  0
   10.7581    6.5674   21.7636 C   0  0  0  0  0  0  0  0  0  0  0  0
    8.4452    8.7960   19.2958 O   0  0  0  0  0  0  0  0  0  0  0  0
    8.7122    6.7842   24.8569 C   0  0  0  0  0  0  0  0  0  0  0  0
   10.3400    6.1726   14.3081 C   0  0  0  0  0  0  0  0  0  0  0  0
    7.4297    7.5873   24.8962 C   0  0  0  0  0  0  0  0  0  0  0  0
    8.1566   10.0536   16.0516 O   0  0  0  0  0  0  0  0  0  0  0  0
   12.4989    6.2074   20.1776 C   0  0  0  0  0  0  0  0  0  0  0  0
    6.9192    9.1053   20.9073 O   0  0  0  0  0  0  0  0  0  0  0  0
   14.3979    6.0729   18.7784 C   0  0  0  0  0  0  0  0  0  0  0  0
    8.6811    9.5354   16.9998 C   0  0  0  0  0  0  0  0  0  0  0  0
    9.2512    4.2713   13.7653 O   0  0  0  0  0  0  0  0  0  0  0  0
    9.6495    8.6317   16.8332 N   0  0  0  0  0  0  0  0  0  0  0  0
    6.2934    8.6988   23.1988 O   0  0  0  0  0  0  0  0  0  0  0  0
    7.9806    8.6543   20.5437 C   0  0  0  0  0  0  0  0  0  0  0  0
   13.7270    5.7144   19.8610 O   0  0  0  0  0  0  0  0  0  0  0  0
    8.3351    5.5235   15.4478 C   0  0  0  0  0  0  0  0  0  0  0  0
    8.7700    7.8434   21.3915 C   0  0  0  0  0  0  0  0  0  0  0  0
   11.7856    6.8851   19.2401 C   0  0  0  0  0  0  0  0  0  0  0  0
   10.5281    7.4276   19.5649 C   0  0  0  0  0  0  0  0  0  0  0  0
   10.0256    7.2907   20.8484 C   0  0  0  0  0  0  0  0  0  0  0  0
    9.3113    5.3049   14.4911 C   0  0  0  0  0  0  0  0  0  0  0  0
    9.4607    7.5646   16.0139 C   0  0  0  0  0  0  0  0  0  0  0  0
   10.4192    7.3157   15.0955 C   0  0  0  0  0  0  0  0  0  0  0  0
   10.2489    6.4227   23.0218 N   0  0  0  0  0  0  0  0  0  0  0  0
    7.2472    8.0746   23.5050 C   0  0  0  0  0  0  0  0  0  0  0  0
    9.2051    6.9101   23.4604 C   0  0  0  0  0  0  0  0  0  0  0  0
   11.9646    6.0299   21.4251 C   0  0  0  0  0  0  0  0  0  0  0  0
  1  5  1  0
  1 13  1  0
  2 20  2  0
  2 28  1  0
  2 29  1  0
  3 19  4  0
  3 25  4  0
  4 23  4  0
  4 27  1  0
  4 30  4  0
  5 17  1  0
  6  8  1  0
  6 29  1  0
  7 24  4  0
  7 26  4  0
  8 28  1  0
  9 13  2  0
 10 18  1  0
 10 21  4  0
 10 30  4  0
 11 17  2  0
 12 18  1  0
 13 15  1  0
 14 24  1  0
 15 25  1  0
 16 28  2  0
 17 20  1  0
 19 24  4  0
 20 23  1  0
 21 22  4  0
 22 23  4  0
 25 26  4  0
 27 29  2  0
M  END
$$$$

 Created by Python create_sdf_string function

 30 33  0  0  0  0  0  0  0  0999 V2000
    8.3036    9.8571   18.4133 C   0  0  0  0  0  0  0  0  0  0  0  0
    8.3694    7.6612   22.6703 C   0  0  0  0  0  0  0  0  0  0  0  0
    8.4143    6.6863   16.2273 C   0  0  0  0  0  0  0  0  0  0  0  0
   10.7581    6.5674   21.7636 C   0  0  0  0  0  0  0  0  0  0  0  0
    8.4452    8.7960   19.2958 O   0  0  0  0  0  0  0  0  0  0  0  0
    8.7122    6.7842   24.8569 C   0  0  0  0  0  0  0  0  0  0  0  0
   10.3400    6.1726   14.3081 C   0  0  0  0  0  0  0  0  0  0  0  0
    7.4297    7.5873   24.8962 C   0  0  0  0  0  0  0  0  0  0  0  0
    8.1566   10.0536   16.0516 O   0  0  0  0  0  0  0  0  0  0  0  0
   12.4989    6.2074   20.1776 C   0  0  0  0  0  0  0  0  0  0  0  0
    6.9192    9.1053   20.9073 O   0  0  0  0  0  0  0  0  0  0  0  0
   14.3979    6.0729   18.7784 C   0  0  0  0  0  0  0  0  0  0  0  0
    8.6811    9.5354   16.9998 C   0  0  0  0  0  0  0  0  0  0  0  0
    9.2512    4.2713   13.7653 O   0  0  0  0  0  0  0  0  0  0  0  0
    9.6495    8.6317   16.8332 N   0  0  0  0  0  0  0  0  0  0  0  0
    6.2934    8.6988   23.1988 O   0  0  0  0  0  0  0  0  0  0  0  0
    7.9806    8.6543   20.5437 C   0  0  0  0  0  0  0  0  0  0  0  0
   13.7270    5.7144   19.8610 O   0  0  0  0  0  0  0  0  0  0  0  0
    8.3351    5.5235   15.4478 C   0  0  0  0  0  0  0  0  0  0  0  0
    8.7700    7.8434   21.3915 C   0  0  0  0  0  0  0  0  0  0  0  0
   11.7856    6.8851   19.2401 C   0  0  0  0  0  0  0  0  0  0  0  0
   10.5281    7.4276   19.5649 C   0  0  0  0  0  0  0  0  0  0  0  0
   10.0256    7.2907   20.8484 C   0  0  0  0  0  0  0  0  0  0  0  0
    9.3113    5.3049   14.4911 C   0  0  0  0  0  0  0  0  0  0  0  0
    9.4607    7.5646   16.0139 C   0  0  0  0  0  0  0  0  0  0  0  0
   10.4192    7.3157   15.0955 C   0  0  0  0  0  0  0  0  0  0  0  0
   10.2489    6.4227   23.0218 N   0  0  0  0  0  0  0  0  0  0  0  0
    7.2472    8.0746   23.5050 C   0  0  0  0  0  0  0  0  0  0  0  0
    9.2051    6.9101   23.4604 C   0  0  0  0  0  0  0  0  0  0  0  0
   11.9646    6.0299   21.4251 C   0  0  0  0  0  0  0  0  0  0  0  0
  1  5  1  0
  1 13  1  0
  2 20  2  0
  2 28  1  0
  2 29  1  0
  3 19  4  0
  3 25  4  0
  4 23  4  0
  4 27  1  0
  4 30  4  0
  5 17  1  0
  6  8  1  0
  6 29  1  0
  7 24  4  0
  7 26  4  0
  8 28  1  0
  9 13  2  0
 10 18  1  0
 10 21  4  0
 10 30  4  0
 11 17  2  0
 12 18  1  0
 13 15  1  0
 14 24  1  0
 15 25  1  0
 16 28  2  0
 17 20  1  0
 19 24  4  0
 20 23  1  0
 21 22  4  0
 22 23  4  0
 25 26  4  0
 27 29  2  0
M  END
$$$$

 Created by Python create_sdf_string function

 30 33  0  0  0  0  0  0  0  0999 V2000
    8.3036    9.8571   18.4133 C   0  0  0  0  0  0  0  0  0  0  0  0
    8.3694    7.6612   22.6703 C   0  0  0  0  0  0  0  0  0  0  0  0
    8.4143    6.6863   16.2273 C   0  0  0  0  0  0  0  0  0  0  0  0
   10.7581    6.5674   21.7636 C   0  0  0  0  0  0  0  0  0  0  0  0
    8.4452    8.7960   19.2958 O   0  0  0  0  0  0  0  0  0  0  0  0
    8.7122    6.7842   24.8569 C   0  0  0  0  0  0  0  0  0  0  0  0
   10.3400    6.1726   14.3081 C   0  0  0  0  0  0  0  0  0  0  0  0
    7.4297    7.5873   24.8962 C   0  0  0  0  0  0  0  0  0  0  0  0
    8.1566   10.0536   16.0516 O   0  0  0  0  0  0  0  0  0  0  0  0
   12.4989    6.2074   20.1776 C   0  0  0  0  0  0  0  0  0  0  0  0
    6.9192    9.1053   20.9073 O   0  0  0  0  0  0  0  0  0  0  0  0
   14.3979    6.0729   18.7784 C   0  0  0  0  0  0  0  0  0  0  0  0
    8.6811    9.5354   16.9998 C   0  0  0  0  0  0  0  0  0  0  0  0
    9.2512    4.2713   13.7653 O   0  0  0  0  0  0  0  0  0  0  0  0
    9.6495    8.6317   16.8332 N   0  0  0  0  0  0  0  0  0  0  0  0
    6.2934    8.6988   23.1988 O   0  0  0  0  0  0  0  0  0  0  0  0
    7.9806    8.6543   20.5437 C   0  0  0  0  0  0  0  0  0  0  0  0
   13.7270    5.7144   19.8610 O   0  0  0  0  0  0  0  0  0  0  0  0
    8.3351    5.5235   15.4478 C   0  0  0  0  0  0  0  0  0  0  0  0
    8.7700    7.8434   21.3915 C   0  0  0  0  0  0  0  0  0  0  0  0
   11.7856    6.8851   19.2401 C   0  0  0  0  0  0  0  0  0  0  0  0
   10.5281    7.4276   19.5649 C   0  0  0  0  0  0  0  0  0  0  0  0
   10.0256    7.2907   20.8484 C   0  0  0  0  0  0  0  0  0  0  0  0
    9.3113    5.3049   14.4911 C   0  0  0  0  0  0  0  0  0  0  0  0
    9.4607    7.5646   16.0139 C   0  0  0  0  0  0  0  0  0  0  0  0
   10.4192    7.3157   15.0955 C   0  0  0  0  0  0  0  0  0  0  0  0
   10.2489    6.4227   23.0218 N   0  0  0  0  0  0  0  0  0  0  0  0
    7.2472    8.0746   23.5050 C   0  0  0  0  0  0  0  0  0  0  0  0
    9.2051    6.9101   23.4604 C   0  0  0  0  0  0  0  0  0  0  0  0
   11.9646    6.0299   21.4251 C   0  0  0  0  0  0  0  0  0  0  0  0
  1  5  1  0
  1 13  1  0
  2 20  2  0
  2 28  1  0
  2 29  1  0
  3 19  4  0
  3 25  4  0
  4 23  4  0
  4 27  1  0
  4 30  4  0
  5 17  1  0
  6  8  1  0
  6 29  1  0
  7 24  4  0
  7 26  4  0
  8 28  1  0
  9 13  2  0
 10 18  1  0
 10 21  4  0
 10 30  4  0
 11 17  2  0
 12 18  1  0
 13 15  1  0
 14 24  1  0
 15 25  1  0
 16 28  2  0
 17 20  1  0
 19 24  4  0
 20 23  1  0
 21 22  4  0
 22 23  4  0
 25 26  4  0
 27 29  2  0
M  END
$$$$

 Created by Python create_sdf_string function

 30 33  0  0  0  0  0  0  0  0999 V2000
    8.3036    9.8571   18.4133 C   0  0  0  0  0  0  0  0  0  0  0  0
    8.3694    7.6612   22.6703 C   0  0  0  0  0  0  0  0  0  0  0  0
    8.4143    6.6863   16.2273 C   0  0  0  0  0  0  0  0  0  0  0  0
   10.7581    6.5674   21.7636 C   0  0  0  0  0  0  0  0  0  0  0  0
    8.4452    8.7960   19.2958 O   0  0  0  0  0  0  0  0  0  0  0  0
    8.7122    6.7842   24.8569 C   0  0  0  0  0  0  0  0  0  0  0  0
   10.3400    6.1726   14.3081 C   0  0  0  0  0  0  0  0  0  0  0  0
    7.4297    7.5873   24.8962 C   0  0  0  0  0  0  0  0  0  0  0  0
    8.1566   10.0536   16.0516 O   0  0  0  0  0  0  0  0  0  0  0  0
   12.4989    6.2074   20.1776 C   0  0  0  0  0  0  0  0  0  0  0  0
    6.9192    9.1053   20.9073 O   0  0  0  0  0  0  0  0  0  0  0  0
   14.3979    6.0729   18.7784 C   0  0  0  0  0  0  0  0  0  0  0  0
    8.6811    9.5354   16.9998 C   0  0  0  0  0  0  0  0  0  0  0  0
    9.2512    4.2713   13.7653 O   0  0  0  0  0  0  0  0  0  0  0  0
    9.6495    8.6317   16.8332 N   0  0  0  0  0  0  0  0  0  0  0  0
    6.2934    8.6988   23.1988 O   0  0  0  0  0  0  0  0  0  0  0  0
    7.9806    8.6543   20.5437 C   0  0  0  0  0  0  0  0  0  0  0  0
   13.7270    5.7144   19.8610 O   0  0  0  0  0  0  0  0  0  0  0  0
    8.3351    5.5235   15.4478 C   0  0  0  0  0  0  0  0  0  0  0  0
    8.7700    7.8434   21.3915 C   0  0  0  0  0  0  0  0  0  0  0  0
   11.7856    6.8851   19.2401 C   0  0  0  0  0  0  0  0  0  0  0  0
   10.5281    7.4276   19.5649 C   0  0  0  0  0  0  0  0  0  0  0  0
   10.0256    7.2907   20.8484 C   0  0  0  0  0  0  0  0  0  0  0  0
    9.3113    5.3049   14.4911 C   0  0  0  0  0  0  0  0  0  0  0  0
    9.4607    7.5646   16.0139 C   0  0  0  0  0  0  0  0  0  0  0  0
   10.4192    7.3157   15.0955 C   0  0  0  0  0  0  0  0  0  0  0  0
   10.2489    6.4227   23.0218 N   0  0  0  0  0  0  0  0  0  0  0  0
    7.2472    8.0746   23.5050 C   0  0  0  0  0  0  0  0  0  0  0  0
    9.2051    6.9101   23.4604 C   0  0  0  0  0  0  0  0  0  0  0  0
   11.9646    6.0299   21.4251 C   0  0  0  0  0  0  0  0  0  0  0  0
  1  5  1  0
  1 13  1  0
  2 20  2  0
  2 28  1  0
  2 29  1  0
  3 19  4  0
  3 25  4  0
  4 23  4  0
  4 27  1  0
  4 30  4  0
  5 17  1  0
  6  8  1  0
  6 29  1  0
  7 24  4  0
  7 26  4  0
  8 28  1  0
  9 13  2  0
 10 18  1  0
 10 21  4  0
 10 30  4  0
 11 17  2  0
 12 18  1  0
 13 15  1  0
 14 24  1  0
 15 25  1  0
 16 28  2  0
 17 20  1  0
 19 24  4  0
 20 23  1  0
 21 22  4  0
 22 23  4  0
 25 26  4  0
 27 29  2  0
M  END
$$$$

 Created by Python create_sdf_string function

 30 33  0  0  0  0  0  0  0  0999 V2000
    8.3036    9.8571   18.4133 C   0  0  0  0  0  0  0  0  0  0  0  0
    8.3694    7.6612   22.6703 C   0  0  0  0  0  0  0  0  0  0  0  0
    8.4143    6.6863   16.2273 C   0  0  0  0  0  0  0  0  0  0  0  0
   10.7581    6.5674   21.7636 C   0  0  0  0  0  0  0  0  0  0  0  0
    8.4452    8.7960   19.2958 O   0  0  0  0  0  0  0  0  0  0  0  0
    8.7122    6.7842   24.8569 C   0  0  0  0  0  0  0  0  0  0  0  0
   10.3400    6.1726   14.3081 C   0  0  0  0  0  0  0  0  0  0  0  0
    7.4297    7.5873   24.8962 C   0  0  0  0  0  0  0  0  0  0  0  0
    8.1566   10.0536   16.0516 O   0  0  0  0  0  0  0  0  0  0  0  0
   12.4989    6.2074   20.1776 C   0  0  0  0  0  0  0  0  0  0  0  0
    6.9192    9.1053   20.9073 O   0  0  0  0  0  0  0  0  0  0  0  0
   14.3979    6.0729   18.7784 C   0  0  0  0  0  0  0  0  0  0  0  0
    8.6811    9.5354   16.9998 C   0  0  0  0  0  0  0  0  0  0  0  0
    9.2512    4.2713   13.7653 O   0  0  0  0  0  0  0  0  0  0  0  0
    9.6495    8.6317   16.8332 N   0  0  0  0  0  0  0  0  0  0  0  0
    6.2934    8.6988   23.1988 O   0  0  0  0  0  0  0  0  0  0  0  0
    7.9806    8.6543   20.5437 C   0  0  0  0  0  0  0  0  0  0  0  0
   13.7270    5.7144   19.8610 O   0  0  0  0  0  0  0  0  0  0  0  0
    8.3351    5.5235   15.4478 C   0  0  0  0  0  0  0  0  0  0  0  0
    8.7700    7.8434   21.3915 C   0  0  0  0  0  0  0  0  0  0  0  0
   11.7856    6.8851   19.2401 C   0  0  0  0  0  0  0  0  0  0  0  0
   10.5281    7.4276   19.5649 C   0  0  0  0  0  0  0  0  0  0  0  0
   10.0256    7.2907   20.8484 C   0  0  0  0  0  0  0  0  0  0  0  0
    9.3113    5.3049   14.4911 C   0  0  0  0  0  0  0  0  0  0  0  0
    9.4607    7.5646   16.0139 C   0  0  0  0  0  0  0  0  0  0  0  0
   10.4192    7.3157   15.0955 C   0  0  0  0  0  0  0  0  0  0  0  0
   10.2489    6.4227   23.0218 N   0  0  0  0  0  0  0  0  0  0  0  0
    7.2472    8.0746   23.5050 C   0  0  0  0  0  0  0  0  0  0  0  0
    9.2051    6.9101   23.4604 C   0  0  0  0  0  0  0  0  0  0  0  0
   11.9646    6.0299   21.4251 C   0  0  0  0  0  0  0  0  0  0  0  0
  1  5  1  0
  1 13  1  0
  2 20  2  0
  2 28  1  0
  2 29  1  0
  3 19  4  0
  3 25  4  0
  4 23  4  0
  4 27  1  0
  4 30  4  0
  5 17  1  0
  6  8  1  0
  6 29  1  0
  7 24  4  0
  7 26  4  0
  8 28  1  0
  9 13  2  0
 10 18  1  0
 10 21  4  0
 10 30  4  0
 11 17  2  0
 12 18  1  0
 13 15  1  0
 14 24  1  0
 15 25  1  0
 16 28  2  0
 17 20  1  0
 19 24  4  0
 20 23  1  0
 21 22  4  0
 22 23  4  0
 25 26  4  0
 27 29  2  0
M  END
$$$$

 Created by Python create_sdf_string function

 30 33  0  0  0  0  0  0  0  0999 V2000
    8.3036    9.8571   18.4133 C   0  0  0  0  0  0  0  0  0  0  0  0
    8.3694    7.6612   22.6703 C   0  0  0  0  0  0  0  0  0  0  0  0
    8.4143    6.6863   16.2273 C   0  0  0  0  0  0  0  0  0  0  0  0
   10.7581    6.5674   21.7636 C   0  0  0  0  0  0  0  0  0  0  0  0
    8.4452    8.7960   19.2958 O   0  0  0  0  0  0  0  0  0  0  0  0
    8.7122    6.7842   24.8569 C   0  0  0  0  0  0  0  0  0  0  0  0
   10.3400    6.1726   14.3081 C   0  0  0  0  0  0  0  0  0  0  0  0
    7.4297    7.5873   24.8962 C   0  0  0  0  0  0  0  0  0  0  0  0
    8.1566   10.0536   16.0516 O   0  0  0  0  0  0  0  0  0  0  0  0
   12.4989    6.2074   20.1776 C   0  0  0  0  0  0  0  0  0  0  0  0
    6.9192    9.1053   20.9073 O   0  0  0  0  0  0  0  0  0  0  0  0
   14.3979    6.0729   18.7784 C   0  0  0  0  0  0  0  0  0  0  0  0
    8.6811    9.5354   16.9998 C   0  0  0  0  0  0  0  0  0  0  0  0
    9.2512    4.2713   13.7653 O   0  0  0  0  0  0  0  0  0  0  0  0
    9.6495    8.6317   16.8332 N   0  0  0  0  0  0  0  0  0  0  0  0
    6.2934    8.6988   23.1988 O   0  0  0  0  0  0  0  0  0  0  0  0
    7.9806    8.6543   20.5437 C   0  0  0  0  0  0  0  0  0  0  0  0
   13.7270    5.7144   19.8610 O   0  0  0  0  0  0  0  0  0  0  0  0
    8.3351    5.5235   15.4478 C   0  0  0  0  0  0  0  0  0  0  0  0
    8.7700    7.8434   21.3915 C   0  0  0  0  0  0  0  0  0  0  0  0
   11.7856    6.8851   19.2401 C   0  0  0  0  0  0  0  0  0  0  0  0
   10.5281    7.4276   19.5649 C   0  0  0  0  0  0  0  0  0  0  0  0
   10.0256    7.2907   20.8484 C   0  0  0  0  0  0  0  0  0  0  0  0
    9.3113    5.3049   14.4911 C   0  0  0  0  0  0  0  0  0  0  0  0
    9.4607    7.5646   16.0139 C   0  0  0  0  0  0  0  0  0  0  0  0
   10.4192    7.3157   15.0955 C   0  0  0  0  0  0  0  0  0  0  0  0
   10.2489    6.4227   23.0218 N   0  0  0  0  0  0  0  0  0  0  0  0
    7.2472    8.0746   23.5050 C   0  0  0  0  0  0  0  0  0  0  0  0
    9.2051    6.9101   23.4604 C   0  0  0  0  0  0  0  0  0  0  0  0
   11.9646    6.0299   21.4251 C   0  0  0  0  0  0  0  0  0  0  0  0
  1  5  1  0
  1 13  1  0
  2 20  2  0
  2 28  1  0
  2 29  1  0
  3 19  4  0
  3 25  4  0
  4 23  4  0
  4 27  1  0
  4 30  4  0
  5 17  1  0
  6  8  1  0
  6 29  1  0
  7 24  4  0
  7 26  4  0
  8 28  1  0
  9 13  2  0
 10 18  1  0
 10 21  4  0
 10 30  4  0
 11 17  2  0
 12 18  1  0
 13 15  1  0
 14 24  1  0
 15 25  1  0
 16 28  2  0
 17 20  1  0
 19 24  4  0
 20 23  1  0
 21 22  4  0
 22 23  4  0
 25 26  4  0
 27 29  2  0
M  END
$$$$

 Created by Python create_sdf_string function

 30 33  0  0  0  0  0  0  0  0999 V2000
    8.3036    9.8571   18.4133 C   0  0  0  0  0  0  0  0  0  0  0  0
    8.3694    7.6612   22.6703 C   0  0  0  0  0  0  0  0  0  0  0  0
    8.4143    6.6863   16.2273 C   0  0  0  0  0  0  0  0  0  0  0  0
   10.7581    6.5674   21.7636 C   0  0  0  0  0  0  0  0  0  0  0  0
    8.4452    8.7960   19.2958 O   0  0  0  0  0  0  0  0  0  0  0  0
    8.7122    6.7842   24.8569 C   0  0  0  0  0  0  0  0  0  0  0  0
   10.3400    6.1726   14.3081 C   0  0  0  0  0  0  0  0  0  0  0  0
    7.4297    7.5873   24.8962 C   0  0  0  0  0  0  0  0  0  0  0  0
    8.1566   10.0536   16.0516 O   0  0  0  0  0  0  0  0  0  0  0  0
   12.4989    6.2074   20.1776 C   0  0  0  0  0  0  0  0  0  0  0  0
    6.9192    9.1053   20.9073 O   0  0  0  0  0  0  0  0  0  0  0  0
   14.3979    6.0729   18.7784 C   0  0  0  0  0  0  0  0  0  0  0  0
    8.6811    9.5354   16.9998 C   0  0  0  0  0  0  0  0  0  0  0  0
    9.2512    4.2713   13.7653 O   0  0  0  0  0  0  0  0  0  0  0  0
    9.6495    8.6317   16.8332 N   0  0  0  0  0  0  0  0  0  0  0  0
    6.2934    8.6988   23.1988 O   0  0  0  0  0  0  0  0  0  0  0  0
    7.9806    8.6543   20.5437 C   0  0  0  0  0  0  0  0  0  0  0  0
   13.7270    5.7144   19.8610 O   0  0  0  0  0  0  0  0  0  0  0  0
    8.3351    5.5235   15.4478 C   0  0  0  0  0  0  0  0  0  0  0  0
    8.7700    7.8434   21.3915 C   0  0  0  0  0  0  0  0  0  0  0  0
   11.7856    6.8851   19.2401 C   0  0  0  0  0  0  0  0  0  0  0  0
   10.5281    7.4276   19.5649 C   0  0  0  0  0  0  0  0  0  0  0  0
   10.0256    7.2907   20.8484 C   0  0  0  0  0  0  0  0  0  0  0  0
    9.3113    5.3049   14.4911 C   0  0  0  0  0  0  0  0  0  0  0  0
    9.4607    7.5646   16.0139 C   0  0  0  0  0  0  0  0  0  0  0  0
   10.4192    7.3157   15.0955 C   0  0  0  0  0  0  0  0  0  0  0  0
   10.2489    6.4227   23.0218 N   0  0  0  0  0  0  0  0  0  0  0  0
    7.2472    8.0746   23.5050 C   0  0  0  0  0  0  0  0  0  0  0  0
    9.2051    6.9101   23.4604 C   0  0  0  0  0  0  0  0  0  0  0  0
   11.9646    6.0299   21.4251 C   0  0  0  0  0  0  0  0  0  0  0  0
  1  5  1  0
  1 13  1  0
  2 20  2  0
  2 28  1  0
  2 29  1  0
  3 19  4  0
  3 25  4  0
  4 23  4  0
  4 27  1  0
  4 30  4  0
  5 17  1  0
  6  8  1  0
  6 29  1  0
  7 24  4  0
  7 26  4  0
  8 28  1  0
  9 13  2  0
 10 18  1  0
 10 21  4  0
 10 30  4  0
 11 17  2  0
 12 18  1  0
 13 15  1  0
 14 24  1  0
 15 25  1  0
 16 28  2  0
 17 20  1  0
 19 24  4  0
 20 23  1  0
 21 22  4  0
 22 23  4  0
 25 26  4  0
 27 29  2  0
M  END
$$$$

 Created by Python create_sdf_string function

 30 33  0  0  0  0  0  0  0  0999 V2000
    8.3036    9.8571   18.4133 C   0  0  0  0  0  0  0  0  0  0  0  0
    8.3694    7.6612   22.6703 C   0  0  0  0  0  0  0  0  0  0  0  0
    8.4143    6.6863   16.2273 C   0  0  0  0  0  0  0  0  0  0  0  0
   10.7581    6.5674   21.7636 C   0  0  0  0  0  0  0  0  0  0  0  0
    8.4452    8.7960   19.2958 O   0  0  0  0  0  0  0  0  0  0  0  0
    8.7122    6.7842   24.8569 C   0  0  0  0  0  0  0  0  0  0  0  0
   10.3400    6.1726   14.3081 C   0  0  0  0  0  0  0  0  0  0  0  0
    7.4297    7.5873   24.8962 C   0  0  0  0  0  0  0  0  0  0  0  0
    8.1566   10.0536   16.0516 O   0  0  0  0  0  0  0  0  0  0  0  0
   12.4989    6.2074   20.1776 C   0  0  0  0  0  0  0  0  0  0  0  0
    6.9192    9.1053   20.9073 O   0  0  0  0  0  0  0  0  0  0  0  0
   14.3979    6.0729   18.7784 C   0  0  0  0  0  0  0  0  0  0  0  0
    8.6811    9.5354   16.9998 C   0  0  0  0  0  0  0  0  0  0  0  0
    9.2512    4.2713   13.7653 O   0  0  0  0  0  0  0  0  0  0  0  0
    9.6495    8.6317   16.8332 N   0  0  0  0  0  0  0  0  0  0  0  0
    6.2934    8.6988   23.1988 O   0  0  0  0  0  0  0  0  0  0  0  0
    7.9806    8.6543   20.5437 C   0  0  0  0  0  0  0  0  0  0  0  0
   13.7270    5.7144   19.8610 O   0  0  0  0  0  0  0  0  0  0  0  0
    8.3351    5.5235   15.4478 C   0  0  0  0  0  0  0  0  0  0  0  0
    8.7700    7.8434   21.3915 C   0  0  0  0  0  0  0  0  0  0  0  0
   11.7856    6.8851   19.2401 C   0  0  0  0  0  0  0  0  0  0  0  0
   10.5281    7.4276   19.5649 C   0  0  0  0  0  0  0  0  0  0  0  0
   10.0256    7.2907   20.8484 C   0  0  0  0  0  0  0  0  0  0  0  0
    9.3113    5.3049   14.4911 C   0  0  0  0  0  0  0  0  0  0  0  0
    9.4607    7.5646   16.0139 C   0  0  0  0  0  0  0  0  0  0  0  0
   10.4192    7.3157   15.0955 C   0  0  0  0  0  0  0  0  0  0  0  0
   10.2489    6.4227   23.0218 N   0  0  0  0  0  0  0  0  0  0  0  0
    7.2472    8.0746   23.5050 C   0  0  0  0  0  0  0  0  0  0  0  0
    9.2051    6.9101   23.4604 C   0  0  0  0  0  0  0  0  0  0  0  0
   11.9646    6.0299   21.4251 C   0  0  0  0  0  0  0  0  0  0  0  0
  1  5  1  0
  1 13  1  0
  2 20  2  0
  2 28  1  0
  2 29  1  0
  3 19  4  0
  3 25  4  0
  4 23  4  0
  4 27  1  0
  4 30  4  0
  5 17  1  0
  6  8  1  0
  6 29  1  0
  7 24  4  0
  7 26  4  0
  8 28  1  0
  9 13  2  0
 10 18  1  0
 10 21  4  0
 10 30  4  0
 11 17  2  0
 12 18  1  0
 13 15  1  0
 14 24  1  0
 15 25  1  0
 16 28  2  0
 17 20  1  0
 19 24  4  0
 20 23  1  0
 21 22  4  0
 22 23  4  0
 25 26  4  0
 27 29  2  0
M  END
$$$$

 Created by Python create_sdf_string function

 30 33  0  0  0  0  0  0  0  0999 V2000
    8.3036    9.8571   18.4133 C   0  0  0  0  0  0  0  0  0  0  0  0
    8.3694    7.6612   22.6703 C   0  0  0  0  0  0  0  0  0  0  0  0
    8.4143    6.6863   16.2273 C   0  0  0  0  0  0  0  0  0  0  0  0
   10.7581    6.5674   21.7636 C   0  0  0  0  0  0  0  0  0  0  0  0
    8.4452    8.7960   19.2958 O   0  0  0  0  0  0  0  0  0  0  0  0
    8.7122    6.7842   24.8569 C   0  0  0  0  0  0  0  0  0  0  0  0
   10.3400    6.1726   14.3081 C   0  0  0  0  0  0  0  0  0  0  0  0
    7.4297    7.5873   24.8962 C   0  0  0  0  0  0  0  0  0  0  0  0
    8.1566   10.0536   16.0516 O   0  0  0  0  0  0  0  0  0  0  0  0
   12.4989    6.2074   20.1776 C   0  0  0  0  0  0  0  0  0  0  0  0
    6.9192    9.1053   20.9073 O   0  0  0  0  0  0  0  0  0  0  0  0
   14.3979    6.0729   18.7784 C   0  0  0  0  0  0  0  0  0  0  0  0
    8.6811    9.5354   16.9998 C   0  0  0  0  0  0  0  0  0  0  0  0
    9.2512    4.2713   13.7653 O   0  0  0  0  0  0  0  0  0  0  0  0
    9.6495    8.6317   16.8332 N   0  0  0  0  0  0  0  0  0  0  0  0
    6.2934    8.6988   23.1988 O   0  0  0  0  0  0  0  0  0  0  0  0
    7.9806    8.6543   20.5437 C   0  0  0  0  0  0  0  0  0  0  0  0
   13.7270    5.7144   19.8610 O   0  0  0  0  0  0  0  0  0  0  0  0
    8.3351    5.5235   15.4478 C   0  0  0  0  0  0  0  0  0  0  0  0
    8.7700    7.8434   21.3915 C   0  0  0  0  0  0  0  0  0  0  0  0
   11.7856    6.8851   19.2401 C   0  0  0  0  0  0  0  0  0  0  0  0
   10.5281    7.4276   19.5649 C   0  0  0  0  0  0  0  0  0  0  0  0
   10.0256    7.2907   20.8484 C   0  0  0  0  0  0  0  0  0  0  0  0
    9.3113    5.3049   14.4911 C   0  0  0  0  0  0  0  0  0  0  0  0
    9.4607    7.5646   16.0139 C   0  0  0  0  0  0  0  0  0  0  0  0
   10.4192    7.3157   15.0955 C   0  0  0  0  0  0  0  0  0  0  0  0
   10.2489    6.4227   23.0218 N   0  0  0  0  0  0  0  0  0  0  0  0
    7.2472    8.0746   23.5050 C   0  0  0  0  0  0  0  0  0  0  0  0
    9.2051    6.9101   23.4604 C   0  0  0  0  0  0  0  0  0  0  0  0
   11.9646    6.0299   21.4251 C   0  0  0  0  0  0  0  0  0  0  0  0
  1  5  1  0
  1 13  1  0
  2 20  2  0
  2 28  1  0
  2 29  1  0
  3 19  4  0
  3 25  4  0
  4 23  4  0
  4 27  1  0
  4 30  4  0
  5 17  1  0
  6  8  1  0
  6 29  1  0
  7 24  4  0
  7 26  4  0
  8 28  1  0
  9 13  2  0
 10 18  1  0
 10 21  4  0
 10 30  4  0
 11 17  2  0
 12 18  1  0
 13 15  1  0
 14 24  1  0
 15 25  1  0
 16 28  2  0
 17 20  1  0
 19 24  4  0
 20 23  1  0
 21 22  4  0
 22 23  4  0
 25 26  4  0
 27 29  2  0
M  END
$$$$

 Created by Python create_sdf_string function

 30 33  0  0  0  0  0  0  0  0999 V2000
    8.3036    9.8571   18.4133 C   0  0  0  0  0  0  0  0  0  0  0  0
    8.3694    7.6612   22.6703 C   0  0  0  0  0  0  0  0  0  0  0  0
    8.4143    6.6863   16.2273 C   0  0  0  0  0  0  0  0  0  0  0  0
   10.7581    6.5674   21.7636 C   0  0  0  0  0  0  0  0  0  0  0  0
    8.4452    8.7960   19.2958 O   0  0  0  0  0  0  0  0  0  0  0  0
    8.7122    6.7842   24.8569 C   0  0  0  0  0  0  0  0  0  0  0  0
   10.3400    6.1726   14.3081 C   0  0  0  0  0  0  0  0  0  0  0  0
    7.4297    7.5873   24.8962 C   0  0  0  0  0  0  0  0  0  0  0  0
    8.1566   10.0536   16.0516 O   0  0  0  0  0  0  0  0  0  0  0  0
   12.4989    6.2074   20.1776 C   0  0  0  0  0  0  0  0  0  0  0  0
    6.9192    9.1053   20.9073 O   0  0  0  0  0  0  0  0  0  0  0  0
   14.3979    6.0729   18.7784 C   0  0  0  0  0  0  0  0  0  0  0  0
    8.6811    9.5354   16.9998 C   0  0  0  0  0  0  0  0  0  0  0  0
    9.2512    4.2713   13.7653 O   0  0  0  0  0  0  0  0  0  0  0  0
    9.6495    8.6317   16.8332 N   0  0  0  0  0  0  0  0  0  0  0  0
    6.2934    8.6988   23.1988 O   0  0  0  0  0  0  0  0  0  0  0  0
    7.9806    8.6543   20.5437 C   0  0  0  0  0  0  0  0  0  0  0  0
   13.7270    5.7144   19.8610 O   0  0  0  0  0  0  0  0  0  0  0  0
    8.3351    5.5235   15.4478 C   0  0  0  0  0  0  0  0  0  0  0  0
    8.7700    7.8434   21.3915 C   0  0  0  0  0  0  0  0  0  0  0  0
   11.7856    6.8851   19.2401 C   0  0  0  0  0  0  0  0  0  0  0  0
   10.5281    7.4276   19.5649 C   0  0  0  0  0  0  0  0  0  0  0  0
   10.0256    7.2907   20.8484 C   0  0  0  0  0  0  0  0  0  0  0  0
    9.3113    5.3049   14.4911 C   0  0  0  0  0  0  0  0  0  0  0  0
    9.4607    7.5646   16.0139 C   0  0  0  0  0  0  0  0  0  0  0  0
   10.4192    7.3157   15.0955 C   0  0  0  0  0  0  0  0  0  0  0  0
   10.2489    6.4227   23.0218 N   0  0  0  0  0  0  0  0  0  0  0  0
    7.2472    8.0746   23.5050 C   0  0  0  0  0  0  0  0  0  0  0  0
    9.2051    6.9101   23.4604 C   0  0  0  0  0  0  0  0  0  0  0  0
   11.9646    6.0299   21.4251 C   0  0  0  0  0  0  0  0  0  0  0  0
  1  5  1  0
  1 13  1  0
  2 20  2  0
  2 28  1  0
  2 29  1  0
  3 19  4  0
  3 25  4  0
  4 23  4  0
  4 27  1  0
  4 30  4  0
  5 17  1  0
  6  8  1  0
  6 29  1  0
  7 24  4  0
  7 26  4  0
  8 28  1  0
  9 13  2  0
 10 18  1  0
 10 21  4  0
 10 30  4  0
 11 17  2  0
 12 18  1  0
 13 15  1  0
 14 24  1  0
 15 25  1  0
 16 28  2  0
 17 20  1  0
 19 24  4  0
 20 23  1  0
 21 22  4  0
 22 23  4  0
 25 26  4  0
 27 29  2  0
M  END
$$$$

 Created by Python create_sdf_string function

 30 33  0  0  0  0  0  0  0  0999 V2000
    8.3036    9.8571   18.4133 C   0  0  0  0  0  0  0  0  0  0  0  0
    8.3694    7.6612   22.6703 C   0  0  0  0  0  0  0  0  0  0  0  0
    8.4143    6.6863   16.2273 C   0  0  0  0  0  0  0  0  0  0  0  0
   10.7581    6.5674   21.7636 C   0  0  0  0  0  0  0  0  0  0  0  0
    8.4452    8.7960   19.2958 O   0  0  0  0  0  0  0  0  0  0  0  0
    8.7122    6.7842   24.8569 C   0  0  0  0  0  0  0  0  0  0  0  0
   10.3400    6.1726   14.3081 C   0  0  0  0  0  0  0  0  0  0  0  0
    7.4297    7.5873   24.8962 C   0  0  0  0  0  0  0  0  0  0  0  0
    8.1566   10.0536   16.0516 O   0  0  0  0  0  0  0  0  0  0  0  0
   12.4989    6.2074   20.1776 C   0  0  0  0  0  0  0  0  0  0  0  0
    6.9192    9.1053   20.9073 O   0  0  0  0  0  0  0  0  0  0  0  0
   14.3979    6.0729   18.7784 C   0  0  0  0  0  0  0  0  0  0  0  0
    8.6811    9.5354   16.9998 C   0  0  0  0  0  0  0  0  0  0  0  0
    9.2512    4.2713   13.7653 O   0  0  0  0  0  0  0  0  0  0  0  0
    9.6495    8.6317   16.8332 N   0  0  0  0  0  0  0  0  0  0  0  0
    6.2934    8.6988   23.1988 O   0  0  0  0  0  0  0  0  0  0  0  0
    7.9806    8.6543   20.5437 C   0  0  0  0  0  0  0  0  0  0  0  0
   13.7270    5.7144   19.8610 O   0  0  0  0  0  0  0  0  0  0  0  0
    8.3351    5.5235   15.4478 C   0  0  0  0  0  0  0  0  0  0  0  0
    8.7700    7.8434   21.3915 C   0  0  0  0  0  0  0  0  0  0  0  0
   11.7856    6.8851   19.2401 C   0  0  0  0  0  0  0  0  0  0  0  0
   10.5281    7.4276   19.5649 C   0  0  0  0  0  0  0  0  0  0  0  0
   10.0256    7.2907   20.8484 C   0  0  0  0  0  0  0  0  0  0  0  0
    9.3113    5.3049   14.4911 C   0  0  0  0  0  0  0  0  0  0  0  0
    9.4607    7.5646   16.0139 C   0  0  0  0  0  0  0  0  0  0  0  0
   10.4192    7.3157   15.0955 C   0  0  0  0  0  0  0  0  0  0  0  0
   10.2489    6.4227   23.0218 N   0  0  0  0  0  0  0  0  0  0  0  0
    7.2472    8.0746   23.5050 C   0  0  0  0  0  0  0  0  0  0  0  0
    9.2051    6.9101   23.4604 C   0  0  0  0  0  0  0  0  0  0  0  0
   11.9646    6.0299   21.4251 C   0  0  0  0  0  0  0  0  0  0  0  0
  1  5  1  0
  1 13  1  0
  2 20  2  0
  2 28  1  0
  2 29  1  0
  3 19  4  0
  3 25  4  0
  4 23  4  0
  4 27  1  0
  4 30  4  0
  5 17  1  0
  6  8  1  0
  6 29  1  0
  7 24  4  0
  7 26  4  0
  8 28  1  0
  9 13  2  0
 10 18  1  0
 10 21  4  0
 10 30  4  0
 11 17  2  0
 12 18  1  0
 13 15  1  0
 14 24  1  0
 15 25  1  0
 16 28  2  0
 17 20  1  0
 19 24  4  0
 20 23  1  0
 21 22  4  0
 22 23  4  0
 25 26  4  0
 27 29  2  0
M  END
$$$$

 Created by Python create_sdf_string function

 30 33  0  0  0  0  0  0  0  0999 V2000
    8.3036    9.8571   18.4133 C   0  0  0  0  0  0  0  0  0  0  0  0
    8.3694    7.6612   22.6703 C   0  0  0  0  0  0  0  0  0  0  0  0
    8.4143    6.6863   16.2273 C   0  0  0  0  0  0  0  0  0  0  0  0
   10.7581    6.5674   21.7636 C   0  0  0  0  0  0  0  0  0  0  0  0
    8.4452    8.7960   19.2958 O   0  0  0  0  0  0  0  0  0  0  0  0
    8.7122    6.7842   24.8569 C   0  0  0  0  0  0  0  0  0  0  0  0
   10.3400    6.1726   14.3081 C   0  0  0  0  0  0  0  0  0  0  0  0
    7.4297    7.5873   24.8962 C   0  0  0  0  0  0  0  0  0  0  0  0
    8.1566   10.0536   16.0516 O   0  0  0  0  0  0  0  0  0  0  0  0
   12.4989    6.2074   20.1776 C   0  0  0  0  0  0  0  0  0  0  0  0
    6.9192    9.1053   20.9073 O   0  0  0  0  0  0  0  0  0  0  0  0
   14.3979    6.0729   18.7784 C   0  0  0  0  0  0  0  0  0  0  0  0
    8.6811    9.5354   16.9998 C   0  0  0  0  0  0  0  0  0  0  0  0
    9.2512    4.2713   13.7653 O   0  0  0  0  0  0  0  0  0  0  0  0
    9.6495    8.6317   16.8332 N   0  0  0  0  0  0  0  0  0  0  0  0
    6.2934    8.6988   23.1988 O   0  0  0  0  0  0  0  0  0  0  0  0
    7.9806    8.6543   20.5437 C   0  0  0  0  0  0  0  0  0  0  0  0
   13.7270    5.7144   19.8610 O   0  0  0  0  0  0  0  0  0  0  0  0
    8.3351    5.5235   15.4478 C   0  0  0  0  0  0  0  0  0  0  0  0
    8.7700    7.8434   21.3915 C   0  0  0  0  0  0  0  0  0  0  0  0
   11.7856    6.8851   19.2401 C   0  0  0  0  0  0  0  0  0  0  0  0
   10.5281    7.4276   19.5649 C   0  0  0  0  0  0  0  0  0  0  0  0
   10.0256    7.2907   20.8484 C   0  0  0  0  0  0  0  0  0  0  0  0
    9.3113    5.3049   14.4911 C   0  0  0  0  0  0  0  0  0  0  0  0
    9.4607    7.5646   16.0139 C   0  0  0  0  0  0  0  0  0  0  0  0
   10.4192    7.3157   15.0955 C   0  0  0  0  0  0  0  0  0  0  0  0
   10.2489    6.4227   23.0218 N   0  0  0  0  0  0  0  0  0  0  0  0
    7.2472    8.0746   23.5050 C   0  0  0  0  0  0  0  0  0  0  0  0
    9.2051    6.9101   23.4604 C   0  0  0  0  0  0  0  0  0  0  0  0
   11.9646    6.0299   21.4251 C   0  0  0  0  0  0  0  0  0  0  0  0
  1  5  1  0
  1 13  1  0
  2 20  2  0
  2 28  1  0
  2 29  1  0
  3 19  4  0
  3 25  4  0
  4 23  4  0
  4 27  1  0
  4 30  4  0
  5 17  1  0
  6  8  1  0
  6 29  1  0
  7 24  4  0
  7 26  4  0
  8 28  1  0
  9 13  2  0
 10 18  1  0
 10 21  4  0
 10 30  4  0
 11 17  2  0
 12 18  1  0
 13 15  1  0
 14 24  1  0
 15 25  1  0
 16 28  2  0
 17 20  1  0
 19 24  4  0
 20 23  1  0
 21 22  4  0
 22 23  4  0
 25 26  4  0
 27 29  2  0
M  END
$$$$

 Created by Python create_sdf_string function

 30 33  0  0  0  0  0  0  0  0999 V2000
    8.3036    9.8571   18.4133 C   0  0  0  0  0  0  0  0  0  0  0  0
    8.3694    7.6612   22.6703 C   0  0  0  0  0  0  0  0  0  0  0  0
    8.4143    6.6863   16.2273 C   0  0  0  0  0  0  0  0  0  0  0  0
   10.7581    6.5674   21.7636 C   0  0  0  0  0  0  0  0  0  0  0  0
    8.4452    8.7960   19.2958 O   0  0  0  0  0  0  0  0  0  0  0  0
    8.7122    6.7842   24.8569 C   0  0  0  0  0  0  0  0  0  0  0  0
   10.3400    6.1726   14.3081 C   0  0  0  0  0  0  0  0  0  0  0  0
    7.4297    7.5873   24.8962 C   0  0  0  0  0  0  0  0  0  0  0  0
    8.1566   10.0536   16.0516 O   0  0  0  0  0  0  0  0  0  0  0  0
   12.4989    6.2074   20.1776 C   0  0  0  0  0  0  0  0  0  0  0  0
    6.9192    9.1053   20.9073 O   0  0  0  0  0  0  0  0  0  0  0  0
   14.3979    6.0729   18.7784 C   0  0  0  0  0  0  0  0  0  0  0  0
    8.6811    9.5354   16.9998 C   0  0  0  0  0  0  0  0  0  0  0  0
    9.2512    4.2713   13.7653 O   0  0  0  0  0  0  0  0  0  0  0  0
    9.6495    8.6317   16.8332 N   0  0  0  0  0  0  0  0  0  0  0  0
    6.2934    8.6988   23.1988 O   0  0  0  0  0  0  0  0  0  0  0  0
    7.9806    8.6543   20.5437 C   0  0  0  0  0  0  0  0  0  0  0  0
   13.7270    5.7144   19.8610 O   0  0  0  0  0  0  0  0  0  0  0  0
    8.3351    5.5235   15.4478 C   0  0  0  0  0  0  0  0  0  0  0  0
    8.7700    7.8434   21.3915 C   0  0  0  0  0  0  0  0  0  0  0  0
   11.7856    6.8851   19.2401 C   0  0  0  0  0  0  0  0  0  0  0  0
   10.5281    7.4276   19.5649 C   0  0  0  0  0  0  0  0  0  0  0  0
   10.0256    7.2907   20.8484 C   0  0  0  0  0  0  0  0  0  0  0  0
    9.3113    5.3049   14.4911 C   0  0  0  0  0  0  0  0  0  0  0  0
    9.4607    7.5646   16.0139 C   0  0  0  0  0  0  0  0  0  0  0  0
   10.4192    7.3157   15.0955 C   0  0  0  0  0  0  0  0  0  0  0  0
   10.2489    6.4227   23.0218 N   0  0  0  0  0  0  0  0  0  0  0  0
    7.2472    8.0746   23.5050 C   0  0  0  0  0  0  0  0  0  0  0  0
    9.2051    6.9101   23.4604 C   0  0  0  0  0  0  0  0  0  0  0  0
   11.9646    6.0299   21.4251 C   0  0  0  0  0  0  0  0  0  0  0  0
  1  5  1  0
  1 13  1  0
  2 20  2  0
  2 28  1  0
  2 29  1  0
  3 19  4  0
  3 25  4  0
  4 23  4  0
  4 27  1  0
  4 30  4  0
  5 17  1  0
  6  8  1  0
  6 29  1  0
  7 24  4  0
  7 26  4  0
  8 28  1  0
  9 13  2  0
 10 18  1  0
 10 21  4  0
 10 30  4  0
 11 17  2  0
 12 18  1  0
 13 15  1  0
 14 24  1  0
 15 25  1  0
 16 28  2  0
 17 20  1  0
 19 24  4  0
 20 23  1  0
 21 22  4  0
 22 23  4  0
 25 26  4  0
 27 29  2  0
M  END
$$$$

 Created by Python create_sdf_string function

 30 33  0  0  0  0  0  0  0  0999 V2000
    8.3036    9.8571   18.4133 C   0  0  0  0  0  0  0  0  0  0  0  0
    8.3694    7.6612   22.6703 C   0  0  0  0  0  0  0  0  0  0  0  0
    8.4143    6.6863   16.2273 C   0  0  0  0  0  0  0  0  0  0  0  0
   10.7581    6.5674   21.7636 C   0  0  0  0  0  0  0  0  0  0  0  0
    8.4452    8.7960   19.2958 O   0  0  0  0  0  0  0  0  0  0  0  0
    8.7122    6.7842   24.8569 C   0  0  0  0  0  0  0  0  0  0  0  0
   10.3400    6.1726   14.3081 C   0  0  0  0  0  0  0  0  0  0  0  0
    7.4297    7.5873   24.8962 C   0  0  0  0  0  0  0  0  0  0  0  0
    8.1566   10.0536   16.0516 O   0  0  0  0  0  0  0  0  0  0  0  0
   12.4989    6.2074   20.1776 C   0  0  0  0  0  0  0  0  0  0  0  0
    6.9192    9.1053   20.9073 O   0  0  0  0  0  0  0  0  0  0  0  0
   14.3979    6.0729   18.7784 C   0  0  0  0  0  0  0  0  0  0  0  0
    8.6811    9.5354   16.9998 C   0  0  0  0  0  0  0  0  0  0  0  0
    9.2512    4.2713   13.7653 O   0  0  0  0  0  0  0  0  0  0  0  0
    9.6495    8.6317   16.8332 N   0  0  0  0  0  0  0  0  0  0  0  0
    6.2934    8.6988   23.1988 O   0  0  0  0  0  0  0  0  0  0  0  0
    7.9806    8.6543   20.5437 C   0  0  0  0  0  0  0  0  0  0  0  0
   13.7270    5.7144   19.8610 O   0  0  0  0  0  0  0  0  0  0  0  0
    8.3351    5.5235   15.4478 C   0  0  0  0  0  0  0  0  0  0  0  0
    8.7700    7.8434   21.3915 C   0  0  0  0  0  0  0  0  0  0  0  0
   11.7856    6.8851   19.2401 C   0  0  0  0  0  0  0  0  0  0  0  0
   10.5281    7.4276   19.5649 C   0  0  0  0  0  0  0  0  0  0  0  0
   10.0256    7.2907   20.8484 C   0  0  0  0  0  0  0  0  0  0  0  0
    9.3113    5.3049   14.4911 C   0  0  0  0  0  0  0  0  0  0  0  0
    9.4607    7.5646   16.0139 C   0  0  0  0  0  0  0  0  0  0  0  0
   10.4192    7.3157   15.0955 C   0  0  0  0  0  0  0  0  0  0  0  0
   10.2489    6.4227   23.0218 N   0  0  0  0  0  0  0  0  0  0  0  0
    7.2472    8.0746   23.5050 C   0  0  0  0  0  0  0  0  0  0  0  0
    9.2051    6.9101   23.4604 C   0  0  0  0  0  0  0  0  0  0  0  0
   11.9646    6.0299   21.4251 C   0  0  0  0  0  0  0  0  0  0  0  0
  1  5  1  0
  1 13  1  0
  2 20  2  0
  2 28  1  0
  2 29  1  0
  3 19  4  0
  3 25  4  0
  4 23  4  0
  4 27  1  0
  4 30  4  0
  5 17  1  0
  6  8  1  0
  6 29  1  0
  7 24  4  0
  7 26  4  0
  8 28  1  0
  9 13  2  0
 10 18  1  0
 10 21  4  0
 10 30  4  0
 11 17  2  0
 12 18  1  0
 13 15  1  0
 14 24  1  0
 15 25  1  0
 16 28  2  0
 17 20  1  0
 19 24  4  0
 20 23  1  0
 21 22  4  0
 22 23  4  0
 25 26  4  0
 27 29  2  0
M  END
$$$$

 Created by Python create_sdf_string function

 30 33  0  0  0  0  0  0  0  0999 V2000
    8.3036    9.8571   18.4133 C   0  0  0  0  0  0  0  0  0  0  0  0
    8.3694    7.6612   22.6703 C   0  0  0  0  0  0  0  0  0  0  0  0
    8.4143    6.6863   16.2273 C   0  0  0  0  0  0  0  0  0  0  0  0
   10.7581    6.5674   21.7636 C   0  0  0  0  0  0  0  0  0  0  0  0
    8.4452    8.7960   19.2958 O   0  0  0  0  0  0  0  0  0  0  0  0
    8.7122    6.7842   24.8569 C   0  0  0  0  0  0  0  0  0  0  0  0
   10.3400    6.1726   14.3081 C   0  0  0  0  0  0  0  0  0  0  0  0
    7.4297    7.5873   24.8962 C   0  0  0  0  0  0  0  0  0  0  0  0
    8.1566   10.0536   16.0516 O   0  0  0  0  0  0  0  0  0  0  0  0
   12.4989    6.2074   20.1776 C   0  0  0  0  0  0  0  0  0  0  0  0
    6.9192    9.1053   20.9073 O   0  0  0  0  0  0  0  0  0  0  0  0
   14.3979    6.0729   18.7784 C   0  0  0  0  0  0  0  0  0  0  0  0
    8.6811    9.5354   16.9998 C   0  0  0  0  0  0  0  0  0  0  0  0
    9.2512    4.2713   13.7653 O   0  0  0  0  0  0  0  0  0  0  0  0
    9.6495    8.6317   16.8332 N   0  0  0  0  0  0  0  0  0  0  0  0
    6.2934    8.6988   23.1988 O   0  0  0  0  0  0  0  0  0  0  0  0
    7.9806    8.6543   20.5437 C   0  0  0  0  0  0  0  0  0  0  0  0
   13.7270    5.7144   19.8610 O   0  0  0  0  0  0  0  0  0  0  0  0
    8.3351    5.5235   15.4478 C   0  0  0  0  0  0  0  0  0  0  0  0
    8.7700    7.8434   21.3915 C   0  0  0  0  0  0  0  0  0  0  0  0
   11.7856    6.8851   19.2401 C   0  0  0  0  0  0  0  0  0  0  0  0
   10.5281    7.4276   19.5649 C   0  0  0  0  0  0  0  0  0  0  0  0
   10.0256    7.2907   20.8484 C   0  0  0  0  0  0  0  0  0  0  0  0
    9.3113    5.3049   14.4911 C   0  0  0  0  0  0  0  0  0  0  0  0
    9.4607    7.5646   16.0139 C   0  0  0  0  0  0  0  0  0  0  0  0
   10.4192    7.3157   15.0955 C   0  0  0  0  0  0  0  0  0  0  0  0
   10.2489    6.4227   23.0218 N   0  0  0  0  0  0  0  0  0  0  0  0
    7.2472    8.0746   23.5050 C   0  0  0  0  0  0  0  0  0  0  0  0
    9.2051    6.9101   23.4604 C   0  0  0  0  0  0  0  0  0  0  0  0
   11.9646    6.0299   21.4251 C   0  0  0  0  0  0  0  0  0  0  0  0
  1  5  1  0
  1 13  1  0
  2 20  2  0
  2 28  1  0
  2 29  1  0
  3 19  4  0
  3 25  4  0
  4 23  4  0
  4 27  1  0
  4 30  4  0
  5 17  1  0
  6  8  1  0
  6 29  1  0
  7 24  4  0
  7 26  4  0
  8 28  1  0
  9 13  2  0
 10 18  1  0
 10 21  4  0
 10 30  4  0
 11 17  2  0
 12 18  1  0
 13 15  1  0
 14 24  1  0
 15 25  1  0
 16 28  2  0
 17 20  1  0
 19 24  4  0
 20 23  1  0
 21 22  4  0
 22 23  4  0
 25 26  4  0
 27 29  2  0
M  END
$$$$

 Created by Python create_sdf_string function

 30 33  0  0  0  0  0  0  0  0999 V2000
    8.3036    9.8571   18.4133 C   0  0  0  0  0  0  0  0  0  0  0  0
    8.3694    7.6612   22.6703 C   0  0  0  0  0  0  0  0  0  0  0  0
    8.4143    6.6863   16.2273 C   0  0  0  0  0  0  0  0  0  0  0  0
   10.7581    6.5674   21.7636 C   0  0  0  0  0  0  0  0  0  0  0  0
    8.4452    8.7960   19.2958 O   0  0  0  0  0  0  0  0  0  0  0  0
    8.7122    6.7842   24.8569 C   0  0  0  0  0  0  0  0  0  0  0  0
   10.3400    6.1726   14.3081 C   0  0  0  0  0  0  0  0  0  0  0  0
    7.4297    7.5873   24.8962 C   0  0  0  0  0  0  0  0  0  0  0  0
    8.1566   10.0536   16.0516 O   0  0  0  0  0  0  0  0  0  0  0  0
   12.4989    6.2074   20.1776 C   0  0  0  0  0  0  0  0  0  0  0  0
    6.9192    9.1053   20.9073 O   0  0  0  0  0  0  0  0  0  0  0  0
   14.3979    6.0729   18.7784 C   0  0  0  0  0  0  0  0  0  0  0  0
    8.6811    9.5354   16.9998 C   0  0  0  0  0  0  0  0  0  0  0  0
    9.2512    4.2713   13.7653 O   0  0  0  0  0  0  0  0  0  0  0  0
    9.6495    8.6317   16.8332 N   0  0  0  0  0  0  0  0  0  0  0  0
    6.2934    8.6988   23.1988 O   0  0  0  0  0  0  0  0  0  0  0  0
    7.9806    8.6543   20.5437 C   0  0  0  0  0  0  0  0  0  0  0  0
   13.7270    5.7144   19.8610 O   0  0  0  0  0  0  0  0  0  0  0  0
    8.3351    5.5235   15.4478 C   0  0  0  0  0  0  0  0  0  0  0  0
    8.7700    7.8434   21.3915 C   0  0  0  0  0  0  0  0  0  0  0  0
   11.7856    6.8851   19.2401 C   0  0  0  0  0  0  0  0  0  0  0  0
   10.5281    7.4276   19.5649 C   0  0  0  0  0  0  0  0  0  0  0  0
   10.0256    7.2907   20.8484 C   0  0  0  0  0  0  0  0  0  0  0  0
    9.3113    5.3049   14.4911 C   0  0  0  0  0  0  0  0  0  0  0  0
    9.4607    7.5646   16.0139 C   0  0  0  0  0  0  0  0  0  0  0  0
   10.4192    7.3157   15.0955 C   0  0  0  0  0  0  0  0  0  0  0  0
   10.2489    6.4227   23.0218 N   0  0  0  0  0  0  0  0  0  0  0  0
    7.2472    8.0746   23.5050 C   0  0  0  0  0  0  0  0  0  0  0  0
    9.2051    6.9101   23.4604 C   0  0  0  0  0  0  0  0  0  0  0  0
   11.9646    6.0299   21.4251 C   0  0  0  0  0  0  0  0  0  0  0  0
  1  5  1  0
  1 13  1  0
  2 20  2  0
  2 28  1  0
  2 29  1  0
  3 19  4  0
  3 25  4  0
  4 23  4  0
  4 27  1  0
  4 30  4  0
  5 17  1  0
  6  8  1  0
  6 29  1  0
  7 24  4  0
  7 26  4  0
  8 28  1  0
  9 13  2  0
 10 18  1  0
 10 21  4  0
 10 30  4  0
 11 17  2  0
 12 18  1  0
 13 15  1  0
 14 24  1  0
 15 25  1  0
 16 28  2  0
 17 20  1  0
 19 24  4  0
 20 23  1  0
 21 22  4  0
 22 23  4  0
 25 26  4  0
 27 29  2  0
M  END
$$$$

 Created by Python create_sdf_string function

 30 33  0  0  0  0  0  0  0  0999 V2000
    8.3036    9.8571   18.4133 C   0  0  0  0  0  0  0  0  0  0  0  0
    8.3694    7.6612   22.6703 C   0  0  0  0  0  0  0  0  0  0  0  0
    8.4143    6.6863   16.2273 C   0  0  0  0  0  0  0  0  0  0  0  0
   10.7581    6.5674   21.7636 C   0  0  0  0  0  0  0  0  0  0  0  0
    8.4452    8.7960   19.2958 O   0  0  0  0  0  0  0  0  0  0  0  0
    8.7122    6.7842   24.8569 C   0  0  0  0  0  0  0  0  0  0  0  0
   10.3400    6.1726   14.3081 C   0  0  0  0  0  0  0  0  0  0  0  0
    7.4297    7.5873   24.8962 C   0  0  0  0  0  0  0  0  0  0  0  0
    8.1566   10.0536   16.0516 O   0  0  0  0  0  0  0  0  0  0  0  0
   12.4989    6.2074   20.1776 C   0  0  0  0  0  0  0  0  0  0  0  0
    6.9192    9.1053   20.9073 O   0  0  0  0  0  0  0  0  0  0  0  0
   14.3979    6.0729   18.7784 C   0  0  0  0  0  0  0  0  0  0  0  0
    8.6811    9.5354   16.9998 C   0  0  0  0  0  0  0  0  0  0  0  0
    9.2512    4.2713   13.7653 O   0  0  0  0  0  0  0  0  0  0  0  0
    9.6495    8.6317   16.8332 N   0  0  0  0  0  0  0  0  0  0  0  0
    6.2934    8.6988   23.1988 O   0  0  0  0  0  0  0  0  0  0  0  0
    7.9806    8.6543   20.5437 C   0  0  0  0  0  0  0  0  0  0  0  0
   13.7270    5.7144   19.8610 O   0  0  0  0  0  0  0  0  0  0  0  0
    8.3351    5.5235   15.4478 C   0  0  0  0  0  0  0  0  0  0  0  0
    8.7700    7.8434   21.3915 C   0  0  0  0  0  0  0  0  0  0  0  0
   11.7856    6.8851   19.2401 C   0  0  0  0  0  0  0  0  0  0  0  0
   10.5281    7.4276   19.5649 C   0  0  0  0  0  0  0  0  0  0  0  0
   10.0256    7.2907   20.8484 C   0  0  0  0  0  0  0  0  0  0  0  0
    9.3113    5.3049   14.4911 C   0  0  0  0  0  0  0  0  0  0  0  0
    9.4607    7.5646   16.0139 C   0  0  0  0  0  0  0  0  0  0  0  0
   10.4192    7.3157   15.0955 C   0  0  0  0  0  0  0  0  0  0  0  0
   10.2489    6.4227   23.0218 N   0  0  0  0  0  0  0  0  0  0  0  0
    7.2472    8.0746   23.5050 C   0  0  0  0  0  0  0  0  0  0  0  0
    9.2051    6.9101   23.4604 C   0  0  0  0  0  0  0  0  0  0  0  0
   11.9646    6.0299   21.4251 C   0  0  0  0  0  0  0  0  0  0  0  0
  1  5  1  0
  1 13  1  0
  2 20  2  0
  2 28  1  0
  2 29  1  0
  3 19  4  0
  3 25  4  0
  4 23  4  0
  4 27  1  0
  4 30  4  0
  5 17  1  0
  6  8  1  0
  6 29  1  0
  7 24  4  0
  7 26  4  0
  8 28  1  0
  9 13  2  0
 10 18  1  0
 10 21  4  0
 10 30  4  0
 11 17  2  0
 12 18  1  0
 13 15  1  0
 14 24  1  0
 15 25  1  0
 16 28  2  0
 17 20  1  0
 19 24  4  0
 20 23  1  0
 21 22  4  0
 22 23  4  0
 25 26  4  0
 27 29  2  0
M  END
$$$$

 Created by Python create_sdf_string function

 30 33  0  0  0  0  0  0  0  0999 V2000
    8.3036    9.8571   18.4133 C   0  0  0  0  0  0  0  0  0  0  0  0
    8.3694    7.6612   22.6703 C   0  0  0  0  0  0  0  0  0  0  0  0
    8.4143    6.6863   16.2273 C   0  0  0  0  0  0  0  0  0  0  0  0
   10.7581    6.5674   21.7636 C   0  0  0  0  0  0  0  0  0  0  0  0
    8.4452    8.7960   19.2958 O   0  0  0  0  0  0  0  0  0  0  0  0
    8.7122    6.7842   24.8569 C   0  0  0  0  0  0  0  0  0  0  0  0
   10.3400    6.1726   14.3081 C   0  0  0  0  0  0  0  0  0  0  0  0
    7.4297    7.5873   24.8962 C   0  0  0  0  0  0  0  0  0  0  0  0
    8.1566   10.0536   16.0516 O   0  0  0  0  0  0  0  0  0  0  0  0
   12.4989    6.2074   20.1776 C   0  0  0  0  0  0  0  0  0  0  0  0
    6.9192    9.1053   20.9073 O   0  0  0  0  0  0  0  0  0  0  0  0
   14.3979    6.0729   18.7784 C   0  0  0  0  0  0  0  0  0  0  0  0
    8.6811    9.5354   16.9998 C   0  0  0  0  0  0  0  0  0  0  0  0
    9.2512    4.2713   13.7653 O   0  0  0  0  0  0  0  0  0  0  0  0
    9.6495    8.6317   16.8332 N   0  0  0  0  0  0  0  0  0  0  0  0
    6.2934    8.6988   23.1988 O   0  0  0  0  0  0  0  0  0  0  0  0
    7.9806    8.6543   20.5437 C   0  0  0  0  0  0  0  0  0  0  0  0
   13.7270    5.7144   19.8610 O   0  0  0  0  0  0  0  0  0  0  0  0
    8.3351    5.5235   15.4478 C   0  0  0  0  0  0  0  0  0  0  0  0
    8.7700    7.8434   21.3915 C   0  0  0  0  0  0  0  0  0  0  0  0
   11.7856    6.8851   19.2401 C   0  0  0  0  0  0  0  0  0  0  0  0
   10.5281    7.4276   19.5649 C   0  0  0  0  0  0  0  0  0  0  0  0
   10.0256    7.2907   20.8484 C   0  0  0  0  0  0  0  0  0  0  0  0
    9.3113    5.3049   14.4911 C   0  0  0  0  0  0  0  0  0  0  0  0
    9.4607    7.5646   16.0139 C   0  0  0  0  0  0  0  0  0  0  0  0
   10.4192    7.3157   15.0955 C   0  0  0  0  0  0  0  0  0  0  0  0
   10.2489    6.4227   23.0218 N   0  0  0  0  0  0  0  0  0  0  0  0
    7.2472    8.0746   23.5050 C   0  0  0  0  0  0  0  0  0  0  0  0
    9.2051    6.9101   23.4604 C   0  0  0  0  0  0  0  0  0  0  0  0
   11.9646    6.0299   21.4251 C   0  0  0  0  0  0  0  0  0  0  0  0
  1  5  1  0
  1 13  1  0
  2 20  2  0
  2 28  1  0
  2 29  1  0
  3 19  4  0
  3 25  4  0
  4 23  4  0
  4 27  1  0
  4 30  4  0
  5 17  1  0
  6  8  1  0
  6 29  1  0
  7 24  4  0
  7 26  4  0
  8 28  1  0
  9 13  2  0
 10 18  1  0
 10 21  4  0
 10 30  4  0
 11 17  2  0
 12 18  1  0
 13 15  1  0
 14 24  1  0
 15 25  1  0
 16 28  2  0
 17 20  1  0
 19 24  4  0
 20 23  1  0
 21 22  4  0
 22 23  4  0
 25 26  4  0
 27 29  2  0
M  END
$$$$

 Created by Python create_sdf_string function

 30 33  0  0  0  0  0  0  0  0999 V2000
    8.3036    9.8571   18.4133 C   0  0  0  0  0  0  0  0  0  0  0  0
    8.3694    7.6612   22.6703 C   0  0  0  0  0  0  0  0  0  0  0  0
    8.4143    6.6863   16.2273 C   0  0  0  0  0  0  0  0  0  0  0  0
   10.7581    6.5674   21.7636 C   0  0  0  0  0  0  0  0  0  0  0  0
    8.4452    8.7960   19.2958 O   0  0  0  0  0  0  0  0  0  0  0  0
    8.7122    6.7842   24.8569 C   0  0  0  0  0  0  0  0  0  0  0  0
   10.3400    6.1726   14.3081 C   0  0  0  0  0  0  0  0  0  0  0  0
    7.4297    7.5873   24.8962 C   0  0  0  0  0  0  0  0  0  0  0  0
    8.1566   10.0536   16.0516 O   0  0  0  0  0  0  0  0  0  0  0  0
   12.4989    6.2074   20.1776 C   0  0  0  0  0  0  0  0  0  0  0  0
    6.9192    9.1053   20.9073 O   0  0  0  0  0  0  0  0  0  0  0  0
   14.3979    6.0729   18.7784 C   0  0  0  0  0  0  0  0  0  0  0  0
    8.6811    9.5354   16.9998 C   0  0  0  0  0  0  0  0  0  0  0  0
    9.2512    4.2713   13.7653 O   0  0  0  0  0  0  0  0  0  0  0  0
    9.6495    8.6317   16.8332 N   0  0  0  0  0  0  0  0  0  0  0  0
    6.2934    8.6988   23.1988 O   0  0  0  0  0  0  0  0  0  0  0  0
    7.9806    8.6543   20.5437 C   0  0  0  0  0  0  0  0  0  0  0  0
   13.7270    5.7144   19.8610 O   0  0  0  0  0  0  0  0  0  0  0  0
    8.3351    5.5235   15.4478 C   0  0  0  0  0  0  0  0  0  0  0  0
    8.7700    7.8434   21.3915 C   0  0  0  0  0  0  0  0  0  0  0  0
   11.7856    6.8851   19.2401 C   0  0  0  0  0  0  0  0  0  0  0  0
   10.5281    7.4276   19.5649 C   0  0  0  0  0  0  0  0  0  0  0  0
   10.0256    7.2907   20.8484 C   0  0  0  0  0  0  0  0  0  0  0  0
    9.3113    5.3049   14.4911 C   0  0  0  0  0  0  0  0  0  0  0  0
    9.4607    7.5646   16.0139 C   0  0  0  0  0  0  0  0  0  0  0  0
   10.4192    7.3157   15.0955 C   0  0  0  0  0  0  0  0  0  0  0  0
   10.2489    6.4227   23.0218 N   0  0  0  0  0  0  0  0  0  0  0  0
    7.2472    8.0746   23.5050 C   0  0  0  0  0  0  0  0  0  0  0  0
    9.2051    6.9101   23.4604 C   0  0  0  0  0  0  0  0  0  0  0  0
   11.9646    6.0299   21.4251 C   0  0  0  0  0  0  0  0  0  0  0  0
  1  5  1  0
  1 13  1  0
  2 20  2  0
  2 28  1  0
  2 29  1  0
  3 19  4  0
  3 25  4  0
  4 23  4  0
  4 27  1  0
  4 30  4  0
  5 17  1  0
  6  8  1  0
  6 29  1  0
  7 24  4  0
  7 26  4  0
  8 28  1  0
  9 13  2  0
 10 18  1  0
 10 21  4  0
 10 30  4  0
 11 17  2  0
 12 18  1  0
 13 15  1  0
 14 24  1  0
 15 25  1  0
 16 28  2  0
 17 20  1  0
 19 24  4  0
 20 23  1  0
 21 22  4  0
 22 23  4  0
 25 26  4  0
 27 29  2  0
M  END
$$$$

 Created by Python create_sdf_string function

 30 33  0  0  0  0  0  0  0  0999 V2000
    8.3036    9.8571   18.4133 C   0  0  0  0  0  0  0  0  0  0  0  0
    8.3694    7.6612   22.6703 C   0  0  0  0  0  0  0  0  0  0  0  0
    8.4143    6.6863   16.2273 C   0  0  0  0  0  0  0  0  0  0  0  0
   10.7581    6.5674   21.7636 C   0  0  0  0  0  0  0  0  0  0  0  0
    8.4452    8.7960   19.2958 O   0  0  0  0  0  0  0  0  0  0  0  0
    8.7122    6.7842   24.8569 C   0  0  0  0  0  0  0  0  0  0  0  0
   10.3400    6.1726   14.3081 C   0  0  0  0  0  0  0  0  0  0  0  0
    7.4297    7.5873   24.8962 C   0  0  0  0  0  0  0  0  0  0  0  0
    8.1566   10.0536   16.0516 O   0  0  0  0  0  0  0  0  0  0  0  0
   12.4989    6.2074   20.1776 C   0  0  0  0  0  0  0  0  0  0  0  0
    6.9192    9.1053   20.9073 O   0  0  0  0  0  0  0  0  0  0  0  0
   14.3979    6.0729   18.7784 C   0  0  0  0  0  0  0  0  0  0  0  0
    8.6811    9.5354   16.9998 C   0  0  0  0  0  0  0  0  0  0  0  0
    9.2512    4.2713   13.7653 O   0  0  0  0  0  0  0  0  0  0  0  0
    9.6495    8.6317   16.8332 N   0  0  0  0  0  0  0  0  0  0  0  0
    6.2934    8.6988   23.1988 O   0  0  0  0  0  0  0  0  0  0  0  0
    7.9806    8.6543   20.5437 C   0  0  0  0  0  0  0  0  0  0  0  0
   13.7270    5.7144   19.8610 O   0  0  0  0  0  0  0  0  0  0  0  0
    8.3351    5.5235   15.4478 C   0  0  0  0  0  0  0  0  0  0  0  0
    8.7700    7.8434   21.3915 C   0  0  0  0  0  0  0  0  0  0  0  0
   11.7856    6.8851   19.2401 C   0  0  0  0  0  0  0  0  0  0  0  0
   10.5281    7.4276   19.5649 C   0  0  0  0  0  0  0  0  0  0  0  0
   10.0256    7.2907   20.8484 C   0  0  0  0  0  0  0  0  0  0  0  0
    9.3113    5.3049   14.4911 C   0  0  0  0  0  0  0  0  0  0  0  0
    9.4607    7.5646   16.0139 C   0  0  0  0  0  0  0  0  0  0  0  0
   10.4192    7.3157   15.0955 C   0  0  0  0  0  0  0  0  0  0  0  0
   10.2489    6.4227   23.0218 N   0  0  0  0  0  0  0  0  0  0  0  0
    7.2472    8.0746   23.5050 C   0  0  0  0  0  0  0  0  0  0  0  0
    9.2051    6.9101   23.4604 C   0  0  0  0  0  0  0  0  0  0  0  0
   11.9646    6.0299   21.4251 C   0  0  0  0  0  0  0  0  0  0  0  0
  1  5  1  0
  1 13  1  0
  2 20  2  0
  2 28  1  0
  2 29  1  0
  3 19  4  0
  3 25  4  0
  4 23  4  0
  4 27  1  0
  4 30  4  0
  5 17  1  0
  6  8  1  0
  6 29  1  0
  7 24  4  0
  7 26  4  0
  8 28  1  0
  9 13  2  0
 10 18  1  0
 10 21  4  0
 10 30  4  0
 11 17  2  0
 12 18  1  0
 13 15  1  0
 14 24  1  0
 15 25  1  0
 16 28  2  0
 17 20  1  0
 19 24  4  0
 20 23  1  0
 21 22  4  0
 22 23  4  0
 25 26  4  0
 27 29  2  0
M  END
$$$$

 Created by Python create_sdf_string function

 30 33  0  0  0  0  0  0  0  0999 V2000
    8.3036    9.8571   18.4133 C   0  0  0  0  0  0  0  0  0  0  0  0
    8.3694    7.6612   22.6703 C   0  0  0  0  0  0  0  0  0  0  0  0
    8.4143    6.6863   16.2273 C   0  0  0  0  0  0  0  0  0  0  0  0
   10.7581    6.5674   21.7636 C   0  0  0  0  0  0  0  0  0  0  0  0
    8.4452    8.7960   19.2958 O   0  0  0  0  0  0  0  0  0  0  0  0
    8.7122    6.7842   24.8569 C   0  0  0  0  0  0  0  0  0  0  0  0
   10.3400    6.1726   14.3081 C   0  0  0  0  0  0  0  0  0  0  0  0
    7.4297    7.5873   24.8962 C   0  0  0  0  0  0  0  0  0  0  0  0
    8.1566   10.0536   16.0516 O   0  0  0  0  0  0  0  0  0  0  0  0
   12.4989    6.2074   20.1776 C   0  0  0  0  0  0  0  0  0  0  0  0
    6.9192    9.1053   20.9073 O   0  0  0  0  0  0  0  0  0  0  0  0
   14.3979    6.0729   18.7784 C   0  0  0  0  0  0  0  0  0  0  0  0
    8.6811    9.5354   16.9998 C   0  0  0  0  0  0  0  0  0  0  0  0
    9.2512    4.2713   13.7653 O   0  0  0  0  0  0  0  0  0  0  0  0
    9.6495    8.6317   16.8332 N   0  0  0  0  0  0  0  0  0  0  0  0
    6.2934    8.6988   23.1988 O   0  0  0  0  0  0  0  0  0  0  0  0
    7.9806    8.6543   20.5437 C   0  0  0  0  0  0  0  0  0  0  0  0
   13.7270    5.7144   19.8610 O   0  0  0  0  0  0  0  0  0  0  0  0
    8.3351    5.5235   15.4478 C   0  0  0  0  0  0  0  0  0  0  0  0
    8.7700    7.8434   21.3915 C   0  0  0  0  0  0  0  0  0  0  0  0
   11.7856    6.8851   19.2401 C   0  0  0  0  0  0  0  0  0  0  0  0
   10.5281    7.4276   19.5649 C   0  0  0  0  0  0  0  0  0  0  0  0
   10.0256    7.2907   20.8484 C   0  0  0  0  0  0  0  0  0  0  0  0
    9.3113    5.3049   14.4911 C   0  0  0  0  0  0  0  0  0  0  0  0
    9.4607    7.5646   16.0139 C   0  0  0  0  0  0  0  0  0  0  0  0
   10.4192    7.3157   15.0955 C   0  0  0  0  0  0  0  0  0  0  0  0
   10.2489    6.4227   23.0218 N   0  0  0  0  0  0  0  0  0  0  0  0
    7.2472    8.0746   23.5050 C   0  0  0  0  0  0  0  0  0  0  0  0
    9.2051    6.9101   23.4604 C   0  0  0  0  0  0  0  0  0  0  0  0
   11.9646    6.0299   21.4251 C   0  0  0  0  0  0  0  0  0  0  0  0
  1  5  1  0
  1 13  1  0
  2 20  2  0
  2 28  1  0
  2 29  1  0
  3 19  4  0
  3 25  4  0
  4 23  4  0
  4 27  1  0
  4 30  4  0
  5 17  1  0
  6  8  1  0
  6 29  1  0
  7 24  4  0
  7 26  4  0
  8 28  1  0
  9 13  2  0
 10 18  1  0
 10 21  4  0
 10 30  4  0
 11 17  2  0
 12 18  1  0
 13 15  1  0
 14 24  1  0
 15 25  1  0
 16 28  2  0
 17 20  1  0
 19 24  4  0
 20 23  1  0
 21 22  4  0
 22 23  4  0
 25 26  4  0
 27 29  2  0
M  END
$$$$

 Created by Python create_sdf_string function

 30 33  0  0  0  0  0  0  0  0999 V2000
    8.3036    9.8571   18.4133 C   0  0  0  0  0  0  0  0  0  0  0  0
    8.3694    7.6612   22.6703 C   0  0  0  0  0  0  0  0  0  0  0  0
    8.4143    6.6863   16.2273 C   0  0  0  0  0  0  0  0  0  0  0  0
   10.7581    6.5674   21.7636 C   0  0  0  0  0  0  0  0  0  0  0  0
    8.4452    8.7960   19.2958 O   0  0  0  0  0  0  0  0  0  0  0  0
    8.7122    6.7842   24.8569 C   0  0  0  0  0  0  0  0  0  0  0  0
   10.3400    6.1726   14.3081 C   0  0  0  0  0  0  0  0  0  0  0  0
    7.4297    7.5873   24.8962 C   0  0  0  0  0  0  0  0  0  0  0  0
    8.1566   10.0536   16.0516 O   0  0  0  0  0  0  0  0  0  0  0  0
   12.4989    6.2074   20.1776 C   0  0  0  0  0  0  0  0  0  0  0  0
    6.9192    9.1053   20.9073 O   0  0  0  0  0  0  0  0  0  0  0  0
   14.3979    6.0729   18.7784 C   0  0  0  0  0  0  0  0  0  0  0  0
    8.6811    9.5354   16.9998 C   0  0  0  0  0  0  0  0  0  0  0  0
    9.2512    4.2713   13.7653 O   0  0  0  0  0  0  0  0  0  0  0  0
    9.6495    8.6317   16.8332 N   0  0  0  0  0  0  0  0  0  0  0  0
    6.2934    8.6988   23.1988 O   0  0  0  0  0  0  0  0  0  0  0  0
    7.9806    8.6543   20.5437 C   0  0  0  0  0  0  0  0  0  0  0  0
   13.7270    5.7144   19.8610 O   0  0  0  0  0  0  0  0  0  0  0  0
    8.3351    5.5235   15.4478 C   0  0  0  0  0  0  0  0  0  0  0  0
    8.7700    7.8434   21.3915 C   0  0  0  0  0  0  0  0  0  0  0  0
   11.7856    6.8851   19.2401 C   0  0  0  0  0  0  0  0  0  0  0  0
   10.5281    7.4276   19.5649 C   0  0  0  0  0  0  0  0  0  0  0  0
   10.0256    7.2907   20.8484 C   0  0  0  0  0  0  0  0  0  0  0  0
    9.3113    5.3049   14.4911 C   0  0  0  0  0  0  0  0  0  0  0  0
    9.4607    7.5646   16.0139 C   0  0  0  0  0  0  0  0  0  0  0  0
   10.4192    7.3157   15.0955 C   0  0  0  0  0  0  0  0  0  0  0  0
   10.2489    6.4227   23.0218 N   0  0  0  0  0  0  0  0  0  0  0  0
    7.2472    8.0746   23.5050 C   0  0  0  0  0  0  0  0  0  0  0  0
    9.2051    6.9101   23.4604 C   0  0  0  0  0  0  0  0  0  0  0  0
   11.9646    6.0299   21.4251 C   0  0  0  0  0  0  0  0  0  0  0  0
  1  5  1  0
  1 13  1  0
  2 20  2  0
  2 28  1  0
  2 29  1  0
  3 19  4  0
  3 25  4  0
  4 23  4  0
  4 27  1  0
  4 30  4  0
  5 17  1  0
  6  8  1  0
  6 29  1  0
  7 24  4  0
  7 26  4  0
  8 28  1  0
  9 13  2  0
 10 18  1  0
 10 21  4  0
 10 30  4  0
 11 17  2  0
 12 18  1  0
 13 15  1  0
 14 24  1  0
 15 25  1  0
 16 28  2  0
 17 20  1  0
 19 24  4  0
 20 23  1  0
 21 22  4  0
 22 23  4  0
 25 26  4  0
 27 29  2  0
M  END
$$$$

 Created by Python create_sdf_string function

 30 33  0  0  0  0  0  0  0  0999 V2000
    8.3036    9.8571   18.4133 C   0  0  0  0  0  0  0  0  0  0  0  0
    8.3694    7.6612   22.6703 C   0  0  0  0  0  0  0  0  0  0  0  0
    8.4143    6.6863   16.2273 C   0  0  0  0  0  0  0  0  0  0  0  0
   10.7581    6.5674   21.7636 C   0  0  0  0  0  0  0  0  0  0  0  0
    8.4452    8.7960   19.2958 O   0  0  0  0  0  0  0  0  0  0  0  0
    8.7122    6.7842   24.8569 C   0  0  0  0  0  0  0  0  0  0  0  0
   10.3400    6.1726   14.3081 C   0  0  0  0  0  0  0  0  0  0  0  0
    7.4297    7.5873   24.8962 C   0  0  0  0  0  0  0  0  0  0  0  0
    8.1566   10.0536   16.0516 O   0  0  0  0  0  0  0  0  0  0  0  0
   12.4989    6.2074   20.1776 C   0  0  0  0  0  0  0  0  0  0  0  0
    6.9192    9.1053   20.9073 O   0  0  0  0  0  0  0  0  0  0  0  0
   14.3979    6.0729   18.7784 C   0  0  0  0  0  0  0  0  0  0  0  0
    8.6811    9.5354   16.9998 C   0  0  0  0  0  0  0  0  0  0  0  0
    9.2512    4.2713   13.7653 O   0  0  0  0  0  0  0  0  0  0  0  0
    9.6495    8.6317   16.8332 N   0  0  0  0  0  0  0  0  0  0  0  0
    6.2934    8.6988   23.1988 O   0  0  0  0  0  0  0  0  0  0  0  0
    7.9806    8.6543   20.5437 C   0  0  0  0  0  0  0  0  0  0  0  0
   13.7270    5.7144   19.8610 O   0  0  0  0  0  0  0  0  0  0  0  0
    8.3351    5.5235   15.4478 C   0  0  0  0  0  0  0  0  0  0  0  0
    8.7700    7.8434   21.3915 C   0  0  0  0  0  0  0  0  0  0  0  0
   11.7856    6.8851   19.2401 C   0  0  0  0  0  0  0  0  0  0  0  0
   10.5281    7.4276   19.5649 C   0  0  0  0  0  0  0  0  0  0  0  0
   10.0256    7.2907   20.8484 C   0  0  0  0  0  0  0  0  0  0  0  0
    9.3113    5.3049   14.4911 C   0  0  0  0  0  0  0  0  0  0  0  0
    9.4607    7.5646   16.0139 C   0  0  0  0  0  0  0  0  0  0  0  0
   10.4192    7.3157   15.0955 C   0  0  0  0  0  0  0  0  0  0  0  0
   10.2489    6.4227   23.0218 N   0  0  0  0  0  0  0  0  0  0  0  0
    7.2472    8.0746   23.5050 C   0  0  0  0  0  0  0  0  0  0  0  0
    9.2051    6.9101   23.4604 C   0  0  0  0  0  0  0  0  0  0  0  0
   11.9646    6.0299   21.4251 C   0  0  0  0  0  0  0  0  0  0  0  0
  1  5  1  0
  1 13  1  0
  2 20  2  0
  2 28  1  0
  2 29  1  0
  3 19  4  0
  3 25  4  0
  4 23  4  0
  4 27  1  0
  4 30  4  0
  5 17  1  0
  6  8  1  0
  6 29  1  0
  7 24  4  0
  7 26  4  0
  8 28  1  0
  9 13  2  0
 10 18  1  0
 10 21  4  0
 10 30  4  0
 11 17  2  0
 12 18  1  0
 13 15  1  0
 14 24  1  0
 15 25  1  0
 16 28  2  0
 17 20  1  0
 19 24  4  0
 20 23  1  0
 21 22  4  0
 22 23  4  0
 25 26  4  0
 27 29  2  0
M  END
$$$$

 Created by Python create_sdf_string function

 30 33  0  0  0  0  0  0  0  0999 V2000
    8.3036    9.8571   18.4133 C   0  0  0  0  0  0  0  0  0  0  0  0
    8.3694    7.6612   22.6703 C   0  0  0  0  0  0  0  0  0  0  0  0
    8.4143    6.6863   16.2273 C   0  0  0  0  0  0  0  0  0  0  0  0
   10.7581    6.5674   21.7636 C   0  0  0  0  0  0  0  0  0  0  0  0
    8.4452    8.7960   19.2958 O   0  0  0  0  0  0  0  0  0  0  0  0
    8.7122    6.7842   24.8569 C   0  0  0  0  0  0  0  0  0  0  0  0
   10.3400    6.1726   14.3081 C   0  0  0  0  0  0  0  0  0  0  0  0
    7.4297    7.5873   24.8962 C   0  0  0  0  0  0  0  0  0  0  0  0
    8.1566   10.0536   16.0516 O   0  0  0  0  0  0  0  0  0  0  0  0
   12.4989    6.2074   20.1776 C   0  0  0  0  0  0  0  0  0  0  0  0
    6.9192    9.1053   20.9073 O   0  0  0  0  0  0  0  0  0  0  0  0
   14.3979    6.0729   18.7784 C   0  0  0  0  0  0  0  0  0  0  0  0
    8.6811    9.5354   16.9998 C   0  0  0  0  0  0  0  0  0  0  0  0
    9.2512    4.2713   13.7653 O   0  0  0  0  0  0  0  0  0  0  0  0
    9.6495    8.6317   16.8332 N   0  0  0  0  0  0  0  0  0  0  0  0
    6.2934    8.6988   23.1988 O   0  0  0  0  0  0  0  0  0  0  0  0
    7.9806    8.6543   20.5437 C   0  0  0  0  0  0  0  0  0  0  0  0
   13.7270    5.7144   19.8610 O   0  0  0  0  0  0  0  0  0  0  0  0
    8.3351    5.5235   15.4478 C   0  0  0  0  0  0  0  0  0  0  0  0
    8.7700    7.8434   21.3915 C   0  0  0  0  0  0  0  0  0  0  0  0
   11.7856    6.8851   19.2401 C   0  0  0  0  0  0  0  0  0  0  0  0
   10.5281    7.4276   19.5649 C   0  0  0  0  0  0  0  0  0  0  0  0
   10.0256    7.2907   20.8484 C   0  0  0  0  0  0  0  0  0  0  0  0
    9.3113    5.3049   14.4911 C   0  0  0  0  0  0  0  0  0  0  0  0
    9.4607    7.5646   16.0139 C   0  0  0  0  0  0  0  0  0  0  0  0
   10.4192    7.3157   15.0955 C   0  0  0  0  0  0  0  0  0  0  0  0
   10.2489    6.4227   23.0218 N   0  0  0  0  0  0  0  0  0  0  0  0
    7.2472    8.0746   23.5050 C   0  0  0  0  0  0  0  0  0  0  0  0
    9.2051    6.9101   23.4604 C   0  0  0  0  0  0  0  0  0  0  0  0
   11.9646    6.0299   21.4251 C   0  0  0  0  0  0  0  0  0  0  0  0
  1  5  1  0
  1 13  1  0
  2 20  2  0
  2 28  1  0
  2 29  1  0
  3 19  4  0
  3 25  4  0
  4 23  4  0
  4 27  1  0
  4 30  4  0
  5 17  1  0
  6  8  1  0
  6 29  1  0
  7 24  4  0
  7 26  4  0
  8 28  1  0
  9 13  2  0
 10 18  1  0
 10 21  4  0
 10 30  4  0
 11 17  2  0
 12 18  1  0
 13 15  1  0
 14 24  1  0
 15 25  1  0
 16 28  2  0
 17 20  1  0
 19 24  4  0
 20 23  1  0
 21 22  4  0
 22 23  4  0
 25 26  4  0
 27 29  2  0
M  END
$$$$

 Created by Python create_sdf_string function

 30 33  0  0  0  0  0  0  0  0999 V2000
    8.3036    9.8571   18.4133 C   0  0  0  0  0  0  0  0  0  0  0  0
    8.3694    7.6612   22.6703 C   0  0  0  0  0  0  0  0  0  0  0  0
    8.4143    6.6863   16.2273 C   0  0  0  0  0  0  0  0  0  0  0  0
   10.7581    6.5674   21.7636 C   0  0  0  0  0  0  0  0  0  0  0  0
    8.4452    8.7960   19.2958 O   0  0  0  0  0  0  0  0  0  0  0  0
    8.7122    6.7842   24.8569 C   0  0  0  0  0  0  0  0  0  0  0  0
   10.3400    6.1726   14.3081 C   0  0  0  0  0  0  0  0  0  0  0  0
    7.4297    7.5873   24.8962 C   0  0  0  0  0  0  0  0  0  0  0  0
    8.1566   10.0536   16.0516 O   0  0  0  0  0  0  0  0  0  0  0  0
   12.4989    6.2074   20.1776 C   0  0  0  0  0  0  0  0  0  0  0  0
    6.9192    9.1053   20.9073 O   0  0  0  0  0  0  0  0  0  0  0  0
   14.3979    6.0729   18.7784 C   0  0  0  0  0  0  0  0  0  0  0  0
    8.6811    9.5354   16.9998 C   0  0  0  0  0  0  0  0  0  0  0  0
    9.2512    4.2713   13.7653 O   0  0  0  0  0  0  0  0  0  0  0  0
    9.6495    8.6317   16.8332 N   0  0  0  0  0  0  0  0  0  0  0  0
    6.2934    8.6988   23.1988 O   0  0  0  0  0  0  0  0  0  0  0  0
    7.9806    8.6543   20.5437 C   0  0  0  0  0  0  0  0  0  0  0  0
   13.7270    5.7144   19.8610 O   0  0  0  0  0  0  0  0  0  0  0  0
    8.3351    5.5235   15.4478 C   0  0  0  0  0  0  0  0  0  0  0  0
    8.7700    7.8434   21.3915 C   0  0  0  0  0  0  0  0  0  0  0  0
   11.7856    6.8851   19.2401 C   0  0  0  0  0  0  0  0  0  0  0  0
   10.5281    7.4276   19.5649 C   0  0  0  0  0  0  0  0  0  0  0  0
   10.0256    7.2907   20.8484 C   0  0  0  0  0  0  0  0  0  0  0  0
    9.3113    5.3049   14.4911 C   0  0  0  0  0  0  0  0  0  0  0  0
    9.4607    7.5646   16.0139 C   0  0  0  0  0  0  0  0  0  0  0  0
   10.4192    7.3157   15.0955 C   0  0  0  0  0  0  0  0  0  0  0  0
   10.2489    6.4227   23.0218 N   0  0  0  0  0  0  0  0  0  0  0  0
    7.2472    8.0746   23.5050 C   0  0  0  0  0  0  0  0  0  0  0  0
    9.2051    6.9101   23.4604 C   0  0  0  0  0  0  0  0  0  0  0  0
   11.9646    6.0299   21.4251 C   0  0  0  0  0  0  0  0  0  0  0  0
  1  5  1  0
  1 13  1  0
  2 20  2  0
  2 28  1  0
  2 29  1  0
  3 19  4  0
  3 25  4  0
  4 23  4  0
  4 27  1  0
  4 30  4  0
  5 17  1  0
  6  8  1  0
  6 29  1  0
  7 24  4  0
  7 26  4  0
  8 28  1  0
  9 13  2  0
 10 18  1  0
 10 21  4  0
 10 30  4  0
 11 17  2  0
 12 18  1  0
 13 15  1  0
 14 24  1  0
 15 25  1  0
 16 28  2  0
 17 20  1  0
 19 24  4  0
 20 23  1  0
 21 22  4  0
 22 23  4  0
 25 26  4  0
 27 29  2  0
M  END
$$$$

 Created by Python create_sdf_string function

 30 33  0  0  0  0  0  0  0  0999 V2000
    8.3036    9.8571   18.4133 C   0  0  0  0  0  0  0  0  0  0  0  0
    8.3694    7.6612   22.6703 C   0  0  0  0  0  0  0  0  0  0  0  0
    8.4143    6.6863   16.2273 C   0  0  0  0  0  0  0  0  0  0  0  0
   10.7581    6.5674   21.7636 C   0  0  0  0  0  0  0  0  0  0  0  0
    8.4452    8.7960   19.2958 O   0  0  0  0  0  0  0  0  0  0  0  0
    8.7122    6.7842   24.8569 C   0  0  0  0  0  0  0  0  0  0  0  0
   10.3400    6.1726   14.3081 C   0  0  0  0  0  0  0  0  0  0  0  0
    7.4297    7.5873   24.8962 C   0  0  0  0  0  0  0  0  0  0  0  0
    8.1566   10.0536   16.0516 O   0  0  0  0  0  0  0  0  0  0  0  0
   12.4989    6.2074   20.1776 C   0  0  0  0  0  0  0  0  0  0  0  0
    6.9192    9.1053   20.9073 O   0  0  0  0  0  0  0  0  0  0  0  0
   14.3979    6.0729   18.7784 C   0  0  0  0  0  0  0  0  0  0  0  0
    8.6811    9.5354   16.9998 C   0  0  0  0  0  0  0  0  0  0  0  0
    9.2512    4.2713   13.7653 O   0  0  0  0  0  0  0  0  0  0  0  0
    9.6495    8.6317   16.8332 N   0  0  0  0  0  0  0  0  0  0  0  0
    6.2934    8.6988   23.1988 O   0  0  0  0  0  0  0  0  0  0  0  0
    7.9806    8.6543   20.5437 C   0  0  0  0  0  0  0  0  0  0  0  0
   13.7270    5.7144   19.8610 O   0  0  0  0  0  0  0  0  0  0  0  0
    8.3351    5.5235   15.4478 C   0  0  0  0  0  0  0  0  0  0  0  0
    8.7700    7.8434   21.3915 C   0  0  0  0  0  0  0  0  0  0  0  0
   11.7856    6.8851   19.2401 C   0  0  0  0  0  0  0  0  0  0  0  0
   10.5281    7.4276   19.5649 C   0  0  0  0  0  0  0  0  0  0  0  0
   10.0256    7.2907   20.8484 C   0  0  0  0  0  0  0  0  0  0  0  0
    9.3113    5.3049   14.4911 C   0  0  0  0  0  0  0  0  0  0  0  0
    9.4607    7.5646   16.0139 C   0  0  0  0  0  0  0  0  0  0  0  0
   10.4192    7.3157   15.0955 C   0  0  0  0  0  0  0  0  0  0  0  0
   10.2489    6.4227   23.0218 N   0  0  0  0  0  0  0  0  0  0  0  0
    7.2472    8.0746   23.5050 C   0  0  0  0  0  0  0  0  0  0  0  0
    9.2051    6.9101   23.4604 C   0  0  0  0  0  0  0  0  0  0  0  0
   11.9646    6.0299   21.4251 C   0  0  0  0  0  0  0  0  0  0  0  0
  1  5  1  0
  1 13  1  0
  2 20  2  0
  2 28  1  0
  2 29  1  0
  3 19  4  0
  3 25  4  0
  4 23  4  0
  4 27  1  0
  4 30  4  0
  5 17  1  0
  6  8  1  0
  6 29  1  0
  7 24  4  0
  7 26  4  0
  8 28  1  0
  9 13  2  0
 10 18  1  0
 10 21  4  0
 10 30  4  0
 11 17  2  0
 12 18  1  0
 13 15  1  0
 14 24  1  0
 15 25  1  0
 16 28  2  0
 17 20  1  0
 19 24  4  0
 20 23  1  0
 21 22  4  0
 22 23  4  0
 25 26  4  0
 27 29  2  0
M  END
$$$$

 Created by Python create_sdf_string function

 30 33  0  0  0  0  0  0  0  0999 V2000
    8.3036    9.8571   18.4133 C   0  0  0  0  0  0  0  0  0  0  0  0
    8.3694    7.6612   22.6703 C   0  0  0  0  0  0  0  0  0  0  0  0
    8.4143    6.6863   16.2273 C   0  0  0  0  0  0  0  0  0  0  0  0
   10.7581    6.5674   21.7636 C   0  0  0  0  0  0  0  0  0  0  0  0
    8.4452    8.7960   19.2958 O   0  0  0  0  0  0  0  0  0  0  0  0
    8.7122    6.7842   24.8569 C   0  0  0  0  0  0  0  0  0  0  0  0
   10.3400    6.1726   14.3081 C   0  0  0  0  0  0  0  0  0  0  0  0
    7.4297    7.5873   24.8962 C   0  0  0  0  0  0  0  0  0  0  0  0
    8.1566   10.0536   16.0516 O   0  0  0  0  0  0  0  0  0  0  0  0
   12.4989    6.2074   20.1776 C   0  0  0  0  0  0  0  0  0  0  0  0
    6.9192    9.1053   20.9073 O   0  0  0  0  0  0  0  0  0  0  0  0
   14.3979    6.0729   18.7784 C   0  0  0  0  0  0  0  0  0  0  0  0
    8.6811    9.5354   16.9998 C   0  0  0  0  0  0  0  0  0  0  0  0
    9.2512    4.2713   13.7653 O   0  0  0  0  0  0  0  0  0  0  0  0
    9.6495    8.6317   16.8332 N   0  0  0  0  0  0  0  0  0  0  0  0
    6.2934    8.6988   23.1988 O   0  0  0  0  0  0  0  0  0  0  0  0
    7.9806    8.6543   20.5437 C   0  0  0  0  0  0  0  0  0  0  0  0
   13.7270    5.7144   19.8610 O   0  0  0  0  0  0  0  0  0  0  0  0
    8.3351    5.5235   15.4478 C   0  0  0  0  0  0  0  0  0  0  0  0
    8.7700    7.8434   21.3915 C   0  0  0  0  0  0  0  0  0  0  0  0
   11.7856    6.8851   19.2401 C   0  0  0  0  0  0  0  0  0  0  0  0
   10.5281    7.4276   19.5649 C   0  0  0  0  0  0  0  0  0  0  0  0
   10.0256    7.2907   20.8484 C   0  0  0  0  0  0  0  0  0  0  0  0
    9.3113    5.3049   14.4911 C   0  0  0  0  0  0  0  0  0  0  0  0
    9.4607    7.5646   16.0139 C   0  0  0  0  0  0  0  0  0  0  0  0
   10.4192    7.3157   15.0955 C   0  0  0  0  0  0  0  0  0  0  0  0
   10.2489    6.4227   23.0218 N   0  0  0  0  0  0  0  0  0  0  0  0
    7.2472    8.0746   23.5050 C   0  0  0  0  0  0  0  0  0  0  0  0
    9.2051    6.9101   23.4604 C   0  0  0  0  0  0  0  0  0  0  0  0
   11.9646    6.0299   21.4251 C   0  0  0  0  0  0  0  0  0  0  0  0
  1  5  1  0
  1 13  1  0
  2 20  2  0
  2 28  1  0
  2 29  1  0
  3 19  4  0
  3 25  4  0
  4 23  4  0
  4 27  1  0
  4 30  4  0
  5 17  1  0
  6  8  1  0
  6 29  1  0
  7 24  4  0
  7 26  4  0
  8 28  1  0
  9 13  2  0
 10 18  1  0
 10 21  4  0
 10 30  4  0
 11 17  2  0
 12 18  1  0
 13 15  1  0
 14 24  1  0
 15 25  1  0
 16 28  2  0
 17 20  1  0
 19 24  4  0
 20 23  1  0
 21 22  4  0
 22 23  4  0
 25 26  4  0
 27 29  2  0
M  END
$$$$

 Created by Python create_sdf_string function

 30 33  0  0  0  0  0  0  0  0999 V2000
    8.3036    9.8571   18.4133 C   0  0  0  0  0  0  0  0  0  0  0  0
    8.3694    7.6612   22.6703 C   0  0  0  0  0  0  0  0  0  0  0  0
    8.4143    6.6863   16.2273 C   0  0  0  0  0  0  0  0  0  0  0  0
   10.7581    6.5674   21.7636 C   0  0  0  0  0  0  0  0  0  0  0  0
    8.4452    8.7960   19.2958 O   0  0  0  0  0  0  0  0  0  0  0  0
    8.7122    6.7842   24.8569 C   0  0  0  0  0  0  0  0  0  0  0  0
   10.3400    6.1726   14.3081 C   0  0  0  0  0  0  0  0  0  0  0  0
    7.4297    7.5873   24.8962 C   0  0  0  0  0  0  0  0  0  0  0  0
    8.1566   10.0536   16.0516 O   0  0  0  0  0  0  0  0  0  0  0  0
   12.4989    6.2074   20.1776 C   0  0  0  0  0  0  0  0  0  0  0  0
    6.9192    9.1053   20.9073 O   0  0  0  0  0  0  0  0  0  0  0  0
   14.3979    6.0729   18.7784 C   0  0  0  0  0  0  0  0  0  0  0  0
    8.6811    9.5354   16.9998 C   0  0  0  0  0  0  0  0  0  0  0  0
    9.2512    4.2713   13.7653 O   0  0  0  0  0  0  0  0  0  0  0  0
    9.6495    8.6317   16.8332 N   0  0  0  0  0  0  0  0  0  0  0  0
    6.2934    8.6988   23.1988 O   0  0  0  0  0  0  0  0  0  0  0  0
    7.9806    8.6543   20.5437 C   0  0  0  0  0  0  0  0  0  0  0  0
   13.7270    5.7144   19.8610 O   0  0  0  0  0  0  0  0  0  0  0  0
    8.3351    5.5235   15.4478 C   0  0  0  0  0  0  0  0  0  0  0  0
    8.7700    7.8434   21.3915 C   0  0  0  0  0  0  0  0  0  0  0  0
   11.7856    6.8851   19.2401 C   0  0  0  0  0  0  0  0  0  0  0  0
   10.5281    7.4276   19.5649 C   0  0  0  0  0  0  0  0  0  0  0  0
   10.0256    7.2907   20.8484 C   0  0  0  0  0  0  0  0  0  0  0  0
    9.3113    5.3049   14.4911 C   0  0  0  0  0  0  0  0  0  0  0  0
    9.4607    7.5646   16.0139 C   0  0  0  0  0  0  0  0  0  0  0  0
   10.4192    7.3157   15.0955 C   0  0  0  0  0  0  0  0  0  0  0  0
   10.2489    6.4227   23.0218 N   0  0  0  0  0  0  0  0  0  0  0  0
    7.2472    8.0746   23.5050 C   0  0  0  0  0  0  0  0  0  0  0  0
    9.2051    6.9101   23.4604 C   0  0  0  0  0  0  0  0  0  0  0  0
   11.9646    6.0299   21.4251 C   0  0  0  0  0  0  0  0  0  0  0  0
  1  5  1  0
  1 13  1  0
  2 20  2  0
  2 28  1  0
  2 29  1  0
  3 19  4  0
  3 25  4  0
  4 23  4  0
  4 27  1  0
  4 30  4  0
  5 17  1  0
  6  8  1  0
  6 29  1  0
  7 24  4  0
  7 26  4  0
  8 28  1  0
  9 13  2  0
 10 18  1  0
 10 21  4  0
 10 30  4  0
 11 17  2  0
 12 18  1  0
 13 15  1  0
 14 24  1  0
 15 25  1  0
 16 28  2  0
 17 20  1  0
 19 24  4  0
 20 23  1  0
 21 22  4  0
 22 23  4  0
 25 26  4  0
 27 29  2  0
M  END
$$$$

 Created by Python create_sdf_string function

 30 33  0  0  0  0  0  0  0  0999 V2000
    8.3036    9.8571   18.4133 C   0  0  0  0  0  0  0  0  0  0  0  0
    8.3694    7.6612   22.6703 C   0  0  0  0  0  0  0  0  0  0  0  0
    8.4143    6.6863   16.2273 C   0  0  0  0  0  0  0  0  0  0  0  0
   10.7581    6.5674   21.7636 C   0  0  0  0  0  0  0  0  0  0  0  0
    8.4452    8.7960   19.2958 O   0  0  0  0  0  0  0  0  0  0  0  0
    8.7122    6.7842   24.8569 C   0  0  0  0  0  0  0  0  0  0  0  0
   10.3400    6.1726   14.3081 C   0  0  0  0  0  0  0  0  0  0  0  0
    7.4297    7.5873   24.8962 C   0  0  0  0  0  0  0  0  0  0  0  0
    8.1566   10.0536   16.0516 O   0  0  0  0  0  0  0  0  0  0  0  0
   12.4989    6.2074   20.1776 C   0  0  0  0  0  0  0  0  0  0  0  0
    6.9192    9.1053   20.9073 O   0  0  0  0  0  0  0  0  0  0  0  0
   14.3979    6.0729   18.7784 C   0  0  0  0  0  0  0  0  0  0  0  0
    8.6811    9.5354   16.9998 C   0  0  0  0  0  0  0  0  0  0  0  0
    9.2512    4.2713   13.7653 O   0  0  0  0  0  0  0  0  0  0  0  0
    9.6495    8.6317   16.8332 N   0  0  0  0  0  0  0  0  0  0  0  0
    6.2934    8.6988   23.1988 O   0  0  0  0  0  0  0  0  0  0  0  0
    7.9806    8.6543   20.5437 C   0  0  0  0  0  0  0  0  0  0  0  0
   13.7270    5.7144   19.8610 O   0  0  0  0  0  0  0  0  0  0  0  0
    8.3351    5.5235   15.4478 C   0  0  0  0  0  0  0  0  0  0  0  0
    8.7700    7.8434   21.3915 C   0  0  0  0  0  0  0  0  0  0  0  0
   11.7856    6.8851   19.2401 C   0  0  0  0  0  0  0  0  0  0  0  0
   10.5281    7.4276   19.5649 C   0  0  0  0  0  0  0  0  0  0  0  0
   10.0256    7.2907   20.8484 C   0  0  0  0  0  0  0  0  0  0  0  0
    9.3113    5.3049   14.4911 C   0  0  0  0  0  0  0  0  0  0  0  0
    9.4607    7.5646   16.0139 C   0  0  0  0  0  0  0  0  0  0  0  0
   10.4192    7.3157   15.0955 C   0  0  0  0  0  0  0  0  0  0  0  0
   10.2489    6.4227   23.0218 N   0  0  0  0  0  0  0  0  0  0  0  0
    7.2472    8.0746   23.5050 C   0  0  0  0  0  0  0  0  0  0  0  0
    9.2051    6.9101   23.4604 C   0  0  0  0  0  0  0  0  0  0  0  0
   11.9646    6.0299   21.4251 C   0  0  0  0  0  0  0  0  0  0  0  0
  1  5  1  0
  1 13  1  0
  2 20  2  0
  2 28  1  0
  2 29  1  0
  3 19  4  0
  3 25  4  0
  4 23  4  0
  4 27  1  0
  4 30  4  0
  5 17  1  0
  6  8  1  0
  6 29  1  0
  7 24  4  0
  7 26  4  0
  8 28  1  0
  9 13  2  0
 10 18  1  0
 10 21  4  0
 10 30  4  0
 11 17  2  0
 12 18  1  0
 13 15  1  0
 14 24  1  0
 15 25  1  0
 16 28  2  0
 17 20  1  0
 19 24  4  0
 20 23  1  0
 21 22  4  0
 22 23  4  0
 25 26  4  0
 27 29  2  0
M  END
$$$$

 Created by Python create_sdf_string function

 30 33  0  0  0  0  0  0  0  0999 V2000
    8.3036    9.8571   18.4133 C   0  0  0  0  0  0  0  0  0  0  0  0
    8.3694    7.6612   22.6703 C   0  0  0  0  0  0  0  0  0  0  0  0
    8.4143    6.6863   16.2273 C   0  0  0  0  0  0  0  0  0  0  0  0
   10.7581    6.5674   21.7636 C   0  0  0  0  0  0  0  0  0  0  0  0
    8.4452    8.7960   19.2958 O   0  0  0  0  0  0  0  0  0  0  0  0
    8.7122    6.7842   24.8569 C   0  0  0  0  0  0  0  0  0  0  0  0
   10.3400    6.1726   14.3081 C   0  0  0  0  0  0  0  0  0  0  0  0
    7.4297    7.5873   24.8962 C   0  0  0  0  0  0  0  0  0  0  0  0
    8.1566   10.0536   16.0516 O   0  0  0  0  0  0  0  0  0  0  0  0
   12.4989    6.2074   20.1776 C   0  0  0  0  0  0  0  0  0  0  0  0
    6.9192    9.1053   20.9073 O   0  0  0  0  0  0  0  0  0  0  0  0
   14.3979    6.0729   18.7784 C   0  0  0  0  0  0  0  0  0  0  0  0
    8.6811    9.5354   16.9998 C   0  0  0  0  0  0  0  0  0  0  0  0
    9.2512    4.2713   13.7653 O   0  0  0  0  0  0  0  0  0  0  0  0
    9.6495    8.6317   16.8332 N   0  0  0  0  0  0  0  0  0  0  0  0
    6.2934    8.6988   23.1988 O   0  0  0  0  0  0  0  0  0  0  0  0
    7.9806    8.6543   20.5437 C   0  0  0  0  0  0  0  0  0  0  0  0
   13.7270    5.7144   19.8610 O   0  0  0  0  0  0  0  0  0  0  0  0
    8.3351    5.5235   15.4478 C   0  0  0  0  0  0  0  0  0  0  0  0
    8.7700    7.8434   21.3915 C   0  0  0  0  0  0  0  0  0  0  0  0
   11.7856    6.8851   19.2401 C   0  0  0  0  0  0  0  0  0  0  0  0
   10.5281    7.4276   19.5649 C   0  0  0  0  0  0  0  0  0  0  0  0
   10.0256    7.2907   20.8484 C   0  0  0  0  0  0  0  0  0  0  0  0
    9.3113    5.3049   14.4911 C   0  0  0  0  0  0  0  0  0  0  0  0
    9.4607    7.5646   16.0139 C   0  0  0  0  0  0  0  0  0  0  0  0
   10.4192    7.3157   15.0955 C   0  0  0  0  0  0  0  0  0  0  0  0
   10.2489    6.4227   23.0218 N   0  0  0  0  0  0  0  0  0  0  0  0
    7.2472    8.0746   23.5050 C   0  0  0  0  0  0  0  0  0  0  0  0
    9.2051    6.9101   23.4604 C   0  0  0  0  0  0  0  0  0  0  0  0
   11.9646    6.0299   21.4251 C   0  0  0  0  0  0  0  0  0  0  0  0
  1  5  1  0
  1 13  1  0
  2 20  2  0
  2 28  1  0
  2 29  1  0
  3 19  4  0
  3 25  4  0
  4 23  4  0
  4 27  1  0
  4 30  4  0
  5 17  1  0
  6  8  1  0
  6 29  1  0
  7 24  4  0
  7 26  4  0
  8 28  1  0
  9 13  2  0
 10 18  1  0
 10 21  4  0
 10 30  4  0
 11 17  2  0
 12 18  1  0
 13 15  1  0
 14 24  1  0
 15 25  1  0
 16 28  2  0
 17 20  1  0
 19 24  4  0
 20 23  1  0
 21 22  4  0
 22 23  4  0
 25 26  4  0
 27 29  2  0
M  END
$$$$

 Created by Python create_sdf_string function

 30 33  0  0  0  0  0  0  0  0999 V2000
    8.3036    9.8571   18.4133 C   0  0  0  0  0  0  0  0  0  0  0  0
    8.3694    7.6612   22.6703 C   0  0  0  0  0  0  0  0  0  0  0  0
    8.4143    6.6863   16.2273 C   0  0  0  0  0  0  0  0  0  0  0  0
   10.7581    6.5674   21.7636 C   0  0  0  0  0  0  0  0  0  0  0  0
    8.4452    8.7960   19.2958 O   0  0  0  0  0  0  0  0  0  0  0  0
    8.7122    6.7842   24.8569 C   0  0  0  0  0  0  0  0  0  0  0  0
   10.3400    6.1726   14.3081 C   0  0  0  0  0  0  0  0  0  0  0  0
    7.4297    7.5873   24.8962 C   0  0  0  0  0  0  0  0  0  0  0  0
    8.1566   10.0536   16.0516 O   0  0  0  0  0  0  0  0  0  0  0  0
   12.4989    6.2074   20.1776 C   0  0  0  0  0  0  0  0  0  0  0  0
    6.9192    9.1053   20.9073 O   0  0  0  0  0  0  0  0  0  0  0  0
   14.3979    6.0729   18.7784 C   0  0  0  0  0  0  0  0  0  0  0  0
    8.6811    9.5354   16.9998 C   0  0  0  0  0  0  0  0  0  0  0  0
    9.2512    4.2713   13.7653 O   0  0  0  0  0  0  0  0  0  0  0  0
    9.6495    8.6317   16.8332 N   0  0  0  0  0  0  0  0  0  0  0  0
    6.2934    8.6988   23.1988 O   0  0  0  0  0  0  0  0  0  0  0  0
    7.9806    8.6543   20.5437 C   0  0  0  0  0  0  0  0  0  0  0  0
   13.7270    5.7144   19.8610 O   0  0  0  0  0  0  0  0  0  0  0  0
    8.3351    5.5235   15.4478 C   0  0  0  0  0  0  0  0  0  0  0  0
    8.7700    7.8434   21.3915 C   0  0  0  0  0  0  0  0  0  0  0  0
   11.7856    6.8851   19.2401 C   0  0  0  0  0  0  0  0  0  0  0  0
   10.5281    7.4276   19.5649 C   0  0  0  0  0  0  0  0  0  0  0  0
   10.0256    7.2907   20.8484 C   0  0  0  0  0  0  0  0  0  0  0  0
    9.3113    5.3049   14.4911 C   0  0  0  0  0  0  0  0  0  0  0  0
    9.4607    7.5646   16.0139 C   0  0  0  0  0  0  0  0  0  0  0  0
   10.4192    7.3157   15.0955 C   0  0  0  0  0  0  0  0  0  0  0  0
   10.2489    6.4227   23.0218 N   0  0  0  0  0  0  0  0  0  0  0  0
    7.2472    8.0746   23.5050 C   0  0  0  0  0  0  0  0  0  0  0  0
    9.2051    6.9101   23.4604 C   0  0  0  0  0  0  0  0  0  0  0  0
   11.9646    6.0299   21.4251 C   0  0  0  0  0  0  0  0  0  0  0  0
  1  5  1  0
  1 13  1  0
  2 20  2  0
  2 28  1  0
  2 29  1  0
  3 19  4  0
  3 25  4  0
  4 23  4  0
  4 27  1  0
  4 30  4  0
  5 17  1  0
  6  8  1  0
  6 29  1  0
  7 24  4  0
  7 26  4  0
  8 28  1  0
  9 13  2  0
 10 18  1  0
 10 21  4  0
 10 30  4  0
 11 17  2  0
 12 18  1  0
 13 15  1  0
 14 24  1  0
 15 25  1  0
 16 28  2  0
 17 20  1  0
 19 24  4  0
 20 23  1  0
 21 22  4  0
 22 23  4  0
 25 26  4  0
 27 29  2  0
M  END
$$$$

 Created by Python create_sdf_string function

 30 33  0  0  0  0  0  0  0  0999 V2000
    8.3036    9.8571   18.4133 C   0  0  0  0  0  0  0  0  0  0  0  0
    8.3694    7.6612   22.6703 C   0  0  0  0  0  0  0  0  0  0  0  0
    8.4143    6.6863   16.2273 C   0  0  0  0  0  0  0  0  0  0  0  0
   10.7581    6.5674   21.7636 C   0  0  0  0  0  0  0  0  0  0  0  0
    8.4452    8.7960   19.2958 O   0  0  0  0  0  0  0  0  0  0  0  0
    8.7122    6.7842   24.8569 C   0  0  0  0  0  0  0  0  0  0  0  0
   10.3400    6.1726   14.3081 C   0  0  0  0  0  0  0  0  0  0  0  0
    7.4297    7.5873   24.8962 C   0  0  0  0  0  0  0  0  0  0  0  0
    8.1566   10.0536   16.0516 O   0  0  0  0  0  0  0  0  0  0  0  0
   12.4989    6.2074   20.1776 C   0  0  0  0  0  0  0  0  0  0  0  0
    6.9192    9.1053   20.9073 O   0  0  0  0  0  0  0  0  0  0  0  0
   14.3979    6.0729   18.7784 C   0  0  0  0  0  0  0  0  0  0  0  0
    8.6811    9.5354   16.9998 C   0  0  0  0  0  0  0  0  0  0  0  0
    9.2512    4.2713   13.7653 O   0  0  0  0  0  0  0  0  0  0  0  0
    9.6495    8.6317   16.8332 N   0  0  0  0  0  0  0  0  0  0  0  0
    6.2934    8.6988   23.1988 O   0  0  0  0  0  0  0  0  0  0  0  0
    7.9806    8.6543   20.5437 C   0  0  0  0  0  0  0  0  0  0  0  0
   13.7270    5.7144   19.8610 O   0  0  0  0  0  0  0  0  0  0  0  0
    8.3351    5.5235   15.4478 C   0  0  0  0  0  0  0  0  0  0  0  0
    8.7700    7.8434   21.3915 C   0  0  0  0  0  0  0  0  0  0  0  0
   11.7856    6.8851   19.2401 C   0  0  0  0  0  0  0  0  0  0  0  0
   10.5281    7.4276   19.5649 C   0  0  0  0  0  0  0  0  0  0  0  0
   10.0256    7.2907   20.8484 C   0  0  0  0  0  0  0  0  0  0  0  0
    9.3113    5.3049   14.4911 C   0  0  0  0  0  0  0  0  0  0  0  0
    9.4607    7.5646   16.0139 C   0  0  0  0  0  0  0  0  0  0  0  0
   10.4192    7.3157   15.0955 C   0  0  0  0  0  0  0  0  0  0  0  0
   10.2489    6.4227   23.0218 N   0  0  0  0  0  0  0  0  0  0  0  0
    7.2472    8.0746   23.5050 C   0  0  0  0  0  0  0  0  0  0  0  0
    9.2051    6.9101   23.4604 C   0  0  0  0  0  0  0  0  0  0  0  0
   11.9646    6.0299   21.4251 C   0  0  0  0  0  0  0  0  0  0  0  0
  1  5  1  0
  1 13  1  0
  2 20  2  0
  2 28  1  0
  2 29  1  0
  3 19  4  0
  3 25  4  0
  4 23  4  0
  4 27  1  0
  4 30  4  0
  5 17  1  0
  6  8  1  0
  6 29  1  0
  7 24  4  0
  7 26  4  0
  8 28  1  0
  9 13  2  0
 10 18  1  0
 10 21  4  0
 10 30  4  0
 11 17  2  0
 12 18  1  0
 13 15  1  0
 14 24  1  0
 15 25  1  0
 16 28  2  0
 17 20  1  0
 19 24  4  0
 20 23  1  0
 21 22  4  0
 22 23  4  0
 25 26  4  0
 27 29  2  0
M  END
$$$$

 Created by Python create_sdf_string function

 30 33  0  0  0  0  0  0  0  0999 V2000
    8.3036    9.8571   18.4133 C   0  0  0  0  0  0  0  0  0  0  0  0
    8.3694    7.6612   22.6703 C   0  0  0  0  0  0  0  0  0  0  0  0
    8.4143    6.6863   16.2273 C   0  0  0  0  0  0  0  0  0  0  0  0
   10.7581    6.5674   21.7636 C   0  0  0  0  0  0  0  0  0  0  0  0
    8.4452    8.7960   19.2958 O   0  0  0  0  0  0  0  0  0  0  0  0
    8.7122    6.7842   24.8569 C   0  0  0  0  0  0  0  0  0  0  0  0
   10.3400    6.1726   14.3081 C   0  0  0  0  0  0  0  0  0  0  0  0
    7.4297    7.5873   24.8962 C   0  0  0  0  0  0  0  0  0  0  0  0
    8.1566   10.0536   16.0516 O   0  0  0  0  0  0  0  0  0  0  0  0
   12.4989    6.2074   20.1776 C   0  0  0  0  0  0  0  0  0  0  0  0
    6.9192    9.1053   20.9073 O   0  0  0  0  0  0  0  0  0  0  0  0
   14.3979    6.0729   18.7784 C   0  0  0  0  0  0  0  0  0  0  0  0
    8.6811    9.5354   16.9998 C   0  0  0  0  0  0  0  0  0  0  0  0
    9.2512    4.2713   13.7653 O   0  0  0  0  0  0  0  0  0  0  0  0
    9.6495    8.6317   16.8332 N   0  0  0  0  0  0  0  0  0  0  0  0
    6.2934    8.6988   23.1988 O   0  0  0  0  0  0  0  0  0  0  0  0
    7.9806    8.6543   20.5437 C   0  0  0  0  0  0  0  0  0  0  0  0
   13.7270    5.7144   19.8610 O   0  0  0  0  0  0  0  0  0  0  0  0
    8.3351    5.5235   15.4478 C   0  0  0  0  0  0  0  0  0  0  0  0
    8.7700    7.8434   21.3915 C   0  0  0  0  0  0  0  0  0  0  0  0
   11.7856    6.8851   19.2401 C   0  0  0  0  0  0  0  0  0  0  0  0
   10.5281    7.4276   19.5649 C   0  0  0  0  0  0  0  0  0  0  0  0
   10.0256    7.2907   20.8484 C   0  0  0  0  0  0  0  0  0  0  0  0
    9.3113    5.3049   14.4911 C   0  0  0  0  0  0  0  0  0  0  0  0
    9.4607    7.5646   16.0139 C   0  0  0  0  0  0  0  0  0  0  0  0
   10.4192    7.3157   15.0955 C   0  0  0  0  0  0  0  0  0  0  0  0
   10.2489    6.4227   23.0218 N   0  0  0  0  0  0  0  0  0  0  0  0
    7.2472    8.0746   23.5050 C   0  0  0  0  0  0  0  0  0  0  0  0
    9.2051    6.9101   23.4604 C   0  0  0  0  0  0  0  0  0  0  0  0
   11.9646    6.0299   21.4251 C   0  0  0  0  0  0  0  0  0  0  0  0
  1  5  1  0
  1 13  1  0
  2 20  2  0
  2 28  1  0
  2 29  1  0
  3 19  4  0
  3 25  4  0
  4 23  4  0
  4 27  1  0
  4 30  4  0
  5 17  1  0
  6  8  1  0
  6 29  1  0
  7 24  4  0
  7 26  4  0
  8 28  1  0
  9 13  2  0
 10 18  1  0
 10 21  4  0
 10 30  4  0
 11 17  2  0
 12 18  1  0
 13 15  1  0
 14 24  1  0
 15 25  1  0
 16 28  2  0
 17 20  1  0
 19 24  4  0
 20 23  1  0
 21 22  4  0
 22 23  4  0
 25 26  4  0
 27 29  2  0
M  END
$$$$

 Created by Python create_sdf_string function

 30 33  0  0  0  0  0  0  0  0999 V2000
    8.3036    9.8571   18.4133 C   0  0  0  0  0  0  0  0  0  0  0  0
    8.3694    7.6612   22.6703 C   0  0  0  0  0  0  0  0  0  0  0  0
    8.4143    6.6863   16.2273 C   0  0  0  0  0  0  0  0  0  0  0  0
   10.7581    6.5674   21.7636 C   0  0  0  0  0  0  0  0  0  0  0  0
    8.4452    8.7960   19.2958 O   0  0  0  0  0  0  0  0  0  0  0  0
    8.7122    6.7842   24.8569 C   0  0  0  0  0  0  0  0  0  0  0  0
   10.3400    6.1726   14.3081 C   0  0  0  0  0  0  0  0  0  0  0  0
    7.4297    7.5873   24.8962 C   0  0  0  0  0  0  0  0  0  0  0  0
    8.1566   10.0536   16.0516 O   0  0  0  0  0  0  0  0  0  0  0  0
   12.4989    6.2074   20.1776 C   0  0  0  0  0  0  0  0  0  0  0  0
    6.9192    9.1053   20.9073 O   0  0  0  0  0  0  0  0  0  0  0  0
   14.3979    6.0729   18.7784 C   0  0  0  0  0  0  0  0  0  0  0  0
    8.6811    9.5354   16.9998 C   0  0  0  0  0  0  0  0  0  0  0  0
    9.2512    4.2713   13.7653 O   0  0  0  0  0  0  0  0  0  0  0  0
    9.6495    8.6317   16.8332 N   0  0  0  0  0  0  0  0  0  0  0  0
    6.2934    8.6988   23.1988 O   0  0  0  0  0  0  0  0  0  0  0  0
    7.9806    8.6543   20.5437 C   0  0  0  0  0  0  0  0  0  0  0  0
   13.7270    5.7144   19.8610 O   0  0  0  0  0  0  0  0  0  0  0  0
    8.3351    5.5235   15.4478 C   0  0  0  0  0  0  0  0  0  0  0  0
    8.7700    7.8434   21.3915 C   0  0  0  0  0  0  0  0  0  0  0  0
   11.7856    6.8851   19.2401 C   0  0  0  0  0  0  0  0  0  0  0  0
   10.5281    7.4276   19.5649 C   0  0  0  0  0  0  0  0  0  0  0  0
   10.0256    7.2907   20.8484 C   0  0  0  0  0  0  0  0  0  0  0  0
    9.3113    5.3049   14.4911 C   0  0  0  0  0  0  0  0  0  0  0  0
    9.4607    7.5646   16.0139 C   0  0  0  0  0  0  0  0  0  0  0  0
   10.4192    7.3157   15.0955 C   0  0  0  0  0  0  0  0  0  0  0  0
   10.2489    6.4227   23.0218 N   0  0  0  0  0  0  0  0  0  0  0  0
    7.2472    8.0746   23.5050 C   0  0  0  0  0  0  0  0  0  0  0  0
    9.2051    6.9101   23.4604 C   0  0  0  0  0  0  0  0  0  0  0  0
   11.9646    6.0299   21.4251 C   0  0  0  0  0  0  0  0  0  0  0  0
  1  5  1  0
  1 13  1  0
  2 20  2  0
  2 28  1  0
  2 29  1  0
  3 19  4  0
  3 25  4  0
  4 23  4  0
  4 27  1  0
  4 30  4  0
  5 17  1  0
  6  8  1  0
  6 29  1  0
  7 24  4  0
  7 26  4  0
  8 28  1  0
  9 13  2  0
 10 18  1  0
 10 21  4  0
 10 30  4  0
 11 17  2  0
 12 18  1  0
 13 15  1  0
 14 24  1  0
 15 25  1  0
 16 28  2  0
 17 20  1  0
 19 24  4  0
 20 23  1  0
 21 22  4  0
 22 23  4  0
 25 26  4  0
 27 29  2  0
M  END
$$$$

 Created by Python create_sdf_string function

 30 33  0  0  0  0  0  0  0  0999 V2000
    8.3036    9.8571   18.4133 C   0  0  0  0  0  0  0  0  0  0  0  0
    8.3694    7.6612   22.6703 C   0  0  0  0  0  0  0  0  0  0  0  0
    8.4143    6.6863   16.2273 C   0  0  0  0  0  0  0  0  0  0  0  0
   10.7581    6.5674   21.7636 C   0  0  0  0  0  0  0  0  0  0  0  0
    8.4452    8.7960   19.2958 O   0  0  0  0  0  0  0  0  0  0  0  0
    8.7122    6.7842   24.8569 C   0  0  0  0  0  0  0  0  0  0  0  0
   10.3400    6.1726   14.3081 C   0  0  0  0  0  0  0  0  0  0  0  0
    7.4297    7.5873   24.8962 C   0  0  0  0  0  0  0  0  0  0  0  0
    8.1566   10.0536   16.0516 O   0  0  0  0  0  0  0  0  0  0  0  0
   12.4989    6.2074   20.1776 C   0  0  0  0  0  0  0  0  0  0  0  0
    6.9192    9.1053   20.9073 O   0  0  0  0  0  0  0  0  0  0  0  0
   14.3979    6.0729   18.7784 C   0  0  0  0  0  0  0  0  0  0  0  0
    8.6811    9.5354   16.9998 C   0  0  0  0  0  0  0  0  0  0  0  0
    9.2512    4.2713   13.7653 O   0  0  0  0  0  0  0  0  0  0  0  0
    9.6495    8.6317   16.8332 N   0  0  0  0  0  0  0  0  0  0  0  0
    6.2934    8.6988   23.1988 O   0  0  0  0  0  0  0  0  0  0  0  0
    7.9806    8.6543   20.5437 C   0  0  0  0  0  0  0  0  0  0  0  0
   13.7270    5.7144   19.8610 O   0  0  0  0  0  0  0  0  0  0  0  0
    8.3351    5.5235   15.4478 C   0  0  0  0  0  0  0  0  0  0  0  0
    8.7700    7.8434   21.3915 C   0  0  0  0  0  0  0  0  0  0  0  0
   11.7856    6.8851   19.2401 C   0  0  0  0  0  0  0  0  0  0  0  0
   10.5281    7.4276   19.5649 C   0  0  0  0  0  0  0  0  0  0  0  0
   10.0256    7.2907   20.8484 C   0  0  0  0  0  0  0  0  0  0  0  0
    9.3113    5.3049   14.4911 C   0  0  0  0  0  0  0  0  0  0  0  0
    9.4607    7.5646   16.0139 C   0  0  0  0  0  0  0  0  0  0  0  0
   10.4192    7.3157   15.0955 C   0  0  0  0  0  0  0  0  0  0  0  0
   10.2489    6.4227   23.0218 N   0  0  0  0  0  0  0  0  0  0  0  0
    7.2472    8.0746   23.5050 C   0  0  0  0  0  0  0  0  0  0  0  0
    9.2051    6.9101   23.4604 C   0  0  0  0  0  0  0  0  0  0  0  0
   11.9646    6.0299   21.4251 C   0  0  0  0  0  0  0  0  0  0  0  0
  1  5  1  0
  1 13  1  0
  2 20  2  0
  2 28  1  0
  2 29  1  0
  3 19  4  0
  3 25  4  0
  4 23  4  0
  4 27  1  0
  4 30  4  0
  5 17  1  0
  6  8  1  0
  6 29  1  0
  7 24  4  0
  7 26  4  0
  8 28  1  0
  9 13  2  0
 10 18  1  0
 10 21  4  0
 10 30  4  0
 11 17  2  0
 12 18  1  0
 13 15  1  0
 14 24  1  0
 15 25  1  0
 16 28  2  0
 17 20  1  0
 19 24  4  0
 20 23  1  0
 21 22  4  0
 22 23  4  0
 25 26  4  0
 27 29  2  0
M  END
$$$$

 Created by Python create_sdf_string function

 30 33  0  0  0  0  0  0  0  0999 V2000
    8.3036    9.8571   18.4133 C   0  0  0  0  0  0  0  0  0  0  0  0
    8.3694    7.6612   22.6703 C   0  0  0  0  0  0  0  0  0  0  0  0
    8.4143    6.6863   16.2273 C   0  0  0  0  0  0  0  0  0  0  0  0
   10.7581    6.5674   21.7636 C   0  0  0  0  0  0  0  0  0  0  0  0
    8.4452    8.7960   19.2958 O   0  0  0  0  0  0  0  0  0  0  0  0
    8.7122    6.7842   24.8569 C   0  0  0  0  0  0  0  0  0  0  0  0
   10.3400    6.1726   14.3081 C   0  0  0  0  0  0  0  0  0  0  0  0
    7.4297    7.5873   24.8962 C   0  0  0  0  0  0  0  0  0  0  0  0
    8.1566   10.0536   16.0516 O   0  0  0  0  0  0  0  0  0  0  0  0
   12.4989    6.2074   20.1776 C   0  0  0  0  0  0  0  0  0  0  0  0
    6.9192    9.1053   20.9073 O   0  0  0  0  0  0  0  0  0  0  0  0
   14.3979    6.0729   18.7784 C   0  0  0  0  0  0  0  0  0  0  0  0
    8.6811    9.5354   16.9998 C   0  0  0  0  0  0  0  0  0  0  0  0
    9.2512    4.2713   13.7653 O   0  0  0  0  0  0  0  0  0  0  0  0
    9.6495    8.6317   16.8332 N   0  0  0  0  0  0  0  0  0  0  0  0
    6.2934    8.6988   23.1988 O   0  0  0  0  0  0  0  0  0  0  0  0
    7.9806    8.6543   20.5437 C   0  0  0  0  0  0  0  0  0  0  0  0
   13.7270    5.7144   19.8610 O   0  0  0  0  0  0  0  0  0  0  0  0
    8.3351    5.5235   15.4478 C   0  0  0  0  0  0  0  0  0  0  0  0
    8.7700    7.8434   21.3915 C   0  0  0  0  0  0  0  0  0  0  0  0
   11.7856    6.8851   19.2401 C   0  0  0  0  0  0  0  0  0  0  0  0
   10.5281    7.4276   19.5649 C   0  0  0  0  0  0  0  0  0  0  0  0
   10.0256    7.2907   20.8484 C   0  0  0  0  0  0  0  0  0  0  0  0
    9.3113    5.3049   14.4911 C   0  0  0  0  0  0  0  0  0  0  0  0
    9.4607    7.5646   16.0139 C   0  0  0  0  0  0  0  0  0  0  0  0
   10.4192    7.3157   15.0955 C   0  0  0  0  0  0  0  0  0  0  0  0
   10.2489    6.4227   23.0218 N   0  0  0  0  0  0  0  0  0  0  0  0
    7.2472    8.0746   23.5050 C   0  0  0  0  0  0  0  0  0  0  0  0
    9.2051    6.9101   23.4604 C   0  0  0  0  0  0  0  0  0  0  0  0
   11.9646    6.0299   21.4251 C   0  0  0  0  0  0  0  0  0  0  0  0
  1  5  1  0
  1 13  1  0
  2 20  2  0
  2 28  1  0
  2 29  1  0
  3 19  4  0
  3 25  4  0
  4 23  4  0
  4 27  1  0
  4 30  4  0
  5 17  1  0
  6  8  1  0
  6 29  1  0
  7 24  4  0
  7 26  4  0
  8 28  1  0
  9 13  2  0
 10 18  1  0
 10 21  4  0
 10 30  4  0
 11 17  2  0
 12 18  1  0
 13 15  1  0
 14 24  1  0
 15 25  1  0
 16 28  2  0
 17 20  1  0
 19 24  4  0
 20 23  1  0
 21 22  4  0
 22 23  4  0
 25 26  4  0
 27 29  2  0
M  END
$$$$

 Created by Python create_sdf_string function

 30 33  0  0  0  0  0  0  0  0999 V2000
    8.3036    9.8571   18.4133 C   0  0  0  0  0  0  0  0  0  0  0  0
    8.3694    7.6612   22.6703 C   0  0  0  0  0  0  0  0  0  0  0  0
    8.4143    6.6863   16.2273 C   0  0  0  0  0  0  0  0  0  0  0  0
   10.7581    6.5674   21.7636 C   0  0  0  0  0  0  0  0  0  0  0  0
    8.4452    8.7960   19.2958 O   0  0  0  0  0  0  0  0  0  0  0  0
    8.7122    6.7842   24.8569 C   0  0  0  0  0  0  0  0  0  0  0  0
   10.3400    6.1726   14.3081 C   0  0  0  0  0  0  0  0  0  0  0  0
    7.4297    7.5873   24.8962 C   0  0  0  0  0  0  0  0  0  0  0  0
    8.1566   10.0536   16.0516 O   0  0  0  0  0  0  0  0  0  0  0  0
   12.4989    6.2074   20.1776 C   0  0  0  0  0  0  0  0  0  0  0  0
    6.9192    9.1053   20.9073 O   0  0  0  0  0  0  0  0  0  0  0  0
   14.3979    6.0729   18.7784 C   0  0  0  0  0  0  0  0  0  0  0  0
    8.6811    9.5354   16.9998 C   0  0  0  0  0  0  0  0  0  0  0  0
    9.2512    4.2713   13.7653 O   0  0  0  0  0  0  0  0  0  0  0  0
    9.6495    8.6317   16.8332 N   0  0  0  0  0  0  0  0  0  0  0  0
    6.2934    8.6988   23.1988 O   0  0  0  0  0  0  0  0  0  0  0  0
    7.9806    8.6543   20.5437 C   0  0  0  0  0  0  0  0  0  0  0  0
   13.7270    5.7144   19.8610 O   0  0  0  0  0  0  0  0  0  0  0  0
    8.3351    5.5235   15.4478 C   0  0  0  0  0  0  0  0  0  0  0  0
    8.7700    7.8434   21.3915 C   0  0  0  0  0  0  0  0  0  0  0  0
   11.7856    6.8851   19.2401 C   0  0  0  0  0  0  0  0  0  0  0  0
   10.5281    7.4276   19.5649 C   0  0  0  0  0  0  0  0  0  0  0  0
   10.0256    7.2907   20.8484 C   0  0  0  0  0  0  0  0  0  0  0  0
    9.3113    5.3049   14.4911 C   0  0  0  0  0  0  0  0  0  0  0  0
    9.4607    7.5646   16.0139 C   0  0  0  0  0  0  0  0  0  0  0  0
   10.4192    7.3157   15.0955 C   0  0  0  0  0  0  0  0  0  0  0  0
   10.2489    6.4227   23.0218 N   0  0  0  0  0  0  0  0  0  0  0  0
    7.2472    8.0746   23.5050 C   0  0  0  0  0  0  0  0  0  0  0  0
    9.2051    6.9101   23.4604 C   0  0  0  0  0  0  0  0  0  0  0  0
   11.9646    6.0299   21.4251 C   0  0  0  0  0  0  0  0  0  0  0  0
  1  5  1  0
  1 13  1  0
  2 20  2  0
  2 28  1  0
  2 29  1  0
  3 19  4  0
  3 25  4  0
  4 23  4  0
  4 27  1  0
  4 30  4  0
  5 17  1  0
  6  8  1  0
  6 29  1  0
  7 24  4  0
  7 26  4  0
  8 28  1  0
  9 13  2  0
 10 18  1  0
 10 21  4  0
 10 30  4  0
 11 17  2  0
 12 18  1  0
 13 15  1  0
 14 24  1  0
 15 25  1  0
 16 28  2  0
 17 20  1  0
 19 24  4  0
 20 23  1  0
 21 22  4  0
 22 23  4  0
 25 26  4  0
 27 29  2  0
M  END
$$$$

 Created by Python create_sdf_string function

 30 33  0  0  0  0  0  0  0  0999 V2000
    8.3036    9.8571   18.4133 C   0  0  0  0  0  0  0  0  0  0  0  0
    8.3694    7.6612   22.6703 C   0  0  0  0  0  0  0  0  0  0  0  0
    8.4143    6.6863   16.2273 C   0  0  0  0  0  0  0  0  0  0  0  0
   10.7581    6.5674   21.7636 C   0  0  0  0  0  0  0  0  0  0  0  0
    8.4452    8.7960   19.2958 O   0  0  0  0  0  0  0  0  0  0  0  0
    8.7122    6.7842   24.8569 C   0  0  0  0  0  0  0  0  0  0  0  0
   10.3400    6.1726   14.3081 C   0  0  0  0  0  0  0  0  0  0  0  0
    7.4297    7.5873   24.8962 C   0  0  0  0  0  0  0  0  0  0  0  0
    8.1566   10.0536   16.0516 O   0  0  0  0  0  0  0  0  0  0  0  0
   12.4989    6.2074   20.1776 C   0  0  0  0  0  0  0  0  0  0  0  0
    6.9192    9.1053   20.9073 O   0  0  0  0  0  0  0  0  0  0  0  0
   14.3979    6.0729   18.7784 C   0  0  0  0  0  0  0  0  0  0  0  0
    8.6811    9.5354   16.9998 C   0  0  0  0  0  0  0  0  0  0  0  0
    9.2512    4.2713   13.7653 O   0  0  0  0  0  0  0  0  0  0  0  0
    9.6495    8.6317   16.8332 N   0  0  0  0  0  0  0  0  0  0  0  0
    6.2934    8.6988   23.1988 O   0  0  0  0  0  0  0  0  0  0  0  0
    7.9806    8.6543   20.5437 C   0  0  0  0  0  0  0  0  0  0  0  0
   13.7270    5.7144   19.8610 O   0  0  0  0  0  0  0  0  0  0  0  0
    8.3351    5.5235   15.4478 C   0  0  0  0  0  0  0  0  0  0  0  0
    8.7700    7.8434   21.3915 C   0  0  0  0  0  0  0  0  0  0  0  0
   11.7856    6.8851   19.2401 C   0  0  0  0  0  0  0  0  0  0  0  0
   10.5281    7.4276   19.5649 C   0  0  0  0  0  0  0  0  0  0  0  0
   10.0256    7.2907   20.8484 C   0  0  0  0  0  0  0  0  0  0  0  0
    9.3113    5.3049   14.4911 C   0  0  0  0  0  0  0  0  0  0  0  0
    9.4607    7.5646   16.0139 C   0  0  0  0  0  0  0  0  0  0  0  0
   10.4192    7.3157   15.0955 C   0  0  0  0  0  0  0  0  0  0  0  0
   10.2489    6.4227   23.0218 N   0  0  0  0  0  0  0  0  0  0  0  0
    7.2472    8.0746   23.5050 C   0  0  0  0  0  0  0  0  0  0  0  0
    9.2051    6.9101   23.4604 C   0  0  0  0  0  0  0  0  0  0  0  0
   11.9646    6.0299   21.4251 C   0  0  0  0  0  0  0  0  0  0  0  0
  1  5  1  0
  1 13  1  0
  2 20  2  0
  2 28  1  0
  2 29  1  0
  3 19  4  0
  3 25  4  0
  4 23  4  0
  4 27  1  0
  4 30  4  0
  5 17  1  0
  6  8  1  0
  6 29  1  0
  7 24  4  0
  7 26  4  0
  8 28  1  0
  9 13  2  0
 10 18  1  0
 10 21  4  0
 10 30  4  0
 11 17  2  0
 12 18  1  0
 13 15  1  0
 14 24  1  0
 15 25  1  0
 16 28  2  0
 17 20  1  0
 19 24  4  0
 20 23  1  0
 21 22  4  0
 22 23  4  0
 25 26  4  0
 27 29  2  0
M  END
$$$$

 Created by Python create_sdf_string function

 30 33  0  0  0  0  0  0  0  0999 V2000
    8.3036    9.8571   18.4133 C   0  0  0  0  0  0  0  0  0  0  0  0
    8.3694    7.6612   22.6703 C   0  0  0  0  0  0  0  0  0  0  0  0
    8.4143    6.6863   16.2273 C   0  0  0  0  0  0  0  0  0  0  0  0
   10.7581    6.5674   21.7636 C   0  0  0  0  0  0  0  0  0  0  0  0
    8.4452    8.7960   19.2958 O   0  0  0  0  0  0  0  0  0  0  0  0
    8.7122    6.7842   24.8569 C   0  0  0  0  0  0  0  0  0  0  0  0
   10.3400    6.1726   14.3081 C   0  0  0  0  0  0  0  0  0  0  0  0
    7.4297    7.5873   24.8962 C   0  0  0  0  0  0  0  0  0  0  0  0
    8.1566   10.0536   16.0516 O   0  0  0  0  0  0  0  0  0  0  0  0
   12.4989    6.2074   20.1776 C   0  0  0  0  0  0  0  0  0  0  0  0
    6.9192    9.1053   20.9073 O   0  0  0  0  0  0  0  0  0  0  0  0
   14.3979    6.0729   18.7784 C   0  0  0  0  0  0  0  0  0  0  0  0
    8.6811    9.5354   16.9998 C   0  0  0  0  0  0  0  0  0  0  0  0
    9.2512    4.2713   13.7653 O   0  0  0  0  0  0  0  0  0  0  0  0
    9.6495    8.6317   16.8332 N   0  0  0  0  0  0  0  0  0  0  0  0
    6.2934    8.6988   23.1988 O   0  0  0  0  0  0  0  0  0  0  0  0
    7.9806    8.6543   20.5437 C   0  0  0  0  0  0  0  0  0  0  0  0
   13.7270    5.7144   19.8610 O   0  0  0  0  0  0  0  0  0  0  0  0
    8.3351    5.5235   15.4478 C   0  0  0  0  0  0  0  0  0  0  0  0
    8.7700    7.8434   21.3915 C   0  0  0  0  0  0  0  0  0  0  0  0
   11.7856    6.8851   19.2401 C   0  0  0  0  0  0  0  0  0  0  0  0
   10.5281    7.4276   19.5649 C   0  0  0  0  0  0  0  0  0  0  0  0
   10.0256    7.2907   20.8484 C   0  0  0  0  0  0  0  0  0  0  0  0
    9.3113    5.3049   14.4911 C   0  0  0  0  0  0  0  0  0  0  0  0
    9.4607    7.5646   16.0139 C   0  0  0  0  0  0  0  0  0  0  0  0
   10.4192    7.3157   15.0955 C   0  0  0  0  0  0  0  0  0  0  0  0
   10.2489    6.4227   23.0218 N   0  0  0  0  0  0  0  0  0  0  0  0
    7.2472    8.0746   23.5050 C   0  0  0  0  0  0  0  0  0  0  0  0
    9.2051    6.9101   23.4604 C   0  0  0  0  0  0  0  0  0  0  0  0
   11.9646    6.0299   21.4251 C   0  0  0  0  0  0  0  0  0  0  0  0
  1  5  1  0
  1 13  1  0
  2 20  2  0
  2 28  1  0
  2 29  1  0
  3 19  4  0
  3 25  4  0
  4 23  4  0
  4 27  1  0
  4 30  4  0
  5 17  1  0
  6  8  1  0
  6 29  1  0
  7 24  4  0
  7 26  4  0
  8 28  1  0
  9 13  2  0
 10 18  1  0
 10 21  4  0
 10 30  4  0
 11 17  2  0
 12 18  1  0
 13 15  1  0
 14 24  1  0
 15 25  1  0
 16 28  2  0
 17 20  1  0
 19 24  4  0
 20 23  1  0
 21 22  4  0
 22 23  4  0
 25 26  4  0
 27 29  2  0
M  END
$$$$

 Created by Python create_sdf_string function

 30 33  0  0  0  0  0  0  0  0999 V2000
    8.3036    9.8571   18.4133 C   0  0  0  0  0  0  0  0  0  0  0  0
    8.3694    7.6612   22.6703 C   0  0  0  0  0  0  0  0  0  0  0  0
    8.4143    6.6863   16.2273 C   0  0  0  0  0  0  0  0  0  0  0  0
   10.7581    6.5674   21.7636 C   0  0  0  0  0  0  0  0  0  0  0  0
    8.4452    8.7960   19.2958 O   0  0  0  0  0  0  0  0  0  0  0  0
    8.7122    6.7842   24.8569 C   0  0  0  0  0  0  0  0  0  0  0  0
   10.3400    6.1726   14.3081 C   0  0  0  0  0  0  0  0  0  0  0  0
    7.4297    7.5873   24.8962 C   0  0  0  0  0  0  0  0  0  0  0  0
    8.1566   10.0536   16.0516 O   0  0  0  0  0  0  0  0  0  0  0  0
   12.4989    6.2074   20.1776 C   0  0  0  0  0  0  0  0  0  0  0  0
    6.9192    9.1053   20.9073 O   0  0  0  0  0  0  0  0  0  0  0  0
   14.3979    6.0729   18.7784 C   0  0  0  0  0  0  0  0  0  0  0  0
    8.6811    9.5354   16.9998 C   0  0  0  0  0  0  0  0  0  0  0  0
    9.2512    4.2713   13.7653 O   0  0  0  0  0  0  0  0  0  0  0  0
    9.6495    8.6317   16.8332 N   0  0  0  0  0  0  0  0  0  0  0  0
    6.2934    8.6988   23.1988 O   0  0  0  0  0  0  0  0  0  0  0  0
    7.9806    8.6543   20.5437 C   0  0  0  0  0  0  0  0  0  0  0  0
   13.7270    5.7144   19.8610 O   0  0  0  0  0  0  0  0  0  0  0  0
    8.3351    5.5235   15.4478 C   0  0  0  0  0  0  0  0  0  0  0  0
    8.7700    7.8434   21.3915 C   0  0  0  0  0  0  0  0  0  0  0  0
   11.7856    6.8851   19.2401 C   0  0  0  0  0  0  0  0  0  0  0  0
   10.5281    7.4276   19.5649 C   0  0  0  0  0  0  0  0  0  0  0  0
   10.0256    7.2907   20.8484 C   0  0  0  0  0  0  0  0  0  0  0  0
    9.3113    5.3049   14.4911 C   0  0  0  0  0  0  0  0  0  0  0  0
    9.4607    7.5646   16.0139 C   0  0  0  0  0  0  0  0  0  0  0  0
   10.4192    7.3157   15.0955 C   0  0  0  0  0  0  0  0  0  0  0  0
   10.2489    6.4227   23.0218 N   0  0  0  0  0  0  0  0  0  0  0  0
    7.2472    8.0746   23.5050 C   0  0  0  0  0  0  0  0  0  0  0  0
    9.2051    6.9101   23.4604 C   0  0  0  0  0  0  0  0  0  0  0  0
   11.9646    6.0299   21.4251 C   0  0  0  0  0  0  0  0  0  0  0  0
  1  5  1  0
  1 13  1  0
  2 20  2  0
  2 28  1  0
  2 29  1  0
  3 19  4  0
  3 25  4  0
  4 23  4  0
  4 27  1  0
  4 30  4  0
  5 17  1  0
  6  8  1  0
  6 29  1  0
  7 24  4  0
  7 26  4  0
  8 28  1  0
  9 13  2  0
 10 18  1  0
 10 21  4  0
 10 30  4  0
 11 17  2  0
 12 18  1  0
 13 15  1  0
 14 24  1  0
 15 25  1  0
 16 28  2  0
 17 20  1  0
 19 24  4  0
 20 23  1  0
 21 22  4  0
 22 23  4  0
 25 26  4  0
 27 29  2  0
M  END
$$$$

 Created by Python create_sdf_string function

 30 33  0  0  0  0  0  0  0  0999 V2000
    8.3036    9.8571   18.4133 C   0  0  0  0  0  0  0  0  0  0  0  0
    8.3694    7.6612   22.6703 C   0  0  0  0  0  0  0  0  0  0  0  0
    8.4143    6.6863   16.2273 C   0  0  0  0  0  0  0  0  0  0  0  0
   10.7581    6.5674   21.7636 C   0  0  0  0  0  0  0  0  0  0  0  0
    8.4452    8.7960   19.2958 O   0  0  0  0  0  0  0  0  0  0  0  0
    8.7122    6.7842   24.8569 C   0  0  0  0  0  0  0  0  0  0  0  0
   10.3400    6.1726   14.3081 C   0  0  0  0  0  0  0  0  0  0  0  0
    7.4297    7.5873   24.8962 C   0  0  0  0  0  0  0  0  0  0  0  0
    8.1566   10.0536   16.0516 O   0  0  0  0  0  0  0  0  0  0  0  0
   12.4989    6.2074   20.1776 C   0  0  0  0  0  0  0  0  0  0  0  0
    6.9192    9.1053   20.9073 O   0  0  0  0  0  0  0  0  0  0  0  0
   14.3979    6.0729   18.7784 C   0  0  0  0  0  0  0  0  0  0  0  0
    8.6811    9.5354   16.9998 C   0  0  0  0  0  0  0  0  0  0  0  0
    9.2512    4.2713   13.7653 O   0  0  0  0  0  0  0  0  0  0  0  0
    9.6495    8.6317   16.8332 N   0  0  0  0  0  0  0  0  0  0  0  0
    6.2934    8.6988   23.1988 O   0  0  0  0  0  0  0  0  0  0  0  0
    7.9806    8.6543   20.5437 C   0  0  0  0  0  0  0  0  0  0  0  0
   13.7270    5.7144   19.8610 O   0  0  0  0  0  0  0  0  0  0  0  0
    8.3351    5.5235   15.4478 C   0  0  0  0  0  0  0  0  0  0  0  0
    8.7700    7.8434   21.3915 C   0  0  0  0  0  0  0  0  0  0  0  0
   11.7856    6.8851   19.2401 C   0  0  0  0  0  0  0  0  0  0  0  0
   10.5281    7.4276   19.5649 C   0  0  0  0  0  0  0  0  0  0  0  0
   10.0256    7.2907   20.8484 C   0  0  0  0  0  0  0  0  0  0  0  0
    9.3113    5.3049   14.4911 C   0  0  0  0  0  0  0  0  0  0  0  0
    9.4607    7.5646   16.0139 C   0  0  0  0  0  0  0  0  0  0  0  0
   10.4192    7.3157   15.0955 C   0  0  0  0  0  0  0  0  0  0  0  0
   10.2489    6.4227   23.0218 N   0  0  0  0  0  0  0  0  0  0  0  0
    7.2472    8.0746   23.5050 C   0  0  0  0  0  0  0  0  0  0  0  0
    9.2051    6.9101   23.4604 C   0  0  0  0  0  0  0  0  0  0  0  0
   11.9646    6.0299   21.4251 C   0  0  0  0  0  0  0  0  0  0  0  0
  1  5  1  0
  1 13  1  0
  2 20  2  0
  2 28  1  0
  2 29  1  0
  3 19  4  0
  3 25  4  0
  4 23  4  0
  4 27  1  0
  4 30  4  0
  5 17  1  0
  6  8  1  0
  6 29  1  0
  7 24  4  0
  7 26  4  0
  8 28  1  0
  9 13  2  0
 10 18  1  0
 10 21  4  0
 10 30  4  0
 11 17  2  0
 12 18  1  0
 13 15  1  0
 14 24  1  0
 15 25  1  0
 16 28  2  0
 17 20  1  0
 19 24  4  0
 20 23  1  0
 21 22  4  0
 22 23  4  0
 25 26  4  0
 27 29  2  0
M  END
$$$$

 Created by Python create_sdf_string function

 30 33  0  0  0  0  0  0  0  0999 V2000
    8.3036    9.8571   18.4133 C   0  0  0  0  0  0  0  0  0  0  0  0
    8.3694    7.6612   22.6703 C   0  0  0  0  0  0  0  0  0  0  0  0
    8.4143    6.6863   16.2273 C   0  0  0  0  0  0  0  0  0  0  0  0
   10.7581    6.5674   21.7636 C   0  0  0  0  0  0  0  0  0  0  0  0
    8.4452    8.7960   19.2958 O   0  0  0  0  0  0  0  0  0  0  0  0
    8.7122    6.7842   24.8569 C   0  0  0  0  0  0  0  0  0  0  0  0
   10.3400    6.1726   14.3081 C   0  0  0  0  0  0  0  0  0  0  0  0
    7.4297    7.5873   24.8962 C   0  0  0  0  0  0  0  0  0  0  0  0
    8.1566   10.0536   16.0516 O   0  0  0  0  0  0  0  0  0  0  0  0
   12.4989    6.2074   20.1776 C   0  0  0  0  0  0  0  0  0  0  0  0
    6.9192    9.1053   20.9073 O   0  0  0  0  0  0  0  0  0  0  0  0
   14.3979    6.0729   18.7784 C   0  0  0  0  0  0  0  0  0  0  0  0
    8.6811    9.5354   16.9998 C   0  0  0  0  0  0  0  0  0  0  0  0
    9.2512    4.2713   13.7653 O   0  0  0  0  0  0  0  0  0  0  0  0
    9.6495    8.6317   16.8332 N   0  0  0  0  0  0  0  0  0  0  0  0
    6.2934    8.6988   23.1988 O   0  0  0  0  0  0  0  0  0  0  0  0
    7.9806    8.6543   20.5437 C   0  0  0  0  0  0  0  0  0  0  0  0
   13.7270    5.7144   19.8610 O   0  0  0  0  0  0  0  0  0  0  0  0
    8.3351    5.5235   15.4478 C   0  0  0  0  0  0  0  0  0  0  0  0
    8.7700    7.8434   21.3915 C   0  0  0  0  0  0  0  0  0  0  0  0
   11.7856    6.8851   19.2401 C   0  0  0  0  0  0  0  0  0  0  0  0
   10.5281    7.4276   19.5649 C   0  0  0  0  0  0  0  0  0  0  0  0
   10.0256    7.2907   20.8484 C   0  0  0  0  0  0  0  0  0  0  0  0
    9.3113    5.3049   14.4911 C   0  0  0  0  0  0  0  0  0  0  0  0
    9.4607    7.5646   16.0139 C   0  0  0  0  0  0  0  0  0  0  0  0
   10.4192    7.3157   15.0955 C   0  0  0  0  0  0  0  0  0  0  0  0
   10.2489    6.4227   23.0218 N   0  0  0  0  0  0  0  0  0  0  0  0
    7.2472    8.0746   23.5050 C   0  0  0  0  0  0  0  0  0  0  0  0
    9.2051    6.9101   23.4604 C   0  0  0  0  0  0  0  0  0  0  0  0
   11.9646    6.0299   21.4251 C   0  0  0  0  0  0  0  0  0  0  0  0
  1  5  1  0
  1 13  1  0
  2 20  2  0
  2 28  1  0
  2 29  1  0
  3 19  4  0
  3 25  4  0
  4 23  4  0
  4 27  1  0
  4 30  4  0
  5 17  1  0
  6  8  1  0
  6 29  1  0
  7 24  4  0
  7 26  4  0
  8 28  1  0
  9 13  2  0
 10 18  1  0
 10 21  4  0
 10 30  4  0
 11 17  2  0
 12 18  1  0
 13 15  1  0
 14 24  1  0
 15 25  1  0
 16 28  2  0
 17 20  1  0
 19 24  4  0
 20 23  1  0
 21 22  4  0
 22 23  4  0
 25 26  4  0
 27 29  2  0
M  END
$$$$

 Created by Python create_sdf_string function

 30 33  0  0  0  0  0  0  0  0999 V2000
    8.3036    9.8571   18.4133 C   0  0  0  0  0  0  0  0  0  0  0  0
    8.3694    7.6612   22.6703 C   0  0  0  0  0  0  0  0  0  0  0  0
    8.4143    6.6863   16.2273 C   0  0  0  0  0  0  0  0  0  0  0  0
   10.7581    6.5674   21.7636 C   0  0  0  0  0  0  0  0  0  0  0  0
    8.4452    8.7960   19.2958 O   0  0  0  0  0  0  0  0  0  0  0  0
    8.7122    6.7842   24.8569 C   0  0  0  0  0  0  0  0  0  0  0  0
   10.3400    6.1726   14.3081 C   0  0  0  0  0  0  0  0  0  0  0  0
    7.4297    7.5873   24.8962 C   0  0  0  0  0  0  0  0  0  0  0  0
    8.1566   10.0536   16.0516 O   0  0  0  0  0  0  0  0  0  0  0  0
   12.4989    6.2074   20.1776 C   0  0  0  0  0  0  0  0  0  0  0  0
    6.9192    9.1053   20.9073 O   0  0  0  0  0  0  0  0  0  0  0  0
   14.3979    6.0729   18.7784 C   0  0  0  0  0  0  0  0  0  0  0  0
    8.6811    9.5354   16.9998 C   0  0  0  0  0  0  0  0  0  0  0  0
    9.2512    4.2713   13.7653 O   0  0  0  0  0  0  0  0  0  0  0  0
    9.6495    8.6317   16.8332 N   0  0  0  0  0  0  0  0  0  0  0  0
    6.2934    8.6988   23.1988 O   0  0  0  0  0  0  0  0  0  0  0  0
    7.9806    8.6543   20.5437 C   0  0  0  0  0  0  0  0  0  0  0  0
   13.7270    5.7144   19.8610 O   0  0  0  0  0  0  0  0  0  0  0  0
    8.3351    5.5235   15.4478 C   0  0  0  0  0  0  0  0  0  0  0  0
    8.7700    7.8434   21.3915 C   0  0  0  0  0  0  0  0  0  0  0  0
   11.7856    6.8851   19.2401 C   0  0  0  0  0  0  0  0  0  0  0  0
   10.5281    7.4276   19.5649 C   0  0  0  0  0  0  0  0  0  0  0  0
   10.0256    7.2907   20.8484 C   0  0  0  0  0  0  0  0  0  0  0  0
    9.3113    5.3049   14.4911 C   0  0  0  0  0  0  0  0  0  0  0  0
    9.4607    7.5646   16.0139 C   0  0  0  0  0  0  0  0  0  0  0  0
   10.4192    7.3157   15.0955 C   0  0  0  0  0  0  0  0  0  0  0  0
   10.2489    6.4227   23.0218 N   0  0  0  0  0  0  0  0  0  0  0  0
    7.2472    8.0746   23.5050 C   0  0  0  0  0  0  0  0  0  0  0  0
    9.2051    6.9101   23.4604 C   0  0  0  0  0  0  0  0  0  0  0  0
   11.9646    6.0299   21.4251 C   0  0  0  0  0  0  0  0  0  0  0  0
  1  5  1  0
  1 13  1  0
  2 20  2  0
  2 28  1  0
  2 29  1  0
  3 19  4  0
  3 25  4  0
  4 23  4  0
  4 27  1  0
  4 30  4  0
  5 17  1  0
  6  8  1  0
  6 29  1  0
  7 24  4  0
  7 26  4  0
  8 28  1  0
  9 13  2  0
 10 18  1  0
 10 21  4  0
 10 30  4  0
 11 17  2  0
 12 18  1  0
 13 15  1  0
 14 24  1  0
 15 25  1  0
 16 28  2  0
 17 20  1  0
 19 24  4  0
 20 23  1  0
 21 22  4  0
 22 23  4  0
 25 26  4  0
 27 29  2  0
M  END
$$$$

 Created by Python create_sdf_string function

 30 33  0  0  0  0  0  0  0  0999 V2000
    8.3036    9.8571   18.4133 C   0  0  0  0  0  0  0  0  0  0  0  0
    8.3694    7.6612   22.6703 C   0  0  0  0  0  0  0  0  0  0  0  0
    8.4143    6.6863   16.2273 C   0  0  0  0  0  0  0  0  0  0  0  0
   10.7581    6.5674   21.7636 C   0  0  0  0  0  0  0  0  0  0  0  0
    8.4452    8.7960   19.2958 O   0  0  0  0  0  0  0  0  0  0  0  0
    8.7122    6.7842   24.8569 C   0  0  0  0  0  0  0  0  0  0  0  0
   10.3400    6.1726   14.3081 C   0  0  0  0  0  0  0  0  0  0  0  0
    7.4297    7.5873   24.8962 C   0  0  0  0  0  0  0  0  0  0  0  0
    8.1566   10.0536   16.0516 O   0  0  0  0  0  0  0  0  0  0  0  0
   12.4989    6.2074   20.1776 C   0  0  0  0  0  0  0  0  0  0  0  0
    6.9192    9.1053   20.9073 O   0  0  0  0  0  0  0  0  0  0  0  0
   14.3979    6.0729   18.7784 C   0  0  0  0  0  0  0  0  0  0  0  0
    8.6811    9.5354   16.9998 C   0  0  0  0  0  0  0  0  0  0  0  0
    9.2512    4.2713   13.7653 O   0  0  0  0  0  0  0  0  0  0  0  0
    9.6495    8.6317   16.8332 N   0  0  0  0  0  0  0  0  0  0  0  0
    6.2934    8.6988   23.1988 O   0  0  0  0  0  0  0  0  0  0  0  0
    7.9806    8.6543   20.5437 C   0  0  0  0  0  0  0  0  0  0  0  0
   13.7270    5.7144   19.8610 O   0  0  0  0  0  0  0  0  0  0  0  0
    8.3351    5.5235   15.4478 C   0  0  0  0  0  0  0  0  0  0  0  0
    8.7700    7.8434   21.3915 C   0  0  0  0  0  0  0  0  0  0  0  0
   11.7856    6.8851   19.2401 C   0  0  0  0  0  0  0  0  0  0  0  0
   10.5281    7.4276   19.5649 C   0  0  0  0  0  0  0  0  0  0  0  0
   10.0256    7.2907   20.8484 C   0  0  0  0  0  0  0  0  0  0  0  0
    9.3113    5.3049   14.4911 C   0  0  0  0  0  0  0  0  0  0  0  0
    9.4607    7.5646   16.0139 C   0  0  0  0  0  0  0  0  0  0  0  0
   10.4192    7.3157   15.0955 C   0  0  0  0  0  0  0  0  0  0  0  0
   10.2489    6.4227   23.0218 N   0  0  0  0  0  0  0  0  0  0  0  0
    7.2472    8.0746   23.5050 C   0  0  0  0  0  0  0  0  0  0  0  0
    9.2051    6.9101   23.4604 C   0  0  0  0  0  0  0  0  0  0  0  0
   11.9646    6.0299   21.4251 C   0  0  0  0  0  0  0  0  0  0  0  0
  1  5  1  0
  1 13  1  0
  2 20  2  0
  2 28  1  0
  2 29  1  0
  3 19  4  0
  3 25  4  0
  4 23  4  0
  4 27  1  0
  4 30  4  0
  5 17  1  0
  6  8  1  0
  6 29  1  0
  7 24  4  0
  7 26  4  0
  8 28  1  0
  9 13  2  0
 10 18  1  0
 10 21  4  0
 10 30  4  0
 11 17  2  0
 12 18  1  0
 13 15  1  0
 14 24  1  0
 15 25  1  0
 16 28  2  0
 17 20  1  0
 19 24  4  0
 20 23  1  0
 21 22  4  0
 22 23  4  0
 25 26  4  0
 27 29  2  0
M  END
$$$$

 Created by Python create_sdf_string function

 30 33  0  0  0  0  0  0  0  0999 V2000
    8.3036    9.8571   18.4133 C   0  0  0  0  0  0  0  0  0  0  0  0
    8.3694    7.6612   22.6703 C   0  0  0  0  0  0  0  0  0  0  0  0
    8.4143    6.6863   16.2273 C   0  0  0  0  0  0  0  0  0  0  0  0
   10.7581    6.5674   21.7636 C   0  0  0  0  0  0  0  0  0  0  0  0
    8.4452    8.7960   19.2958 O   0  0  0  0  0  0  0  0  0  0  0  0
    8.7122    6.7842   24.8569 C   0  0  0  0  0  0  0  0  0  0  0  0
   10.3400    6.1726   14.3081 C   0  0  0  0  0  0  0  0  0  0  0  0
    7.4297    7.5873   24.8962 C   0  0  0  0  0  0  0  0  0  0  0  0
    8.1566   10.0536   16.0516 O   0  0  0  0  0  0  0  0  0  0  0  0
   12.4989    6.2074   20.1776 C   0  0  0  0  0  0  0  0  0  0  0  0
    6.9192    9.1053   20.9073 O   0  0  0  0  0  0  0  0  0  0  0  0
   14.3979    6.0729   18.7784 C   0  0  0  0  0  0  0  0  0  0  0  0
    8.6811    9.5354   16.9998 C   0  0  0  0  0  0  0  0  0  0  0  0
    9.2512    4.2713   13.7653 O   0  0  0  0  0  0  0  0  0  0  0  0
    9.6495    8.6317   16.8332 N   0  0  0  0  0  0  0  0  0  0  0  0
    6.2934    8.6988   23.1988 O   0  0  0  0  0  0  0  0  0  0  0  0
    7.9806    8.6543   20.5437 C   0  0  0  0  0  0  0  0  0  0  0  0
   13.7270    5.7144   19.8610 O   0  0  0  0  0  0  0  0  0  0  0  0
    8.3351    5.5235   15.4478 C   0  0  0  0  0  0  0  0  0  0  0  0
    8.7700    7.8434   21.3915 C   0  0  0  0  0  0  0  0  0  0  0  0
   11.7856    6.8851   19.2401 C   0  0  0  0  0  0  0  0  0  0  0  0
   10.5281    7.4276   19.5649 C   0  0  0  0  0  0  0  0  0  0  0  0
   10.0256    7.2907   20.8484 C   0  0  0  0  0  0  0  0  0  0  0  0
    9.3113    5.3049   14.4911 C   0  0  0  0  0  0  0  0  0  0  0  0
    9.4607    7.5646   16.0139 C   0  0  0  0  0  0  0  0  0  0  0  0
   10.4192    7.3157   15.0955 C   0  0  0  0  0  0  0  0  0  0  0  0
   10.2489    6.4227   23.0218 N   0  0  0  0  0  0  0  0  0  0  0  0
    7.2472    8.0746   23.5050 C   0  0  0  0  0  0  0  0  0  0  0  0
    9.2051    6.9101   23.4604 C   0  0  0  0  0  0  0  0  0  0  0  0
   11.9646    6.0299   21.4251 C   0  0  0  0  0  0  0  0  0  0  0  0
  1  5  1  0
  1 13  1  0
  2 20  2  0
  2 28  1  0
  2 29  1  0
  3 19  4  0
  3 25  4  0
  4 23  4  0
  4 27  1  0
  4 30  4  0
  5 17  1  0
  6  8  1  0
  6 29  1  0
  7 24  4  0
  7 26  4  0
  8 28  1  0
  9 13  2  0
 10 18  1  0
 10 21  4  0
 10 30  4  0
 11 17  2  0
 12 18  1  0
 13 15  1  0
 14 24  1  0
 15 25  1  0
 16 28  2  0
 17 20  1  0
 19 24  4  0
 20 23  1  0
 21 22  4  0
 22 23  4  0
 25 26  4  0
 27 29  2  0
M  END
$$$$

 Created by Python create_sdf_string function

 30 33  0  0  0  0  0  0  0  0999 V2000
    8.3036    9.8571   18.4133 C   0  0  0  0  0  0  0  0  0  0  0  0
    8.3694    7.6612   22.6703 C   0  0  0  0  0  0  0  0  0  0  0  0
    8.4143    6.6863   16.2273 C   0  0  0  0  0  0  0  0  0  0  0  0
   10.7581    6.5674   21.7636 C   0  0  0  0  0  0  0  0  0  0  0  0
    8.4452    8.7960   19.2958 O   0  0  0  0  0  0  0  0  0  0  0  0
    8.7122    6.7842   24.8569 C   0  0  0  0  0  0  0  0  0  0  0  0
   10.3400    6.1726   14.3081 C   0  0  0  0  0  0  0  0  0  0  0  0
    7.4297    7.5873   24.8962 C   0  0  0  0  0  0  0  0  0  0  0  0
    8.1566   10.0536   16.0516 O   0  0  0  0  0  0  0  0  0  0  0  0
   12.4989    6.2074   20.1776 C   0  0  0  0  0  0  0  0  0  0  0  0
    6.9192    9.1053   20.9073 O   0  0  0  0  0  0  0  0  0  0  0  0
   14.3979    6.0729   18.7784 C   0  0  0  0  0  0  0  0  0  0  0  0
    8.6811    9.5354   16.9998 C   0  0  0  0  0  0  0  0  0  0  0  0
    9.2512    4.2713   13.7653 O   0  0  0  0  0  0  0  0  0  0  0  0
    9.6495    8.6317   16.8332 N   0  0  0  0  0  0  0  0  0  0  0  0
    6.2934    8.6988   23.1988 O   0  0  0  0  0  0  0  0  0  0  0  0
    7.9806    8.6543   20.5437 C   0  0  0  0  0  0  0  0  0  0  0  0
   13.7270    5.7144   19.8610 O   0  0  0  0  0  0  0  0  0  0  0  0
    8.3351    5.5235   15.4478 C   0  0  0  0  0  0  0  0  0  0  0  0
    8.7700    7.8434   21.3915 C   0  0  0  0  0  0  0  0  0  0  0  0
   11.7856    6.8851   19.2401 C   0  0  0  0  0  0  0  0  0  0  0  0
   10.5281    7.4276   19.5649 C   0  0  0  0  0  0  0  0  0  0  0  0
   10.0256    7.2907   20.8484 C   0  0  0  0  0  0  0  0  0  0  0  0
    9.3113    5.3049   14.4911 C   0  0  0  0  0  0  0  0  0  0  0  0
    9.4607    7.5646   16.0139 C   0  0  0  0  0  0  0  0  0  0  0  0
   10.4192    7.3157   15.0955 C   0  0  0  0  0  0  0  0  0  0  0  0
   10.2489    6.4227   23.0218 N   0  0  0  0  0  0  0  0  0  0  0  0
    7.2472    8.0746   23.5050 C   0  0  0  0  0  0  0  0  0  0  0  0
    9.2051    6.9101   23.4604 C   0  0  0  0  0  0  0  0  0  0  0  0
   11.9646    6.0299   21.4251 C   0  0  0  0  0  0  0  0  0  0  0  0
  1  5  1  0
  1 13  1  0
  2 20  2  0
  2 28  1  0
  2 29  1  0
  3 19  4  0
  3 25  4  0
  4 23  4  0
  4 27  1  0
  4 30  4  0
  5 17  1  0
  6  8  1  0
  6 29  1  0
  7 24  4  0
  7 26  4  0
  8 28  1  0
  9 13  2  0
 10 18  1  0
 10 21  4  0
 10 30  4  0
 11 17  2  0
 12 18  1  0
 13 15  1  0
 14 24  1  0
 15 25  1  0
 16 28  2  0
 17 20  1  0
 19 24  4  0
 20 23  1  0
 21 22  4  0
 22 23  4  0
 25 26  4  0
 27 29  2  0
M  END
$$$$

 Created by Python create_sdf_string function

 30 33  0  0  0  0  0  0  0  0999 V2000
    8.3036    9.8571   18.4133 C   0  0  0  0  0  0  0  0  0  0  0  0
    8.3694    7.6612   22.6703 C   0  0  0  0  0  0  0  0  0  0  0  0
    8.4143    6.6863   16.2273 C   0  0  0  0  0  0  0  0  0  0  0  0
   10.7581    6.5674   21.7636 C   0  0  0  0  0  0  0  0  0  0  0  0
    8.4452    8.7960   19.2958 O   0  0  0  0  0  0  0  0  0  0  0  0
    8.7122    6.7842   24.8569 C   0  0  0  0  0  0  0  0  0  0  0  0
   10.3400    6.1726   14.3081 C   0  0  0  0  0  0  0  0  0  0  0  0
    7.4297    7.5873   24.8962 C   0  0  0  0  0  0  0  0  0  0  0  0
    8.1566   10.0536   16.0516 O   0  0  0  0  0  0  0  0  0  0  0  0
   12.4989    6.2074   20.1776 C   0  0  0  0  0  0  0  0  0  0  0  0
    6.9192    9.1053   20.9073 O   0  0  0  0  0  0  0  0  0  0  0  0
   14.3979    6.0729   18.7784 C   0  0  0  0  0  0  0  0  0  0  0  0
    8.6811    9.5354   16.9998 C   0  0  0  0  0  0  0  0  0  0  0  0
    9.2512    4.2713   13.7653 O   0  0  0  0  0  0  0  0  0  0  0  0
    9.6495    8.6317   16.8332 N   0  0  0  0  0  0  0  0  0  0  0  0
    6.2934    8.6988   23.1988 O   0  0  0  0  0  0  0  0  0  0  0  0
    7.9806    8.6543   20.5437 C   0  0  0  0  0  0  0  0  0  0  0  0
   13.7270    5.7144   19.8610 O   0  0  0  0  0  0  0  0  0  0  0  0
    8.3351    5.5235   15.4478 C   0  0  0  0  0  0  0  0  0  0  0  0
    8.7700    7.8434   21.3915 C   0  0  0  0  0  0  0  0  0  0  0  0
   11.7856    6.8851   19.2401 C   0  0  0  0  0  0  0  0  0  0  0  0
   10.5281    7.4276   19.5649 C   0  0  0  0  0  0  0  0  0  0  0  0
   10.0256    7.2907   20.8484 C   0  0  0  0  0  0  0  0  0  0  0  0
    9.3113    5.3049   14.4911 C   0  0  0  0  0  0  0  0  0  0  0  0
    9.4607    7.5646   16.0139 C   0  0  0  0  0  0  0  0  0  0  0  0
   10.4192    7.3157   15.0955 C   0  0  0  0  0  0  0  0  0  0  0  0
   10.2489    6.4227   23.0218 N   0  0  0  0  0  0  0  0  0  0  0  0
    7.2472    8.0746   23.5050 C   0  0  0  0  0  0  0  0  0  0  0  0
    9.2051    6.9101   23.4604 C   0  0  0  0  0  0  0  0  0  0  0  0
   11.9646    6.0299   21.4251 C   0  0  0  0  0  0  0  0  0  0  0  0
  1  5  1  0
  1 13  1  0
  2 20  2  0
  2 28  1  0
  2 29  1  0
  3 19  4  0
  3 25  4  0
  4 23  4  0
  4 27  1  0
  4 30  4  0
  5 17  1  0
  6  8  1  0
  6 29  1  0
  7 24  4  0
  7 26  4  0
  8 28  1  0
  9 13  2  0
 10 18  1  0
 10 21  4  0
 10 30  4  0
 11 17  2  0
 12 18  1  0
 13 15  1  0
 14 24  1  0
 15 25  1  0
 16 28  2  0
 17 20  1  0
 19 24  4  0
 20 23  1  0
 21 22  4  0
 22 23  4  0
 25 26  4  0
 27 29  2  0
M  END
$$$$

 Created by Python create_sdf_string function

 30 33  0  0  0  0  0  0  0  0999 V2000
    8.3036    9.8571   18.4133 C   0  0  0  0  0  0  0  0  0  0  0  0
    8.3694    7.6612   22.6703 C   0  0  0  0  0  0  0  0  0  0  0  0
    8.4143    6.6863   16.2273 C   0  0  0  0  0  0  0  0  0  0  0  0
   10.7581    6.5674   21.7636 C   0  0  0  0  0  0  0  0  0  0  0  0
    8.4452    8.7960   19.2958 O   0  0  0  0  0  0  0  0  0  0  0  0
    8.7122    6.7842   24.8569 C   0  0  0  0  0  0  0  0  0  0  0  0
   10.3400    6.1726   14.3081 C   0  0  0  0  0  0  0  0  0  0  0  0
    7.4297    7.5873   24.8962 C   0  0  0  0  0  0  0  0  0  0  0  0
    8.1566   10.0536   16.0516 O   0  0  0  0  0  0  0  0  0  0  0  0
   12.4989    6.2074   20.1776 C   0  0  0  0  0  0  0  0  0  0  0  0
    6.9192    9.1053   20.9073 O   0  0  0  0  0  0  0  0  0  0  0  0
   14.3979    6.0729   18.7784 C   0  0  0  0  0  0  0  0  0  0  0  0
    8.6811    9.5354   16.9998 C   0  0  0  0  0  0  0  0  0  0  0  0
    9.2512    4.2713   13.7653 O   0  0  0  0  0  0  0  0  0  0  0  0
    9.6495    8.6317   16.8332 N   0  0  0  0  0  0  0  0  0  0  0  0
    6.2934    8.6988   23.1988 O   0  0  0  0  0  0  0  0  0  0  0  0
    7.9806    8.6543   20.5437 C   0  0  0  0  0  0  0  0  0  0  0  0
   13.7270    5.7144   19.8610 O   0  0  0  0  0  0  0  0  0  0  0  0
    8.3351    5.5235   15.4478 C   0  0  0  0  0  0  0  0  0  0  0  0
    8.7700    7.8434   21.3915 C   0  0  0  0  0  0  0  0  0  0  0  0
   11.7856    6.8851   19.2401 C   0  0  0  0  0  0  0  0  0  0  0  0
   10.5281    7.4276   19.5649 C   0  0  0  0  0  0  0  0  0  0  0  0
   10.0256    7.2907   20.8484 C   0  0  0  0  0  0  0  0  0  0  0  0
    9.3113    5.3049   14.4911 C   0  0  0  0  0  0  0  0  0  0  0  0
    9.4607    7.5646   16.0139 C   0  0  0  0  0  0  0  0  0  0  0  0
   10.4192    7.3157   15.0955 C   0  0  0  0  0  0  0  0  0  0  0  0
   10.2489    6.4227   23.0218 N   0  0  0  0  0  0  0  0  0  0  0  0
    7.2472    8.0746   23.5050 C   0  0  0  0  0  0  0  0  0  0  0  0
    9.2051    6.9101   23.4604 C   0  0  0  0  0  0  0  0  0  0  0  0
   11.9646    6.0299   21.4251 C   0  0  0  0  0  0  0  0  0  0  0  0
  1  5  1  0
  1 13  1  0
  2 20  2  0
  2 28  1  0
  2 29  1  0
  3 19  4  0
  3 25  4  0
  4 23  4  0
  4 27  1  0
  4 30  4  0
  5 17  1  0
  6  8  1  0
  6 29  1  0
  7 24  4  0
  7 26  4  0
  8 28  1  0
  9 13  2  0
 10 18  1  0
 10 21  4  0
 10 30  4  0
 11 17  2  0
 12 18  1  0
 13 15  1  0
 14 24  1  0
 15 25  1  0
 16 28  2  0
 17 20  1  0
 19 24  4  0
 20 23  1  0
 21 22  4  0
 22 23  4  0
 25 26  4  0
 27 29  2  0
M  END
$$$$

 Created by Python create_sdf_string function

 30 33  0  0  0  0  0  0  0  0999 V2000
    8.3036    9.8571   18.4133 C   0  0  0  0  0  0  0  0  0  0  0  0
    8.3694    7.6612   22.6703 C   0  0  0  0  0  0  0  0  0  0  0  0
    8.4143    6.6863   16.2273 C   0  0  0  0  0  0  0  0  0  0  0  0
   10.7581    6.5674   21.7636 C   0  0  0  0  0  0  0  0  0  0  0  0
    8.4452    8.7960   19.2958 O   0  0  0  0  0  0  0  0  0  0  0  0
    8.7122    6.7842   24.8569 C   0  0  0  0  0  0  0  0  0  0  0  0
   10.3400    6.1726   14.3081 C   0  0  0  0  0  0  0  0  0  0  0  0
    7.4297    7.5873   24.8962 C   0  0  0  0  0  0  0  0  0  0  0  0
    8.1566   10.0536   16.0516 O   0  0  0  0  0  0  0  0  0  0  0  0
   12.4989    6.2074   20.1776 C   0  0  0  0  0  0  0  0  0  0  0  0
    6.9192    9.1053   20.9073 O   0  0  0  0  0  0  0  0  0  0  0  0
   14.3979    6.0729   18.7784 C   0  0  0  0  0  0  0  0  0  0  0  0
    8.6811    9.5354   16.9998 C   0  0  0  0  0  0  0  0  0  0  0  0
    9.2512    4.2713   13.7653 O   0  0  0  0  0  0  0  0  0  0  0  0
    9.6495    8.6317   16.8332 N   0  0  0  0  0  0  0  0  0  0  0  0
    6.2934    8.6988   23.1988 O   0  0  0  0  0  0  0  0  0  0  0  0
    7.9806    8.6543   20.5437 C   0  0  0  0  0  0  0  0  0  0  0  0
   13.7270    5.7144   19.8610 O   0  0  0  0  0  0  0  0  0  0  0  0
    8.3351    5.5235   15.4478 C   0  0  0  0  0  0  0  0  0  0  0  0
    8.7700    7.8434   21.3915 C   0  0  0  0  0  0  0  0  0  0  0  0
   11.7856    6.8851   19.2401 C   0  0  0  0  0  0  0  0  0  0  0  0
   10.5281    7.4276   19.5649 C   0  0  0  0  0  0  0  0  0  0  0  0
   10.0256    7.2907   20.8484 C   0  0  0  0  0  0  0  0  0  0  0  0
    9.3113    5.3049   14.4911 C   0  0  0  0  0  0  0  0  0  0  0  0
    9.4607    7.5646   16.0139 C   0  0  0  0  0  0  0  0  0  0  0  0
   10.4192    7.3157   15.0955 C   0  0  0  0  0  0  0  0  0  0  0  0
   10.2489    6.4227   23.0218 N   0  0  0  0  0  0  0  0  0  0  0  0
    7.2472    8.0746   23.5050 C   0  0  0  0  0  0  0  0  0  0  0  0
    9.2051    6.9101   23.4604 C   0  0  0  0  0  0  0  0  0  0  0  0
   11.9646    6.0299   21.4251 C   0  0  0  0  0  0  0  0  0  0  0  0
  1  5  1  0
  1 13  1  0
  2 20  2  0
  2 28  1  0
  2 29  1  0
  3 19  4  0
  3 25  4  0
  4 23  4  0
  4 27  1  0
  4 30  4  0
  5 17  1  0
  6  8  1  0
  6 29  1  0
  7 24  4  0
  7 26  4  0
  8 28  1  0
  9 13  2  0
 10 18  1  0
 10 21  4  0
 10 30  4  0
 11 17  2  0
 12 18  1  0
 13 15  1  0
 14 24  1  0
 15 25  1  0
 16 28  2  0
 17 20  1  0
 19 24  4  0
 20 23  1  0
 21 22  4  0
 22 23  4  0
 25 26  4  0
 27 29  2  0
M  END
$$$$

 Created by Python create_sdf_string function

 30 33  0  0  0  0  0  0  0  0999 V2000
    8.3036    9.8571   18.4133 C   0  0  0  0  0  0  0  0  0  0  0  0
    8.3694    7.6612   22.6703 C   0  0  0  0  0  0  0  0  0  0  0  0
    8.4143    6.6863   16.2273 C   0  0  0  0  0  0  0  0  0  0  0  0
   10.7581    6.5674   21.7636 C   0  0  0  0  0  0  0  0  0  0  0  0
    8.4452    8.7960   19.2958 O   0  0  0  0  0  0  0  0  0  0  0  0
    8.7122    6.7842   24.8569 C   0  0  0  0  0  0  0  0  0  0  0  0
   10.3400    6.1726   14.3081 C   0  0  0  0  0  0  0  0  0  0  0  0
    7.4297    7.5873   24.8962 C   0  0  0  0  0  0  0  0  0  0  0  0
    8.1566   10.0536   16.0516 O   0  0  0  0  0  0  0  0  0  0  0  0
   12.4989    6.2074   20.1776 C   0  0  0  0  0  0  0  0  0  0  0  0
    6.9192    9.1053   20.9073 O   0  0  0  0  0  0  0  0  0  0  0  0
   14.3979    6.0729   18.7784 C   0  0  0  0  0  0  0  0  0  0  0  0
    8.6811    9.5354   16.9998 C   0  0  0  0  0  0  0  0  0  0  0  0
    9.2512    4.2713   13.7653 O   0  0  0  0  0  0  0  0  0  0  0  0
    9.6495    8.6317   16.8332 N   0  0  0  0  0  0  0  0  0  0  0  0
    6.2934    8.6988   23.1988 O   0  0  0  0  0  0  0  0  0  0  0  0
    7.9806    8.6543   20.5437 C   0  0  0  0  0  0  0  0  0  0  0  0
   13.7270    5.7144   19.8610 O   0  0  0  0  0  0  0  0  0  0  0  0
    8.3351    5.5235   15.4478 C   0  0  0  0  0  0  0  0  0  0  0  0
    8.7700    7.8434   21.3915 C   0  0  0  0  0  0  0  0  0  0  0  0
   11.7856    6.8851   19.2401 C   0  0  0  0  0  0  0  0  0  0  0  0
   10.5281    7.4276   19.5649 C   0  0  0  0  0  0  0  0  0  0  0  0
   10.0256    7.2907   20.8484 C   0  0  0  0  0  0  0  0  0  0  0  0
    9.3113    5.3049   14.4911 C   0  0  0  0  0  0  0  0  0  0  0  0
    9.4607    7.5646   16.0139 C   0  0  0  0  0  0  0  0  0  0  0  0
   10.4192    7.3157   15.0955 C   0  0  0  0  0  0  0  0  0  0  0  0
   10.2489    6.4227   23.0218 N   0  0  0  0  0  0  0  0  0  0  0  0
    7.2472    8.0746   23.5050 C   0  0  0  0  0  0  0  0  0  0  0  0
    9.2051    6.9101   23.4604 C   0  0  0  0  0  0  0  0  0  0  0  0
   11.9646    6.0299   21.4251 C   0  0  0  0  0  0  0  0  0  0  0  0
  1  5  1  0
  1 13  1  0
  2 20  2  0
  2 28  1  0
  2 29  1  0
  3 19  4  0
  3 25  4  0
  4 23  4  0
  4 27  1  0
  4 30  4  0
  5 17  1  0
  6  8  1  0
  6 29  1  0
  7 24  4  0
  7 26  4  0
  8 28  1  0
  9 13  2  0
 10 18  1  0
 10 21  4  0
 10 30  4  0
 11 17  2  0
 12 18  1  0
 13 15  1  0
 14 24  1  0
 15 25  1  0
 16 28  2  0
 17 20  1  0
 19 24  4  0
 20 23  1  0
 21 22  4  0
 22 23  4  0
 25 26  4  0
 27 29  2  0
M  END
$$$$

 Created by Python create_sdf_string function

 30 33  0  0  0  0  0  0  0  0999 V2000
    8.3036    9.8571   18.4133 C   0  0  0  0  0  0  0  0  0  0  0  0
    8.3694    7.6612   22.6703 C   0  0  0  0  0  0  0  0  0  0  0  0
    8.4143    6.6863   16.2273 C   0  0  0  0  0  0  0  0  0  0  0  0
   10.7581    6.5674   21.7636 C   0  0  0  0  0  0  0  0  0  0  0  0
    8.4452    8.7960   19.2958 O   0  0  0  0  0  0  0  0  0  0  0  0
    8.7122    6.7842   24.8569 C   0  0  0  0  0  0  0  0  0  0  0  0
   10.3400    6.1726   14.3081 C   0  0  0  0  0  0  0  0  0  0  0  0
    7.4297    7.5873   24.8962 C   0  0  0  0  0  0  0  0  0  0  0  0
    8.1566   10.0536   16.0516 O   0  0  0  0  0  0  0  0  0  0  0  0
   12.4989    6.2074   20.1776 C   0  0  0  0  0  0  0  0  0  0  0  0
    6.9192    9.1053   20.9073 O   0  0  0  0  0  0  0  0  0  0  0  0
   14.3979    6.0729   18.7784 C   0  0  0  0  0  0  0  0  0  0  0  0
    8.6811    9.5354   16.9998 C   0  0  0  0  0  0  0  0  0  0  0  0
    9.2512    4.2713   13.7653 O   0  0  0  0  0  0  0  0  0  0  0  0
    9.6495    8.6317   16.8332 N   0  0  0  0  0  0  0  0  0  0  0  0
    6.2934    8.6988   23.1988 O   0  0  0  0  0  0  0  0  0  0  0  0
    7.9806    8.6543   20.5437 C   0  0  0  0  0  0  0  0  0  0  0  0
   13.7270    5.7144   19.8610 O   0  0  0  0  0  0  0  0  0  0  0  0
    8.3351    5.5235   15.4478 C   0  0  0  0  0  0  0  0  0  0  0  0
    8.7700    7.8434   21.3915 C   0  0  0  0  0  0  0  0  0  0  0  0
   11.7856    6.8851   19.2401 C   0  0  0  0  0  0  0  0  0  0  0  0
   10.5281    7.4276   19.5649 C   0  0  0  0  0  0  0  0  0  0  0  0
   10.0256    7.2907   20.8484 C   0  0  0  0  0  0  0  0  0  0  0  0
    9.3113    5.3049   14.4911 C   0  0  0  0  0  0  0  0  0  0  0  0
    9.4607    7.5646   16.0139 C   0  0  0  0  0  0  0  0  0  0  0  0
   10.4192    7.3157   15.0955 C   0  0  0  0  0  0  0  0  0  0  0  0
   10.2489    6.4227   23.0218 N   0  0  0  0  0  0  0  0  0  0  0  0
    7.2472    8.0746   23.5050 C   0  0  0  0  0  0  0  0  0  0  0  0
    9.2051    6.9101   23.4604 C   0  0  0  0  0  0  0  0  0  0  0  0
   11.9646    6.0299   21.4251 C   0  0  0  0  0  0  0  0  0  0  0  0
  1  5  1  0
  1 13  1  0
  2 20  2  0
  2 28  1  0
  2 29  1  0
  3 19  4  0
  3 25  4  0
  4 23  4  0
  4 27  1  0
  4 30  4  0
  5 17  1  0
  6  8  1  0
  6 29  1  0
  7 24  4  0
  7 26  4  0
  8 28  1  0
  9 13  2  0
 10 18  1  0
 10 21  4  0
 10 30  4  0
 11 17  2  0
 12 18  1  0
 13 15  1  0
 14 24  1  0
 15 25  1  0
 16 28  2  0
 17 20  1  0
 19 24  4  0
 20 23  1  0
 21 22  4  0
 22 23  4  0
 25 26  4  0
 27 29  2  0
M  END
$$$$

 Created by Python create_sdf_string function

 30 33  0  0  0  0  0  0  0  0999 V2000
    8.3036    9.8571   18.4133 C   0  0  0  0  0  0  0  0  0  0  0  0
    8.3694    7.6612   22.6703 C   0  0  0  0  0  0  0  0  0  0  0  0
    8.4143    6.6863   16.2273 C   0  0  0  0  0  0  0  0  0  0  0  0
   10.7581    6.5674   21.7636 C   0  0  0  0  0  0  0  0  0  0  0  0
    8.4452    8.7960   19.2958 O   0  0  0  0  0  0  0  0  0  0  0  0
    8.7122    6.7842   24.8569 C   0  0  0  0  0  0  0  0  0  0  0  0
   10.3400    6.1726   14.3081 C   0  0  0  0  0  0  0  0  0  0  0  0
    7.4297    7.5873   24.8962 C   0  0  0  0  0  0  0  0  0  0  0  0
    8.1566   10.0536   16.0516 O   0  0  0  0  0  0  0  0  0  0  0  0
   12.4989    6.2074   20.1776 C   0  0  0  0  0  0  0  0  0  0  0  0
    6.9192    9.1053   20.9073 O   0  0  0  0  0  0  0  0  0  0  0  0
   14.3979    6.0729   18.7784 C   0  0  0  0  0  0  0  0  0  0  0  0
    8.6811    9.5354   16.9998 C   0  0  0  0  0  0  0  0  0  0  0  0
    9.2512    4.2713   13.7653 O   0  0  0  0  0  0  0  0  0  0  0  0
    9.6495    8.6317   16.8332 N   0  0  0  0  0  0  0  0  0  0  0  0
    6.2934    8.6988   23.1988 O   0  0  0  0  0  0  0  0  0  0  0  0
    7.9806    8.6543   20.5437 C   0  0  0  0  0  0  0  0  0  0  0  0
   13.7270    5.7144   19.8610 O   0  0  0  0  0  0  0  0  0  0  0  0
    8.3351    5.5235   15.4478 C   0  0  0  0  0  0  0  0  0  0  0  0
    8.7700    7.8434   21.3915 C   0  0  0  0  0  0  0  0  0  0  0  0
   11.7856    6.8851   19.2401 C   0  0  0  0  0  0  0  0  0  0  0  0
   10.5281    7.4276   19.5649 C   0  0  0  0  0  0  0  0  0  0  0  0
   10.0256    7.2907   20.8484 C   0  0  0  0  0  0  0  0  0  0  0  0
    9.3113    5.3049   14.4911 C   0  0  0  0  0  0  0  0  0  0  0  0
    9.4607    7.5646   16.0139 C   0  0  0  0  0  0  0  0  0  0  0  0
   10.4192    7.3157   15.0955 C   0  0  0  0  0  0  0  0  0  0  0  0
   10.2489    6.4227   23.0218 N   0  0  0  0  0  0  0  0  0  0  0  0
    7.2472    8.0746   23.5050 C   0  0  0  0  0  0  0  0  0  0  0  0
    9.2051    6.9101   23.4604 C   0  0  0  0  0  0  0  0  0  0  0  0
   11.9646    6.0299   21.4251 C   0  0  0  0  0  0  0  0  0  0  0  0
  1  5  1  0
  1 13  1  0
  2 20  2  0
  2 28  1  0
  2 29  1  0
  3 19  4  0
  3 25  4  0
  4 23  4  0
  4 27  1  0
  4 30  4  0
  5 17  1  0
  6  8  1  0
  6 29  1  0
  7 24  4  0
  7 26  4  0
  8 28  1  0
  9 13  2  0
 10 18  1  0
 10 21  4  0
 10 30  4  0
 11 17  2  0
 12 18  1  0
 13 15  1  0
 14 24  1  0
 15 25  1  0
 16 28  2  0
 17 20  1  0
 19 24  4  0
 20 23  1  0
 21 22  4  0
 22 23  4  0
 25 26  4  0
 27 29  2  0
M  END
$$$$

 Created by Python create_sdf_string function

 30 33  0  0  0  0  0  0  0  0999 V2000
    8.3036    9.8571   18.4133 C   0  0  0  0  0  0  0  0  0  0  0  0
    8.3694    7.6612   22.6703 C   0  0  0  0  0  0  0  0  0  0  0  0
    8.4143    6.6863   16.2273 C   0  0  0  0  0  0  0  0  0  0  0  0
   10.7581    6.5674   21.7636 C   0  0  0  0  0  0  0  0  0  0  0  0
    8.4452    8.7960   19.2958 O   0  0  0  0  0  0  0  0  0  0  0  0
    8.7122    6.7842   24.8569 C   0  0  0  0  0  0  0  0  0  0  0  0
   10.3400    6.1726   14.3081 C   0  0  0  0  0  0  0  0  0  0  0  0
    7.4297    7.5873   24.8962 C   0  0  0  0  0  0  0  0  0  0  0  0
    8.1566   10.0536   16.0516 O   0  0  0  0  0  0  0  0  0  0  0  0
   12.4989    6.2074   20.1776 C   0  0  0  0  0  0  0  0  0  0  0  0
    6.9192    9.1053   20.9073 O   0  0  0  0  0  0  0  0  0  0  0  0
   14.3979    6.0729   18.7784 C   0  0  0  0  0  0  0  0  0  0  0  0
    8.6811    9.5354   16.9998 C   0  0  0  0  0  0  0  0  0  0  0  0
    9.2512    4.2713   13.7653 O   0  0  0  0  0  0  0  0  0  0  0  0
    9.6495    8.6317   16.8332 N   0  0  0  0  0  0  0  0  0  0  0  0
    6.2934    8.6988   23.1988 O   0  0  0  0  0  0  0  0  0  0  0  0
    7.9806    8.6543   20.5437 C   0  0  0  0  0  0  0  0  0  0  0  0
   13.7270    5.7144   19.8610 O   0  0  0  0  0  0  0  0  0  0  0  0
    8.3351    5.5235   15.4478 C   0  0  0  0  0  0  0  0  0  0  0  0
    8.7700    7.8434   21.3915 C   0  0  0  0  0  0  0  0  0  0  0  0
   11.7856    6.8851   19.2401 C   0  0  0  0  0  0  0  0  0  0  0  0
   10.5281    7.4276   19.5649 C   0  0  0  0  0  0  0  0  0  0  0  0
   10.0256    7.2907   20.8484 C   0  0  0  0  0  0  0  0  0  0  0  0
    9.3113    5.3049   14.4911 C   0  0  0  0  0  0  0  0  0  0  0  0
    9.4607    7.5646   16.0139 C   0  0  0  0  0  0  0  0  0  0  0  0
   10.4192    7.3157   15.0955 C   0  0  0  0  0  0  0  0  0  0  0  0
   10.2489    6.4227   23.0218 N   0  0  0  0  0  0  0  0  0  0  0  0
    7.2472    8.0746   23.5050 C   0  0  0  0  0  0  0  0  0  0  0  0
    9.2051    6.9101   23.4604 C   0  0  0  0  0  0  0  0  0  0  0  0
   11.9646    6.0299   21.4251 C   0  0  0  0  0  0  0  0  0  0  0  0
  1  5  1  0
  1 13  1  0
  2 20  2  0
  2 28  1  0
  2 29  1  0
  3 19  4  0
  3 25  4  0
  4 23  4  0
  4 27  1  0
  4 30  4  0
  5 17  1  0
  6  8  1  0
  6 29  1  0
  7 24  4  0
  7 26  4  0
  8 28  1  0
  9 13  2  0
 10 18  1  0
 10 21  4  0
 10 30  4  0
 11 17  2  0
 12 18  1  0
 13 15  1  0
 14 24  1  0
 15 25  1  0
 16 28  2  0
 17 20  1  0
 19 24  4  0
 20 23  1  0
 21 22  4  0
 22 23  4  0
 25 26  4  0
 27 29  2  0
M  END
$$$$

 Created by Python create_sdf_string function

 30 33  0  0  0  0  0  0  0  0999 V2000
    8.3036    9.8571   18.4133 C   0  0  0  0  0  0  0  0  0  0  0  0
    8.3694    7.6612   22.6703 C   0  0  0  0  0  0  0  0  0  0  0  0
    8.4143    6.6863   16.2273 C   0  0  0  0  0  0  0  0  0  0  0  0
   10.7581    6.5674   21.7636 C   0  0  0  0  0  0  0  0  0  0  0  0
    8.4452    8.7960   19.2958 O   0  0  0  0  0  0  0  0  0  0  0  0
    8.7122    6.7842   24.8569 C   0  0  0  0  0  0  0  0  0  0  0  0
   10.3400    6.1726   14.3081 C   0  0  0  0  0  0  0  0  0  0  0  0
    7.4297    7.5873   24.8962 C   0  0  0  0  0  0  0  0  0  0  0  0
    8.1566   10.0536   16.0516 O   0  0  0  0  0  0  0  0  0  0  0  0
   12.4989    6.2074   20.1776 C   0  0  0  0  0  0  0  0  0  0  0  0
    6.9192    9.1053   20.9073 O   0  0  0  0  0  0  0  0  0  0  0  0
   14.3979    6.0729   18.7784 C   0  0  0  0  0  0  0  0  0  0  0  0
    8.6811    9.5354   16.9998 C   0  0  0  0  0  0  0  0  0  0  0  0
    9.2512    4.2713   13.7653 O   0  0  0  0  0  0  0  0  0  0  0  0
    9.6495    8.6317   16.8332 N   0  0  0  0  0  0  0  0  0  0  0  0
    6.2934    8.6988   23.1988 O   0  0  0  0  0  0  0  0  0  0  0  0
    7.9806    8.6543   20.5437 C   0  0  0  0  0  0  0  0  0  0  0  0
   13.7270    5.7144   19.8610 O   0  0  0  0  0  0  0  0  0  0  0  0
    8.3351    5.5235   15.4478 C   0  0  0  0  0  0  0  0  0  0  0  0
    8.7700    7.8434   21.3915 C   0  0  0  0  0  0  0  0  0  0  0  0
   11.7856    6.8851   19.2401 C   0  0  0  0  0  0  0  0  0  0  0  0
   10.5281    7.4276   19.5649 C   0  0  0  0  0  0  0  0  0  0  0  0
   10.0256    7.2907   20.8484 C   0  0  0  0  0  0  0  0  0  0  0  0
    9.3113    5.3049   14.4911 C   0  0  0  0  0  0  0  0  0  0  0  0
    9.4607    7.5646   16.0139 C   0  0  0  0  0  0  0  0  0  0  0  0
   10.4192    7.3157   15.0955 C   0  0  0  0  0  0  0  0  0  0  0  0
   10.2489    6.4227   23.0218 N   0  0  0  0  0  0  0  0  0  0  0  0
    7.2472    8.0746   23.5050 C   0  0  0  0  0  0  0  0  0  0  0  0
    9.2051    6.9101   23.4604 C   0  0  0  0  0  0  0  0  0  0  0  0
   11.9646    6.0299   21.4251 C   0  0  0  0  0  0  0  0  0  0  0  0
  1  5  1  0
  1 13  1  0
  2 20  2  0
  2 28  1  0
  2 29  1  0
  3 19  4  0
  3 25  4  0
  4 23  4  0
  4 27  1  0
  4 30  4  0
  5 17  1  0
  6  8  1  0
  6 29  1  0
  7 24  4  0
  7 26  4  0
  8 28  1  0
  9 13  2  0
 10 18  1  0
 10 21  4  0
 10 30  4  0
 11 17  2  0
 12 18  1  0
 13 15  1  0
 14 24  1  0
 15 25  1  0
 16 28  2  0
 17 20  1  0
 19 24  4  0
 20 23  1  0
 21 22  4  0
 22 23  4  0
 25 26  4  0
 27 29  2  0
M  END
$$$$

 Created by Python create_sdf_string function

 30 33  0  0  0  0  0  0  0  0999 V2000
    8.3036    9.8571   18.4133 C   0  0  0  0  0  0  0  0  0  0  0  0
    8.3694    7.6612   22.6703 C   0  0  0  0  0  0  0  0  0  0  0  0
    8.4143    6.6863   16.2273 C   0  0  0  0  0  0  0  0  0  0  0  0
   10.7581    6.5674   21.7636 C   0  0  0  0  0  0  0  0  0  0  0  0
    8.4452    8.7960   19.2958 O   0  0  0  0  0  0  0  0  0  0  0  0
    8.7122    6.7842   24.8569 C   0  0  0  0  0  0  0  0  0  0  0  0
   10.3400    6.1726   14.3081 C   0  0  0  0  0  0  0  0  0  0  0  0
    7.4297    7.5873   24.8962 C   0  0  0  0  0  0  0  0  0  0  0  0
    8.1566   10.0536   16.0516 O   0  0  0  0  0  0  0  0  0  0  0  0
   12.4989    6.2074   20.1776 C   0  0  0  0  0  0  0  0  0  0  0  0
    6.9192    9.1053   20.9073 O   0  0  0  0  0  0  0  0  0  0  0  0
   14.3979    6.0729   18.7784 C   0  0  0  0  0  0  0  0  0  0  0  0
    8.6811    9.5354   16.9998 C   0  0  0  0  0  0  0  0  0  0  0  0
    9.2512    4.2713   13.7653 O   0  0  0  0  0  0  0  0  0  0  0  0
    9.6495    8.6317   16.8332 N   0  0  0  0  0  0  0  0  0  0  0  0
    6.2934    8.6988   23.1988 O   0  0  0  0  0  0  0  0  0  0  0  0
    7.9806    8.6543   20.5437 C   0  0  0  0  0  0  0  0  0  0  0  0
   13.7270    5.7144   19.8610 O   0  0  0  0  0  0  0  0  0  0  0  0
    8.3351    5.5235   15.4478 C   0  0  0  0  0  0  0  0  0  0  0  0
    8.7700    7.8434   21.3915 C   0  0  0  0  0  0  0  0  0  0  0  0
   11.7856    6.8851   19.2401 C   0  0  0  0  0  0  0  0  0  0  0  0
   10.5281    7.4276   19.5649 C   0  0  0  0  0  0  0  0  0  0  0  0
   10.0256    7.2907   20.8484 C   0  0  0  0  0  0  0  0  0  0  0  0
    9.3113    5.3049   14.4911 C   0  0  0  0  0  0  0  0  0  0  0  0
    9.4607    7.5646   16.0139 C   0  0  0  0  0  0  0  0  0  0  0  0
   10.4192    7.3157   15.0955 C   0  0  0  0  0  0  0  0  0  0  0  0
   10.2489    6.4227   23.0218 N   0  0  0  0  0  0  0  0  0  0  0  0
    7.2472    8.0746   23.5050 C   0  0  0  0  0  0  0  0  0  0  0  0
    9.2051    6.9101   23.4604 C   0  0  0  0  0  0  0  0  0  0  0  0
   11.9646    6.0299   21.4251 C   0  0  0  0  0  0  0  0  0  0  0  0
  1  5  1  0
  1 13  1  0
  2 20  2  0
  2 28  1  0
  2 29  1  0
  3 19  4  0
  3 25  4  0
  4 23  4  0
  4 27  1  0
  4 30  4  0
  5 17  1  0
  6  8  1  0
  6 29  1  0
  7 24  4  0
  7 26  4  0
  8 28  1  0
  9 13  2  0
 10 18  1  0
 10 21  4  0
 10 30  4  0
 11 17  2  0
 12 18  1  0
 13 15  1  0
 14 24  1  0
 15 25  1  0
 16 28  2  0
 17 20  1  0
 19 24  4  0
 20 23  1  0
 21 22  4  0
 22 23  4  0
 25 26  4  0
 27 29  2  0
M  END
$$$$

 Created by Python create_sdf_string function

 30 33  0  0  0  0  0  0  0  0999 V2000
    8.3036    9.8571   18.4133 C   0  0  0  0  0  0  0  0  0  0  0  0
    8.3694    7.6612   22.6703 C   0  0  0  0  0  0  0  0  0  0  0  0
    8.4143    6.6863   16.2273 C   0  0  0  0  0  0  0  0  0  0  0  0
   10.7581    6.5674   21.7636 C   0  0  0  0  0  0  0  0  0  0  0  0
    8.4452    8.7960   19.2958 O   0  0  0  0  0  0  0  0  0  0  0  0
    8.7122    6.7842   24.8569 C   0  0  0  0  0  0  0  0  0  0  0  0
   10.3400    6.1726   14.3081 C   0  0  0  0  0  0  0  0  0  0  0  0
    7.4297    7.5873   24.8962 C   0  0  0  0  0  0  0  0  0  0  0  0
    8.1566   10.0536   16.0516 O   0  0  0  0  0  0  0  0  0  0  0  0
   12.4989    6.2074   20.1776 C   0  0  0  0  0  0  0  0  0  0  0  0
    6.9192    9.1053   20.9073 O   0  0  0  0  0  0  0  0  0  0  0  0
   14.3979    6.0729   18.7784 C   0  0  0  0  0  0  0  0  0  0  0  0
    8.6811    9.5354   16.9998 C   0  0  0  0  0  0  0  0  0  0  0  0
    9.2512    4.2713   13.7653 O   0  0  0  0  0  0  0  0  0  0  0  0
    9.6495    8.6317   16.8332 N   0  0  0  0  0  0  0  0  0  0  0  0
    6.2934    8.6988   23.1988 O   0  0  0  0  0  0  0  0  0  0  0  0
    7.9806    8.6543   20.5437 C   0  0  0  0  0  0  0  0  0  0  0  0
   13.7270    5.7144   19.8610 O   0  0  0  0  0  0  0  0  0  0  0  0
    8.3351    5.5235   15.4478 C   0  0  0  0  0  0  0  0  0  0  0  0
    8.7700    7.8434   21.3915 C   0  0  0  0  0  0  0  0  0  0  0  0
   11.7856    6.8851   19.2401 C   0  0  0  0  0  0  0  0  0  0  0  0
   10.5281    7.4276   19.5649 C   0  0  0  0  0  0  0  0  0  0  0  0
   10.0256    7.2907   20.8484 C   0  0  0  0  0  0  0  0  0  0  0  0
    9.3113    5.3049   14.4911 C   0  0  0  0  0  0  0  0  0  0  0  0
    9.4607    7.5646   16.0139 C   0  0  0  0  0  0  0  0  0  0  0  0
   10.4192    7.3157   15.0955 C   0  0  0  0  0  0  0  0  0  0  0  0
   10.2489    6.4227   23.0218 N   0  0  0  0  0  0  0  0  0  0  0  0
    7.2472    8.0746   23.5050 C   0  0  0  0  0  0  0  0  0  0  0  0
    9.2051    6.9101   23.4604 C   0  0  0  0  0  0  0  0  0  0  0  0
   11.9646    6.0299   21.4251 C   0  0  0  0  0  0  0  0  0  0  0  0
  1  5  1  0
  1 13  1  0
  2 20  2  0
  2 28  1  0
  2 29  1  0
  3 19  4  0
  3 25  4  0
  4 23  4  0
  4 27  1  0
  4 30  4  0
  5 17  1  0
  6  8  1  0
  6 29  1  0
  7 24  4  0
  7 26  4  0
  8 28  1  0
  9 13  2  0
 10 18  1  0
 10 21  4  0
 10 30  4  0
 11 17  2  0
 12 18  1  0
 13 15  1  0
 14 24  1  0
 15 25  1  0
 16 28  2  0
 17 20  1  0
 19 24  4  0
 20 23  1  0
 21 22  4  0
 22 23  4  0
 25 26  4  0
 27 29  2  0
M  END
$$$$

 Created by Python create_sdf_string function

 30 33  0  0  0  0  0  0  0  0999 V2000
    8.3036    9.8571   18.4133 C   0  0  0  0  0  0  0  0  0  0  0  0
    8.3694    7.6612   22.6703 C   0  0  0  0  0  0  0  0  0  0  0  0
    8.4143    6.6863   16.2273 C   0  0  0  0  0  0  0  0  0  0  0  0
   10.7581    6.5674   21.7636 C   0  0  0  0  0  0  0  0  0  0  0  0
    8.4452    8.7960   19.2958 O   0  0  0  0  0  0  0  0  0  0  0  0
    8.7122    6.7842   24.8569 C   0  0  0  0  0  0  0  0  0  0  0  0
   10.3400    6.1726   14.3081 C   0  0  0  0  0  0  0  0  0  0  0  0
    7.4297    7.5873   24.8962 C   0  0  0  0  0  0  0  0  0  0  0  0
    8.1566   10.0536   16.0516 O   0  0  0  0  0  0  0  0  0  0  0  0
   12.4989    6.2074   20.1776 C   0  0  0  0  0  0  0  0  0  0  0  0
    6.9192    9.1053   20.9073 O   0  0  0  0  0  0  0  0  0  0  0  0
   14.3979    6.0729   18.7784 C   0  0  0  0  0  0  0  0  0  0  0  0
    8.6811    9.5354   16.9998 C   0  0  0  0  0  0  0  0  0  0  0  0
    9.2512    4.2713   13.7653 O   0  0  0  0  0  0  0  0  0  0  0  0
    9.6495    8.6317   16.8332 N   0  0  0  0  0  0  0  0  0  0  0  0
    6.2934    8.6988   23.1988 O   0  0  0  0  0  0  0  0  0  0  0  0
    7.9806    8.6543   20.5437 C   0  0  0  0  0  0  0  0  0  0  0  0
   13.7270    5.7144   19.8610 O   0  0  0  0  0  0  0  0  0  0  0  0
    8.3351    5.5235   15.4478 C   0  0  0  0  0  0  0  0  0  0  0  0
    8.7700    7.8434   21.3915 C   0  0  0  0  0  0  0  0  0  0  0  0
   11.7856    6.8851   19.2401 C   0  0  0  0  0  0  0  0  0  0  0  0
   10.5281    7.4276   19.5649 C   0  0  0  0  0  0  0  0  0  0  0  0
   10.0256    7.2907   20.8484 C   0  0  0  0  0  0  0  0  0  0  0  0
    9.3113    5.3049   14.4911 C   0  0  0  0  0  0  0  0  0  0  0  0
    9.4607    7.5646   16.0139 C   0  0  0  0  0  0  0  0  0  0  0  0
   10.4192    7.3157   15.0955 C   0  0  0  0  0  0  0  0  0  0  0  0
   10.2489    6.4227   23.0218 N   0  0  0  0  0  0  0  0  0  0  0  0
    7.2472    8.0746   23.5050 C   0  0  0  0  0  0  0  0  0  0  0  0
    9.2051    6.9101   23.4604 C   0  0  0  0  0  0  0  0  0  0  0  0
   11.9646    6.0299   21.4251 C   0  0  0  0  0  0  0  0  0  0  0  0
  1  5  1  0
  1 13  1  0
  2 20  2  0
  2 28  1  0
  2 29  1  0
  3 19  4  0
  3 25  4  0
  4 23  4  0
  4 27  1  0
  4 30  4  0
  5 17  1  0
  6  8  1  0
  6 29  1  0
  7 24  4  0
  7 26  4  0
  8 28  1  0
  9 13  2  0
 10 18  1  0
 10 21  4  0
 10 30  4  0
 11 17  2  0
 12 18  1  0
 13 15  1  0
 14 24  1  0
 15 25  1  0
 16 28  2  0
 17 20  1  0
 19 24  4  0
 20 23  1  0
 21 22  4  0
 22 23  4  0
 25 26  4  0
 27 29  2  0
M  END
$$$$

 Created by Python create_sdf_string function

 30 33  0  0  0  0  0  0  0  0999 V2000
    8.3036    9.8571   18.4133 C   0  0  0  0  0  0  0  0  0  0  0  0
    8.3694    7.6612   22.6703 C   0  0  0  0  0  0  0  0  0  0  0  0
    8.4143    6.6863   16.2273 C   0  0  0  0  0  0  0  0  0  0  0  0
   10.7581    6.5674   21.7636 C   0  0  0  0  0  0  0  0  0  0  0  0
    8.4452    8.7960   19.2958 O   0  0  0  0  0  0  0  0  0  0  0  0
    8.7122    6.7842   24.8569 C   0  0  0  0  0  0  0  0  0  0  0  0
   10.3400    6.1726   14.3081 C   0  0  0  0  0  0  0  0  0  0  0  0
    7.4297    7.5873   24.8962 C   0  0  0  0  0  0  0  0  0  0  0  0
    8.1566   10.0536   16.0516 O   0  0  0  0  0  0  0  0  0  0  0  0
   12.4989    6.2074   20.1776 C   0  0  0  0  0  0  0  0  0  0  0  0
    6.9192    9.1053   20.9073 O   0  0  0  0  0  0  0  0  0  0  0  0
   14.3979    6.0729   18.7784 C   0  0  0  0  0  0  0  0  0  0  0  0
    8.6811    9.5354   16.9998 C   0  0  0  0  0  0  0  0  0  0  0  0
    9.2512    4.2713   13.7653 O   0  0  0  0  0  0  0  0  0  0  0  0
    9.6495    8.6317   16.8332 N   0  0  0  0  0  0  0  0  0  0  0  0
    6.2934    8.6988   23.1988 O   0  0  0  0  0  0  0  0  0  0  0  0
    7.9806    8.6543   20.5437 C   0  0  0  0  0  0  0  0  0  0  0  0
   13.7270    5.7144   19.8610 O   0  0  0  0  0  0  0  0  0  0  0  0
    8.3351    5.5235   15.4478 C   0  0  0  0  0  0  0  0  0  0  0  0
    8.7700    7.8434   21.3915 C   0  0  0  0  0  0  0  0  0  0  0  0
   11.7856    6.8851   19.2401 C   0  0  0  0  0  0  0  0  0  0  0  0
   10.5281    7.4276   19.5649 C   0  0  0  0  0  0  0  0  0  0  0  0
   10.0256    7.2907   20.8484 C   0  0  0  0  0  0  0  0  0  0  0  0
    9.3113    5.3049   14.4911 C   0  0  0  0  0  0  0  0  0  0  0  0
    9.4607    7.5646   16.0139 C   0  0  0  0  0  0  0  0  0  0  0  0
   10.4192    7.3157   15.0955 C   0  0  0  0  0  0  0  0  0  0  0  0
   10.2489    6.4227   23.0218 N   0  0  0  0  0  0  0  0  0  0  0  0
    7.2472    8.0746   23.5050 C   0  0  0  0  0  0  0  0  0  0  0  0
    9.2051    6.9101   23.4604 C   0  0  0  0  0  0  0  0  0  0  0  0
   11.9646    6.0299   21.4251 C   0  0  0  0  0  0  0  0  0  0  0  0
  1  5  1  0
  1 13  1  0
  2 20  2  0
  2 28  1  0
  2 29  1  0
  3 19  4  0
  3 25  4  0
  4 23  4  0
  4 27  1  0
  4 30  4  0
  5 17  1  0
  6  8  1  0
  6 29  1  0
  7 24  4  0
  7 26  4  0
  8 28  1  0
  9 13  2  0
 10 18  1  0
 10 21  4  0
 10 30  4  0
 11 17  2  0
 12 18  1  0
 13 15  1  0
 14 24  1  0
 15 25  1  0
 16 28  2  0
 17 20  1  0
 19 24  4  0
 20 23  1  0
 21 22  4  0
 22 23  4  0
 25 26  4  0
 27 29  2  0
M  END
$$$$

 Created by Python create_sdf_string function

 30 33  0  0  0  0  0  0  0  0999 V2000
    8.3036    9.8571   18.4133 C   0  0  0  0  0  0  0  0  0  0  0  0
    8.3694    7.6612   22.6703 C   0  0  0  0  0  0  0  0  0  0  0  0
    8.4143    6.6863   16.2273 C   0  0  0  0  0  0  0  0  0  0  0  0
   10.7581    6.5674   21.7636 C   0  0  0  0  0  0  0  0  0  0  0  0
    8.4452    8.7960   19.2958 O   0  0  0  0  0  0  0  0  0  0  0  0
    8.7122    6.7842   24.8569 C   0  0  0  0  0  0  0  0  0  0  0  0
   10.3400    6.1726   14.3081 C   0  0  0  0  0  0  0  0  0  0  0  0
    7.4297    7.5873   24.8962 C   0  0  0  0  0  0  0  0  0  0  0  0
    8.1566   10.0536   16.0516 O   0  0  0  0  0  0  0  0  0  0  0  0
   12.4989    6.2074   20.1776 C   0  0  0  0  0  0  0  0  0  0  0  0
    6.9192    9.1053   20.9073 O   0  0  0  0  0  0  0  0  0  0  0  0
   14.3979    6.0729   18.7784 C   0  0  0  0  0  0  0  0  0  0  0  0
    8.6811    9.5354   16.9998 C   0  0  0  0  0  0  0  0  0  0  0  0
    9.2512    4.2713   13.7653 O   0  0  0  0  0  0  0  0  0  0  0  0
    9.6495    8.6317   16.8332 N   0  0  0  0  0  0  0  0  0  0  0  0
    6.2934    8.6988   23.1988 O   0  0  0  0  0  0  0  0  0  0  0  0
    7.9806    8.6543   20.5437 C   0  0  0  0  0  0  0  0  0  0  0  0
   13.7270    5.7144   19.8610 O   0  0  0  0  0  0  0  0  0  0  0  0
    8.3351    5.5235   15.4478 C   0  0  0  0  0  0  0  0  0  0  0  0
    8.7700    7.8434   21.3915 C   0  0  0  0  0  0  0  0  0  0  0  0
   11.7856    6.8851   19.2401 C   0  0  0  0  0  0  0  0  0  0  0  0
   10.5281    7.4276   19.5649 C   0  0  0  0  0  0  0  0  0  0  0  0
   10.0256    7.2907   20.8484 C   0  0  0  0  0  0  0  0  0  0  0  0
    9.3113    5.3049   14.4911 C   0  0  0  0  0  0  0  0  0  0  0  0
    9.4607    7.5646   16.0139 C   0  0  0  0  0  0  0  0  0  0  0  0
   10.4192    7.3157   15.0955 C   0  0  0  0  0  0  0  0  0  0  0  0
   10.2489    6.4227   23.0218 N   0  0  0  0  0  0  0  0  0  0  0  0
    7.2472    8.0746   23.5050 C   0  0  0  0  0  0  0  0  0  0  0  0
    9.2051    6.9101   23.4604 C   0  0  0  0  0  0  0  0  0  0  0  0
   11.9646    6.0299   21.4251 C   0  0  0  0  0  0  0  0  0  0  0  0
  1  5  1  0
  1 13  1  0
  2 20  2  0
  2 28  1  0
  2 29  1  0
  3 19  4  0
  3 25  4  0
  4 23  4  0
  4 27  1  0
  4 30  4  0
  5 17  1  0
  6  8  1  0
  6 29  1  0
  7 24  4  0
  7 26  4  0
  8 28  1  0
  9 13  2  0
 10 18  1  0
 10 21  4  0
 10 30  4  0
 11 17  2  0
 12 18  1  0
 13 15  1  0
 14 24  1  0
 15 25  1  0
 16 28  2  0
 17 20  1  0
 19 24  4  0
 20 23  1  0
 21 22  4  0
 22 23  4  0
 25 26  4  0
 27 29  2  0
M  END
$$$$

 Created by Python create_sdf_string function

 30 33  0  0  0  0  0  0  0  0999 V2000
    8.3036    9.8571   18.4133 C   0  0  0  0  0  0  0  0  0  0  0  0
    8.3694    7.6612   22.6703 C   0  0  0  0  0  0  0  0  0  0  0  0
    8.4143    6.6863   16.2273 C   0  0  0  0  0  0  0  0  0  0  0  0
   10.7581    6.5674   21.7636 C   0  0  0  0  0  0  0  0  0  0  0  0
    8.4452    8.7960   19.2958 O   0  0  0  0  0  0  0  0  0  0  0  0
    8.7122    6.7842   24.8569 C   0  0  0  0  0  0  0  0  0  0  0  0
   10.3400    6.1726   14.3081 C   0  0  0  0  0  0  0  0  0  0  0  0
    7.4297    7.5873   24.8962 C   0  0  0  0  0  0  0  0  0  0  0  0
    8.1566   10.0536   16.0516 O   0  0  0  0  0  0  0  0  0  0  0  0
   12.4989    6.2074   20.1776 C   0  0  0  0  0  0  0  0  0  0  0  0
    6.9192    9.1053   20.9073 O   0  0  0  0  0  0  0  0  0  0  0  0
   14.3979    6.0729   18.7784 C   0  0  0  0  0  0  0  0  0  0  0  0
    8.6811    9.5354   16.9998 C   0  0  0  0  0  0  0  0  0  0  0  0
    9.2512    4.2713   13.7653 O   0  0  0  0  0  0  0  0  0  0  0  0
    9.6495    8.6317   16.8332 N   0  0  0  0  0  0  0  0  0  0  0  0
    6.2934    8.6988   23.1988 O   0  0  0  0  0  0  0  0  0  0  0  0
    7.9806    8.6543   20.5437 C   0  0  0  0  0  0  0  0  0  0  0  0
   13.7270    5.7144   19.8610 O   0  0  0  0  0  0  0  0  0  0  0  0
    8.3351    5.5235   15.4478 C   0  0  0  0  0  0  0  0  0  0  0  0
    8.7700    7.8434   21.3915 C   0  0  0  0  0  0  0  0  0  0  0  0
   11.7856    6.8851   19.2401 C   0  0  0  0  0  0  0  0  0  0  0  0
   10.5281    7.4276   19.5649 C   0  0  0  0  0  0  0  0  0  0  0  0
   10.0256    7.2907   20.8484 C   0  0  0  0  0  0  0  0  0  0  0  0
    9.3113    5.3049   14.4911 C   0  0  0  0  0  0  0  0  0  0  0  0
    9.4607    7.5646   16.0139 C   0  0  0  0  0  0  0  0  0  0  0  0
   10.4192    7.3157   15.0955 C   0  0  0  0  0  0  0  0  0  0  0  0
   10.2489    6.4227   23.0218 N   0  0  0  0  0  0  0  0  0  0  0  0
    7.2472    8.0746   23.5050 C   0  0  0  0  0  0  0  0  0  0  0  0
    9.2051    6.9101   23.4604 C   0  0  0  0  0  0  0  0  0  0  0  0
   11.9646    6.0299   21.4251 C   0  0  0  0  0  0  0  0  0  0  0  0
  1  5  1  0
  1 13  1  0
  2 20  2  0
  2 28  1  0
  2 29  1  0
  3 19  4  0
  3 25  4  0
  4 23  4  0
  4 27  1  0
  4 30  4  0
  5 17  1  0
  6  8  1  0
  6 29  1  0
  7 24  4  0
  7 26  4  0
  8 28  1  0
  9 13  2  0
 10 18  1  0
 10 21  4  0
 10 30  4  0
 11 17  2  0
 12 18  1  0
 13 15  1  0
 14 24  1  0
 15 25  1  0
 16 28  2  0
 17 20  1  0
 19 24  4  0
 20 23  1  0
 21 22  4  0
 22 23  4  0
 25 26  4  0
 27 29  2  0
M  END
$$$$

 Created by Python create_sdf_string function

 30 33  0  0  0  0  0  0  0  0999 V2000
    8.3036    9.8571   18.4133 C   0  0  0  0  0  0  0  0  0  0  0  0
    8.3694    7.6612   22.6703 C   0  0  0  0  0  0  0  0  0  0  0  0
    8.4143    6.6863   16.2273 C   0  0  0  0  0  0  0  0  0  0  0  0
   10.7581    6.5674   21.7636 C   0  0  0  0  0  0  0  0  0  0  0  0
    8.4452    8.7960   19.2958 O   0  0  0  0  0  0  0  0  0  0  0  0
    8.7122    6.7842   24.8569 C   0  0  0  0  0  0  0  0  0  0  0  0
   10.3400    6.1726   14.3081 C   0  0  0  0  0  0  0  0  0  0  0  0
    7.4297    7.5873   24.8962 C   0  0  0  0  0  0  0  0  0  0  0  0
    8.1566   10.0536   16.0516 O   0  0  0  0  0  0  0  0  0  0  0  0
   12.4989    6.2074   20.1776 C   0  0  0  0  0  0  0  0  0  0  0  0
    6.9192    9.1053   20.9073 O   0  0  0  0  0  0  0  0  0  0  0  0
   14.3979    6.0729   18.7784 C   0  0  0  0  0  0  0  0  0  0  0  0
    8.6811    9.5354   16.9998 C   0  0  0  0  0  0  0  0  0  0  0  0
    9.2512    4.2713   13.7653 O   0  0  0  0  0  0  0  0  0  0  0  0
    9.6495    8.6317   16.8332 N   0  0  0  0  0  0  0  0  0  0  0  0
    6.2934    8.6988   23.1988 O   0  0  0  0  0  0  0  0  0  0  0  0
    7.9806    8.6543   20.5437 C   0  0  0  0  0  0  0  0  0  0  0  0
   13.7270    5.7144   19.8610 O   0  0  0  0  0  0  0  0  0  0  0  0
    8.3351    5.5235   15.4478 C   0  0  0  0  0  0  0  0  0  0  0  0
    8.7700    7.8434   21.3915 C   0  0  0  0  0  0  0  0  0  0  0  0
   11.7856    6.8851   19.2401 C   0  0  0  0  0  0  0  0  0  0  0  0
   10.5281    7.4276   19.5649 C   0  0  0  0  0  0  0  0  0  0  0  0
   10.0256    7.2907   20.8484 C   0  0  0  0  0  0  0  0  0  0  0  0
    9.3113    5.3049   14.4911 C   0  0  0  0  0  0  0  0  0  0  0  0
    9.4607    7.5646   16.0139 C   0  0  0  0  0  0  0  0  0  0  0  0
   10.4192    7.3157   15.0955 C   0  0  0  0  0  0  0  0  0  0  0  0
   10.2489    6.4227   23.0218 N   0  0  0  0  0  0  0  0  0  0  0  0
    7.2472    8.0746   23.5050 C   0  0  0  0  0  0  0  0  0  0  0  0
    9.2051    6.9101   23.4604 C   0  0  0  0  0  0  0  0  0  0  0  0
   11.9646    6.0299   21.4251 C   0  0  0  0  0  0  0  0  0  0  0  0
  1  5  1  0
  1 13  1  0
  2 20  2  0
  2 28  1  0
  2 29  1  0
  3 19  4  0
  3 25  4  0
  4 23  4  0
  4 27  1  0
  4 30  4  0
  5 17  1  0
  6  8  1  0
  6 29  1  0
  7 24  4  0
  7 26  4  0
  8 28  1  0
  9 13  2  0
 10 18  1  0
 10 21  4  0
 10 30  4  0
 11 17  2  0
 12 18  1  0
 13 15  1  0
 14 24  1  0
 15 25  1  0
 16 28  2  0
 17 20  1  0
 19 24  4  0
 20 23  1  0
 21 22  4  0
 22 23  4  0
 25 26  4  0
 27 29  2  0
M  END
$$$$

 Created by Python create_sdf_string function

 30 33  0  0  0  0  0  0  0  0999 V2000
    8.3036    9.8571   18.4133 C   0  0  0  0  0  0  0  0  0  0  0  0
    8.3694    7.6612   22.6703 C   0  0  0  0  0  0  0  0  0  0  0  0
    8.4143    6.6863   16.2273 C   0  0  0  0  0  0  0  0  0  0  0  0
   10.7581    6.5674   21.7636 C   0  0  0  0  0  0  0  0  0  0  0  0
    8.4452    8.7960   19.2958 O   0  0  0  0  0  0  0  0  0  0  0  0
    8.7122    6.7842   24.8569 C   0  0  0  0  0  0  0  0  0  0  0  0
   10.3400    6.1726   14.3081 C   0  0  0  0  0  0  0  0  0  0  0  0
    7.4297    7.5873   24.8962 C   0  0  0  0  0  0  0  0  0  0  0  0
    8.1566   10.0536   16.0516 O   0  0  0  0  0  0  0  0  0  0  0  0
   12.4989    6.2074   20.1776 C   0  0  0  0  0  0  0  0  0  0  0  0
    6.9192    9.1053   20.9073 O   0  0  0  0  0  0  0  0  0  0  0  0
   14.3979    6.0729   18.7784 C   0  0  0  0  0  0  0  0  0  0  0  0
    8.6811    9.5354   16.9998 C   0  0  0  0  0  0  0  0  0  0  0  0
    9.2512    4.2713   13.7653 O   0  0  0  0  0  0  0  0  0  0  0  0
    9.6495    8.6317   16.8332 N   0  0  0  0  0  0  0  0  0  0  0  0
    6.2934    8.6988   23.1988 O   0  0  0  0  0  0  0  0  0  0  0  0
    7.9806    8.6543   20.5437 C   0  0  0  0  0  0  0  0  0  0  0  0
   13.7270    5.7144   19.8610 O   0  0  0  0  0  0  0  0  0  0  0  0
    8.3351    5.5235   15.4478 C   0  0  0  0  0  0  0  0  0  0  0  0
    8.7700    7.8434   21.3915 C   0  0  0  0  0  0  0  0  0  0  0  0
   11.7856    6.8851   19.2401 C   0  0  0  0  0  0  0  0  0  0  0  0
   10.5281    7.4276   19.5649 C   0  0  0  0  0  0  0  0  0  0  0  0
   10.0256    7.2907   20.8484 C   0  0  0  0  0  0  0  0  0  0  0  0
    9.3113    5.3049   14.4911 C   0  0  0  0  0  0  0  0  0  0  0  0
    9.4607    7.5646   16.0139 C   0  0  0  0  0  0  0  0  0  0  0  0
   10.4192    7.3157   15.0955 C   0  0  0  0  0  0  0  0  0  0  0  0
   10.2489    6.4227   23.0218 N   0  0  0  0  0  0  0  0  0  0  0  0
    7.2472    8.0746   23.5050 C   0  0  0  0  0  0  0  0  0  0  0  0
    9.2051    6.9101   23.4604 C   0  0  0  0  0  0  0  0  0  0  0  0
   11.9646    6.0299   21.4251 C   0  0  0  0  0  0  0  0  0  0  0  0
  1  5  1  0
  1 13  1  0
  2 20  2  0
  2 28  1  0
  2 29  1  0
  3 19  4  0
  3 25  4  0
  4 23  4  0
  4 27  1  0
  4 30  4  0
  5 17  1  0
  6  8  1  0
  6 29  1  0
  7 24  4  0
  7 26  4  0
  8 28  1  0
  9 13  2  0
 10 18  1  0
 10 21  4  0
 10 30  4  0
 11 17  2  0
 12 18  1  0
 13 15  1  0
 14 24  1  0
 15 25  1  0
 16 28  2  0
 17 20  1  0
 19 24  4  0
 20 23  1  0
 21 22  4  0
 22 23  4  0
 25 26  4  0
 27 29  2  0
M  END
$$$$

 Created by Python create_sdf_string function

 30 33  0  0  0  0  0  0  0  0999 V2000
    8.3036    9.8571   18.4133 C   0  0  0  0  0  0  0  0  0  0  0  0
    8.3694    7.6612   22.6703 C   0  0  0  0  0  0  0  0  0  0  0  0
    8.4143    6.6863   16.2273 C   0  0  0  0  0  0  0  0  0  0  0  0
   10.7581    6.5674   21.7636 C   0  0  0  0  0  0  0  0  0  0  0  0
    8.4452    8.7960   19.2958 O   0  0  0  0  0  0  0  0  0  0  0  0
    8.7122    6.7842   24.8569 C   0  0  0  0  0  0  0  0  0  0  0  0
   10.3400    6.1726   14.3081 C   0  0  0  0  0  0  0  0  0  0  0  0
    7.4297    7.5873   24.8962 C   0  0  0  0  0  0  0  0  0  0  0  0
    8.1566   10.0536   16.0516 O   0  0  0  0  0  0  0  0  0  0  0  0
   12.4989    6.2074   20.1776 C   0  0  0  0  0  0  0  0  0  0  0  0
    6.9192    9.1053   20.9073 O   0  0  0  0  0  0  0  0  0  0  0  0
   14.3979    6.0729   18.7784 C   0  0  0  0  0  0  0  0  0  0  0  0
    8.6811    9.5354   16.9998 C   0  0  0  0  0  0  0  0  0  0  0  0
    9.2512    4.2713   13.7653 O   0  0  0  0  0  0  0  0  0  0  0  0
    9.6495    8.6317   16.8332 N   0  0  0  0  0  0  0  0  0  0  0  0
    6.2934    8.6988   23.1988 O   0  0  0  0  0  0  0  0  0  0  0  0
    7.9806    8.6543   20.5437 C   0  0  0  0  0  0  0  0  0  0  0  0
   13.7270    5.7144   19.8610 O   0  0  0  0  0  0  0  0  0  0  0  0
    8.3351    5.5235   15.4478 C   0  0  0  0  0  0  0  0  0  0  0  0
    8.7700    7.8434   21.3915 C   0  0  0  0  0  0  0  0  0  0  0  0
   11.7856    6.8851   19.2401 C   0  0  0  0  0  0  0  0  0  0  0  0
   10.5281    7.4276   19.5649 C   0  0  0  0  0  0  0  0  0  0  0  0
   10.0256    7.2907   20.8484 C   0  0  0  0  0  0  0  0  0  0  0  0
    9.3113    5.3049   14.4911 C   0  0  0  0  0  0  0  0  0  0  0  0
    9.4607    7.5646   16.0139 C   0  0  0  0  0  0  0  0  0  0  0  0
   10.4192    7.3157   15.0955 C   0  0  0  0  0  0  0  0  0  0  0  0
   10.2489    6.4227   23.0218 N   0  0  0  0  0  0  0  0  0  0  0  0
    7.2472    8.0746   23.5050 C   0  0  0  0  0  0  0  0  0  0  0  0
    9.2051    6.9101   23.4604 C   0  0  0  0  0  0  0  0  0  0  0  0
   11.9646    6.0299   21.4251 C   0  0  0  0  0  0  0  0  0  0  0  0
  1  5  1  0
  1 13  1  0
  2 20  2  0
  2 28  1  0
  2 29  1  0
  3 19  4  0
  3 25  4  0
  4 23  4  0
  4 27  1  0
  4 30  4  0
  5 17  1  0
  6  8  1  0
  6 29  1  0
  7 24  4  0
  7 26  4  0
  8 28  1  0
  9 13  2  0
 10 18  1  0
 10 21  4  0
 10 30  4  0
 11 17  2  0
 12 18  1  0
 13 15  1  0
 14 24  1  0
 15 25  1  0
 16 28  2  0
 17 20  1  0
 19 24  4  0
 20 23  1  0
 21 22  4  0
 22 23  4  0
 25 26  4  0
 27 29  2  0
M  END
$$$$

 Created by Python create_sdf_string function

 30 33  0  0  0  0  0  0  0  0999 V2000
    8.3036    9.8571   18.4133 C   0  0  0  0  0  0  0  0  0  0  0  0
    8.3694    7.6612   22.6703 C   0  0  0  0  0  0  0  0  0  0  0  0
    8.4143    6.6863   16.2273 C   0  0  0  0  0  0  0  0  0  0  0  0
   10.7581    6.5674   21.7636 C   0  0  0  0  0  0  0  0  0  0  0  0
    8.4452    8.7960   19.2958 O   0  0  0  0  0  0  0  0  0  0  0  0
    8.7122    6.7842   24.8569 C   0  0  0  0  0  0  0  0  0  0  0  0
   10.3400    6.1726   14.3081 C   0  0  0  0  0  0  0  0  0  0  0  0
    7.4297    7.5873   24.8962 C   0  0  0  0  0  0  0  0  0  0  0  0
    8.1566   10.0536   16.0516 O   0  0  0  0  0  0  0  0  0  0  0  0
   12.4989    6.2074   20.1776 C   0  0  0  0  0  0  0  0  0  0  0  0
    6.9192    9.1053   20.9073 O   0  0  0  0  0  0  0  0  0  0  0  0
   14.3979    6.0729   18.7784 C   0  0  0  0  0  0  0  0  0  0  0  0
    8.6811    9.5354   16.9998 C   0  0  0  0  0  0  0  0  0  0  0  0
    9.2512    4.2713   13.7653 O   0  0  0  0  0  0  0  0  0  0  0  0
    9.6495    8.6317   16.8332 N   0  0  0  0  0  0  0  0  0  0  0  0
    6.2934    8.6988   23.1988 O   0  0  0  0  0  0  0  0  0  0  0  0
    7.9806    8.6543   20.5437 C   0  0  0  0  0  0  0  0  0  0  0  0
   13.7270    5.7144   19.8610 O   0  0  0  0  0  0  0  0  0  0  0  0
    8.3351    5.5235   15.4478 C   0  0  0  0  0  0  0  0  0  0  0  0
    8.7700    7.8434   21.3915 C   0  0  0  0  0  0  0  0  0  0  0  0
   11.7856    6.8851   19.2401 C   0  0  0  0  0  0  0  0  0  0  0  0
   10.5281    7.4276   19.5649 C   0  0  0  0  0  0  0  0  0  0  0  0
   10.0256    7.2907   20.8484 C   0  0  0  0  0  0  0  0  0  0  0  0
    9.3113    5.3049   14.4911 C   0  0  0  0  0  0  0  0  0  0  0  0
    9.4607    7.5646   16.0139 C   0  0  0  0  0  0  0  0  0  0  0  0
   10.4192    7.3157   15.0955 C   0  0  0  0  0  0  0  0  0  0  0  0
   10.2489    6.4227   23.0218 N   0  0  0  0  0  0  0  0  0  0  0  0
    7.2472    8.0746   23.5050 C   0  0  0  0  0  0  0  0  0  0  0  0
    9.2051    6.9101   23.4604 C   0  0  0  0  0  0  0  0  0  0  0  0
   11.9646    6.0299   21.4251 C   0  0  0  0  0  0  0  0  0  0  0  0
  1  5  1  0
  1 13  1  0
  2 20  2  0
  2 28  1  0
  2 29  1  0
  3 19  4  0
  3 25  4  0
  4 23  4  0
  4 27  1  0
  4 30  4  0
  5 17  1  0
  6  8  1  0
  6 29  1  0
  7 24  4  0
  7 26  4  0
  8 28  1  0
  9 13  2  0
 10 18  1  0
 10 21  4  0
 10 30  4  0
 11 17  2  0
 12 18  1  0
 13 15  1  0
 14 24  1  0
 15 25  1  0
 16 28  2  0
 17 20  1  0
 19 24  4  0
 20 23  1  0
 21 22  4  0
 22 23  4  0
 25 26  4  0
 27 29  2  0
M  END
$$$$

 Created by Python create_sdf_string function

 30 33  0  0  0  0  0  0  0  0999 V2000
    8.3036    9.8571   18.4133 C   0  0  0  0  0  0  0  0  0  0  0  0
    8.3694    7.6612   22.6703 C   0  0  0  0  0  0  0  0  0  0  0  0
    8.4143    6.6863   16.2273 C   0  0  0  0  0  0  0  0  0  0  0  0
   10.7581    6.5674   21.7636 C   0  0  0  0  0  0  0  0  0  0  0  0
    8.4452    8.7960   19.2958 O   0  0  0  0  0  0  0  0  0  0  0  0
    8.7122    6.7842   24.8569 C   0  0  0  0  0  0  0  0  0  0  0  0
   10.3400    6.1726   14.3081 C   0  0  0  0  0  0  0  0  0  0  0  0
    7.4297    7.5873   24.8962 C   0  0  0  0  0  0  0  0  0  0  0  0
    8.1566   10.0536   16.0516 O   0  0  0  0  0  0  0  0  0  0  0  0
   12.4989    6.2074   20.1776 C   0  0  0  0  0  0  0  0  0  0  0  0
    6.9192    9.1053   20.9073 O   0  0  0  0  0  0  0  0  0  0  0  0
   14.3979    6.0729   18.7784 C   0  0  0  0  0  0  0  0  0  0  0  0
    8.6811    9.5354   16.9998 C   0  0  0  0  0  0  0  0  0  0  0  0
    9.2512    4.2713   13.7653 O   0  0  0  0  0  0  0  0  0  0  0  0
    9.6495    8.6317   16.8332 N   0  0  0  0  0  0  0  0  0  0  0  0
    6.2934    8.6988   23.1988 O   0  0  0  0  0  0  0  0  0  0  0  0
    7.9806    8.6543   20.5437 C   0  0  0  0  0  0  0  0  0  0  0  0
   13.7270    5.7144   19.8610 O   0  0  0  0  0  0  0  0  0  0  0  0
    8.3351    5.5235   15.4478 C   0  0  0  0  0  0  0  0  0  0  0  0
    8.7700    7.8434   21.3915 C   0  0  0  0  0  0  0  0  0  0  0  0
   11.7856    6.8851   19.2401 C   0  0  0  0  0  0  0  0  0  0  0  0
   10.5281    7.4276   19.5649 C   0  0  0  0  0  0  0  0  0  0  0  0
   10.0256    7.2907   20.8484 C   0  0  0  0  0  0  0  0  0  0  0  0
    9.3113    5.3049   14.4911 C   0  0  0  0  0  0  0  0  0  0  0  0
    9.4607    7.5646   16.0139 C   0  0  0  0  0  0  0  0  0  0  0  0
   10.4192    7.3157   15.0955 C   0  0  0  0  0  0  0  0  0  0  0  0
   10.2489    6.4227   23.0218 N   0  0  0  0  0  0  0  0  0  0  0  0
    7.2472    8.0746   23.5050 C   0  0  0  0  0  0  0  0  0  0  0  0
    9.2051    6.9101   23.4604 C   0  0  0  0  0  0  0  0  0  0  0  0
   11.9646    6.0299   21.4251 C   0  0  0  0  0  0  0  0  0  0  0  0
  1  5  1  0
  1 13  1  0
  2 20  2  0
  2 28  1  0
  2 29  1  0
  3 19  4  0
  3 25  4  0
  4 23  4  0
  4 27  1  0
  4 30  4  0
  5 17  1  0
  6  8  1  0
  6 29  1  0
  7 24  4  0
  7 26  4  0
  8 28  1  0
  9 13  2  0
 10 18  1  0
 10 21  4  0
 10 30  4  0
 11 17  2  0
 12 18  1  0
 13 15  1  0
 14 24  1  0
 15 25  1  0
 16 28  2  0
 17 20  1  0
 19 24  4  0
 20 23  1  0
 21 22  4  0
 22 23  4  0
 25 26  4  0
 27 29  2  0
M  END
$$$$

 Created by Python create_sdf_string function

 30 33  0  0  0  0  0  0  0  0999 V2000
    8.3036    9.8571   18.4133 C   0  0  0  0  0  0  0  0  0  0  0  0
    8.3694    7.6612   22.6703 C   0  0  0  0  0  0  0  0  0  0  0  0
    8.4143    6.6863   16.2273 C   0  0  0  0  0  0  0  0  0  0  0  0
   10.7581    6.5674   21.7636 C   0  0  0  0  0  0  0  0  0  0  0  0
    8.4452    8.7960   19.2958 O   0  0  0  0  0  0  0  0  0  0  0  0
    8.7122    6.7842   24.8569 C   0  0  0  0  0  0  0  0  0  0  0  0
   10.3400    6.1726   14.3081 C   0  0  0  0  0  0  0  0  0  0  0  0
    7.4297    7.5873   24.8962 C   0  0  0  0  0  0  0  0  0  0  0  0
    8.1566   10.0536   16.0516 O   0  0  0  0  0  0  0  0  0  0  0  0
   12.4989    6.2074   20.1776 C   0  0  0  0  0  0  0  0  0  0  0  0
    6.9192    9.1053   20.9073 O   0  0  0  0  0  0  0  0  0  0  0  0
   14.3979    6.0729   18.7784 C   0  0  0  0  0  0  0  0  0  0  0  0
    8.6811    9.5354   16.9998 C   0  0  0  0  0  0  0  0  0  0  0  0
    9.2512    4.2713   13.7653 O   0  0  0  0  0  0  0  0  0  0  0  0
    9.6495    8.6317   16.8332 N   0  0  0  0  0  0  0  0  0  0  0  0
    6.2934    8.6988   23.1988 O   0  0  0  0  0  0  0  0  0  0  0  0
    7.9806    8.6543   20.5437 C   0  0  0  0  0  0  0  0  0  0  0  0
   13.7270    5.7144   19.8610 O   0  0  0  0  0  0  0  0  0  0  0  0
    8.3351    5.5235   15.4478 C   0  0  0  0  0  0  0  0  0  0  0  0
    8.7700    7.8434   21.3915 C   0  0  0  0  0  0  0  0  0  0  0  0
   11.7856    6.8851   19.2401 C   0  0  0  0  0  0  0  0  0  0  0  0
   10.5281    7.4276   19.5649 C   0  0  0  0  0  0  0  0  0  0  0  0
   10.0256    7.2907   20.8484 C   0  0  0  0  0  0  0  0  0  0  0  0
    9.3113    5.3049   14.4911 C   0  0  0  0  0  0  0  0  0  0  0  0
    9.4607    7.5646   16.0139 C   0  0  0  0  0  0  0  0  0  0  0  0
   10.4192    7.3157   15.0955 C   0  0  0  0  0  0  0  0  0  0  0  0
   10.2489    6.4227   23.0218 N   0  0  0  0  0  0  0  0  0  0  0  0
    7.2472    8.0746   23.5050 C   0  0  0  0  0  0  0  0  0  0  0  0
    9.2051    6.9101   23.4604 C   0  0  0  0  0  0  0  0  0  0  0  0
   11.9646    6.0299   21.4251 C   0  0  0  0  0  0  0  0  0  0  0  0
  1  5  1  0
  1 13  1  0
  2 20  2  0
  2 28  1  0
  2 29  1  0
  3 19  4  0
  3 25  4  0
  4 23  4  0
  4 27  1  0
  4 30  4  0
  5 17  1  0
  6  8  1  0
  6 29  1  0
  7 24  4  0
  7 26  4  0
  8 28  1  0
  9 13  2  0
 10 18  1  0
 10 21  4  0
 10 30  4  0
 11 17  2  0
 12 18  1  0
 13 15  1  0
 14 24  1  0
 15 25  1  0
 16 28  2  0
 17 20  1  0
 19 24  4  0
 20 23  1  0
 21 22  4  0
 22 23  4  0
 25 26  4  0
 27 29  2  0
M  END
$$$$

 Created by Python create_sdf_string function

 30 33  0  0  0  0  0  0  0  0999 V2000
    8.3036    9.8571   18.4133 C   0  0  0  0  0  0  0  0  0  0  0  0
    8.3694    7.6612   22.6703 C   0  0  0  0  0  0  0  0  0  0  0  0
    8.4143    6.6863   16.2273 C   0  0  0  0  0  0  0  0  0  0  0  0
   10.7581    6.5674   21.7636 C   0  0  0  0  0  0  0  0  0  0  0  0
    8.4452    8.7960   19.2958 O   0  0  0  0  0  0  0  0  0  0  0  0
    8.7122    6.7842   24.8569 C   0  0  0  0  0  0  0  0  0  0  0  0
   10.3400    6.1726   14.3081 C   0  0  0  0  0  0  0  0  0  0  0  0
    7.4297    7.5873   24.8962 C   0  0  0  0  0  0  0  0  0  0  0  0
    8.1566   10.0536   16.0516 O   0  0  0  0  0  0  0  0  0  0  0  0
   12.4989    6.2074   20.1776 C   0  0  0  0  0  0  0  0  0  0  0  0
    6.9192    9.1053   20.9073 O   0  0  0  0  0  0  0  0  0  0  0  0
   14.3979    6.0729   18.7784 C   0  0  0  0  0  0  0  0  0  0  0  0
    8.6811    9.5354   16.9998 C   0  0  0  0  0  0  0  0  0  0  0  0
    9.2512    4.2713   13.7653 O   0  0  0  0  0  0  0  0  0  0  0  0
    9.6495    8.6317   16.8332 N   0  0  0  0  0  0  0  0  0  0  0  0
    6.2934    8.6988   23.1988 O   0  0  0  0  0  0  0  0  0  0  0  0
    7.9806    8.6543   20.5437 C   0  0  0  0  0  0  0  0  0  0  0  0
   13.7270    5.7144   19.8610 O   0  0  0  0  0  0  0  0  0  0  0  0
    8.3351    5.5235   15.4478 C   0  0  0  0  0  0  0  0  0  0  0  0
    8.7700    7.8434   21.3915 C   0  0  0  0  0  0  0  0  0  0  0  0
   11.7856    6.8851   19.2401 C   0  0  0  0  0  0  0  0  0  0  0  0
   10.5281    7.4276   19.5649 C   0  0  0  0  0  0  0  0  0  0  0  0
   10.0256    7.2907   20.8484 C   0  0  0  0  0  0  0  0  0  0  0  0
    9.3113    5.3049   14.4911 C   0  0  0  0  0  0  0  0  0  0  0  0
    9.4607    7.5646   16.0139 C   0  0  0  0  0  0  0  0  0  0  0  0
   10.4192    7.3157   15.0955 C   0  0  0  0  0  0  0  0  0  0  0  0
   10.2489    6.4227   23.0218 N   0  0  0  0  0  0  0  0  0  0  0  0
    7.2472    8.0746   23.5050 C   0  0  0  0  0  0  0  0  0  0  0  0
    9.2051    6.9101   23.4604 C   0  0  0  0  0  0  0  0  0  0  0  0
   11.9646    6.0299   21.4251 C   0  0  0  0  0  0  0  0  0  0  0  0
  1  5  1  0
  1 13  1  0
  2 20  2  0
  2 28  1  0
  2 29  1  0
  3 19  4  0
  3 25  4  0
  4 23  4  0
  4 27  1  0
  4 30  4  0
  5 17  1  0
  6  8  1  0
  6 29  1  0
  7 24  4  0
  7 26  4  0
  8 28  1  0
  9 13  2  0
 10 18  1  0
 10 21  4  0
 10 30  4  0
 11 17  2  0
 12 18  1  0
 13 15  1  0
 14 24  1  0
 15 25  1  0
 16 28  2  0
 17 20  1  0
 19 24  4  0
 20 23  1  0
 21 22  4  0
 22 23  4  0
 25 26  4  0
 27 29  2  0
M  END
$$$$

 Created by Python create_sdf_string function

 30 33  0  0  0  0  0  0  0  0999 V2000
    8.3036    9.8571   18.4133 C   0  0  0  0  0  0  0  0  0  0  0  0
    8.3694    7.6612   22.6703 C   0  0  0  0  0  0  0  0  0  0  0  0
    8.4143    6.6863   16.2273 C   0  0  0  0  0  0  0  0  0  0  0  0
   10.7581    6.5674   21.7636 C   0  0  0  0  0  0  0  0  0  0  0  0
    8.4452    8.7960   19.2958 O   0  0  0  0  0  0  0  0  0  0  0  0
    8.7122    6.7842   24.8569 C   0  0  0  0  0  0  0  0  0  0  0  0
   10.3400    6.1726   14.3081 C   0  0  0  0  0  0  0  0  0  0  0  0
    7.4297    7.5873   24.8962 C   0  0  0  0  0  0  0  0  0  0  0  0
    8.1566   10.0536   16.0516 O   0  0  0  0  0  0  0  0  0  0  0  0
   12.4989    6.2074   20.1776 C   0  0  0  0  0  0  0  0  0  0  0  0
    6.9192    9.1053   20.9073 O   0  0  0  0  0  0  0  0  0  0  0  0
   14.3979    6.0729   18.7784 C   0  0  0  0  0  0  0  0  0  0  0  0
    8.6811    9.5354   16.9998 C   0  0  0  0  0  0  0  0  0  0  0  0
    9.2512    4.2713   13.7653 O   0  0  0  0  0  0  0  0  0  0  0  0
    9.6495    8.6317   16.8332 N   0  0  0  0  0  0  0  0  0  0  0  0
    6.2934    8.6988   23.1988 O   0  0  0  0  0  0  0  0  0  0  0  0
    7.9806    8.6543   20.5437 C   0  0  0  0  0  0  0  0  0  0  0  0
   13.7270    5.7144   19.8610 O   0  0  0  0  0  0  0  0  0  0  0  0
    8.3351    5.5235   15.4478 C   0  0  0  0  0  0  0  0  0  0  0  0
    8.7700    7.8434   21.3915 C   0  0  0  0  0  0  0  0  0  0  0  0
   11.7856    6.8851   19.2401 C   0  0  0  0  0  0  0  0  0  0  0  0
   10.5281    7.4276   19.5649 C   0  0  0  0  0  0  0  0  0  0  0  0
   10.0256    7.2907   20.8484 C   0  0  0  0  0  0  0  0  0  0  0  0
    9.3113    5.3049   14.4911 C   0  0  0  0  0  0  0  0  0  0  0  0
    9.4607    7.5646   16.0139 C   0  0  0  0  0  0  0  0  0  0  0  0
   10.4192    7.3157   15.0955 C   0  0  0  0  0  0  0  0  0  0  0  0
   10.2489    6.4227   23.0218 N   0  0  0  0  0  0  0  0  0  0  0  0
    7.2472    8.0746   23.5050 C   0  0  0  0  0  0  0  0  0  0  0  0
    9.2051    6.9101   23.4604 C   0  0  0  0  0  0  0  0  0  0  0  0
   11.9646    6.0299   21.4251 C   0  0  0  0  0  0  0  0  0  0  0  0
  1  5  1  0
  1 13  1  0
  2 20  2  0
  2 28  1  0
  2 29  1  0
  3 19  4  0
  3 25  4  0
  4 23  4  0
  4 27  1  0
  4 30  4  0
  5 17  1  0
  6  8  1  0
  6 29  1  0
  7 24  4  0
  7 26  4  0
  8 28  1  0
  9 13  2  0
 10 18  1  0
 10 21  4  0
 10 30  4  0
 11 17  2  0
 12 18  1  0
 13 15  1  0
 14 24  1  0
 15 25  1  0
 16 28  2  0
 17 20  1  0
 19 24  4  0
 20 23  1  0
 21 22  4  0
 22 23  4  0
 25 26  4  0
 27 29  2  0
M  END
$$$$

 Created by Python create_sdf_string function

 30 33  0  0  0  0  0  0  0  0999 V2000
    8.3036    9.8571   18.4133 C   0  0  0  0  0  0  0  0  0  0  0  0
    8.3694    7.6612   22.6703 C   0  0  0  0  0  0  0  0  0  0  0  0
    8.4143    6.6863   16.2273 C   0  0  0  0  0  0  0  0  0  0  0  0
   10.7581    6.5674   21.7636 C   0  0  0  0  0  0  0  0  0  0  0  0
    8.4452    8.7960   19.2958 O   0  0  0  0  0  0  0  0  0  0  0  0
    8.7122    6.7842   24.8569 C   0  0  0  0  0  0  0  0  0  0  0  0
   10.3400    6.1726   14.3081 C   0  0  0  0  0  0  0  0  0  0  0  0
    7.4297    7.5873   24.8962 C   0  0  0  0  0  0  0  0  0  0  0  0
    8.1566   10.0536   16.0516 O   0  0  0  0  0  0  0  0  0  0  0  0
   12.4989    6.2074   20.1776 C   0  0  0  0  0  0  0  0  0  0  0  0
    6.9192    9.1053   20.9073 O   0  0  0  0  0  0  0  0  0  0  0  0
   14.3979    6.0729   18.7784 C   0  0  0  0  0  0  0  0  0  0  0  0
    8.6811    9.5354   16.9998 C   0  0  0  0  0  0  0  0  0  0  0  0
    9.2512    4.2713   13.7653 O   0  0  0  0  0  0  0  0  0  0  0  0
    9.6495    8.6317   16.8332 N   0  0  0  0  0  0  0  0  0  0  0  0
    6.2934    8.6988   23.1988 O   0  0  0  0  0  0  0  0  0  0  0  0
    7.9806    8.6543   20.5437 C   0  0  0  0  0  0  0  0  0  0  0  0
   13.7270    5.7144   19.8610 O   0  0  0  0  0  0  0  0  0  0  0  0
    8.3351    5.5235   15.4478 C   0  0  0  0  0  0  0  0  0  0  0  0
    8.7700    7.8434   21.3915 C   0  0  0  0  0  0  0  0  0  0  0  0
   11.7856    6.8851   19.2401 C   0  0  0  0  0  0  0  0  0  0  0  0
   10.5281    7.4276   19.5649 C   0  0  0  0  0  0  0  0  0  0  0  0
   10.0256    7.2907   20.8484 C   0  0  0  0  0  0  0  0  0  0  0  0
    9.3113    5.3049   14.4911 C   0  0  0  0  0  0  0  0  0  0  0  0
    9.4607    7.5646   16.0139 C   0  0  0  0  0  0  0  0  0  0  0  0
   10.4192    7.3157   15.0955 C   0  0  0  0  0  0  0  0  0  0  0  0
   10.2489    6.4227   23.0218 N   0  0  0  0  0  0  0  0  0  0  0  0
    7.2472    8.0746   23.5050 C   0  0  0  0  0  0  0  0  0  0  0  0
    9.2051    6.9101   23.4604 C   0  0  0  0  0  0  0  0  0  0  0  0
   11.9646    6.0299   21.4251 C   0  0  0  0  0  0  0  0  0  0  0  0
  1  5  1  0
  1 13  1  0
  2 20  2  0
  2 28  1  0
  2 29  1  0
  3 19  4  0
  3 25  4  0
  4 23  4  0
  4 27  1  0
  4 30  4  0
  5 17  1  0
  6  8  1  0
  6 29  1  0
  7 24  4  0
  7 26  4  0
  8 28  1  0
  9 13  2  0
 10 18  1  0
 10 21  4  0
 10 30  4  0
 11 17  2  0
 12 18  1  0
 13 15  1  0
 14 24  1  0
 15 25  1  0
 16 28  2  0
 17 20  1  0
 19 24  4  0
 20 23  1  0
 21 22  4  0
 22 23  4  0
 25 26  4  0
 27 29  2  0
M  END
$$$$

 Created by Python create_sdf_string function

 30 33  0  0  0  0  0  0  0  0999 V2000
    8.3036    9.8571   18.4133 C   0  0  0  0  0  0  0  0  0  0  0  0
    8.3694    7.6612   22.6703 C   0  0  0  0  0  0  0  0  0  0  0  0
    8.4143    6.6863   16.2273 C   0  0  0  0  0  0  0  0  0  0  0  0
   10.7581    6.5674   21.7636 C   0  0  0  0  0  0  0  0  0  0  0  0
    8.4452    8.7960   19.2958 O   0  0  0  0  0  0  0  0  0  0  0  0
    8.7122    6.7842   24.8569 C   0  0  0  0  0  0  0  0  0  0  0  0
   10.3400    6.1726   14.3081 C   0  0  0  0  0  0  0  0  0  0  0  0
    7.4297    7.5873   24.8962 C   0  0  0  0  0  0  0  0  0  0  0  0
    8.1566   10.0536   16.0516 O   0  0  0  0  0  0  0  0  0  0  0  0
   12.4989    6.2074   20.1776 C   0  0  0  0  0  0  0  0  0  0  0  0
    6.9192    9.1053   20.9073 O   0  0  0  0  0  0  0  0  0  0  0  0
   14.3979    6.0729   18.7784 C   0  0  0  0  0  0  0  0  0  0  0  0
    8.6811    9.5354   16.9998 C   0  0  0  0  0  0  0  0  0  0  0  0
    9.2512    4.2713   13.7653 O   0  0  0  0  0  0  0  0  0  0  0  0
    9.6495    8.6317   16.8332 N   0  0  0  0  0  0  0  0  0  0  0  0
    6.2934    8.6988   23.1988 O   0  0  0  0  0  0  0  0  0  0  0  0
    7.9806    8.6543   20.5437 C   0  0  0  0  0  0  0  0  0  0  0  0
   13.7270    5.7144   19.8610 O   0  0  0  0  0  0  0  0  0  0  0  0
    8.3351    5.5235   15.4478 C   0  0  0  0  0  0  0  0  0  0  0  0
    8.7700    7.8434   21.3915 C   0  0  0  0  0  0  0  0  0  0  0  0
   11.7856    6.8851   19.2401 C   0  0  0  0  0  0  0  0  0  0  0  0
   10.5281    7.4276   19.5649 C   0  0  0  0  0  0  0  0  0  0  0  0
   10.0256    7.2907   20.8484 C   0  0  0  0  0  0  0  0  0  0  0  0
    9.3113    5.3049   14.4911 C   0  0  0  0  0  0  0  0  0  0  0  0
    9.4607    7.5646   16.0139 C   0  0  0  0  0  0  0  0  0  0  0  0
   10.4192    7.3157   15.0955 C   0  0  0  0  0  0  0  0  0  0  0  0
   10.2489    6.4227   23.0218 N   0  0  0  0  0  0  0  0  0  0  0  0
    7.2472    8.0746   23.5050 C   0  0  0  0  0  0  0  0  0  0  0  0
    9.2051    6.9101   23.4604 C   0  0  0  0  0  0  0  0  0  0  0  0
   11.9646    6.0299   21.4251 C   0  0  0  0  0  0  0  0  0  0  0  0
  1  5  1  0
  1 13  1  0
  2 20  2  0
  2 28  1  0
  2 29  1  0
  3 19  4  0
  3 25  4  0
  4 23  4  0
  4 27  1  0
  4 30  4  0
  5 17  1  0
  6  8  1  0
  6 29  1  0
  7 24  4  0
  7 26  4  0
  8 28  1  0
  9 13  2  0
 10 18  1  0
 10 21  4  0
 10 30  4  0
 11 17  2  0
 12 18  1  0
 13 15  1  0
 14 24  1  0
 15 25  1  0
 16 28  2  0
 17 20  1  0
 19 24  4  0
 20 23  1  0
 21 22  4  0
 22 23  4  0
 25 26  4  0
 27 29  2  0
M  END
$$$$

 Created by Python create_sdf_string function

 30 33  0  0  0  0  0  0  0  0999 V2000
    8.3036    9.8571   18.4133 C   0  0  0  0  0  0  0  0  0  0  0  0
    8.3694    7.6612   22.6703 C   0  0  0  0  0  0  0  0  0  0  0  0
    8.4143    6.6863   16.2273 C   0  0  0  0  0  0  0  0  0  0  0  0
   10.7581    6.5674   21.7636 C   0  0  0  0  0  0  0  0  0  0  0  0
    8.4452    8.7960   19.2958 O   0  0  0  0  0  0  0  0  0  0  0  0
    8.7122    6.7842   24.8569 C   0  0  0  0  0  0  0  0  0  0  0  0
   10.3400    6.1726   14.3081 C   0  0  0  0  0  0  0  0  0  0  0  0
    7.4297    7.5873   24.8962 C   0  0  0  0  0  0  0  0  0  0  0  0
    8.1566   10.0536   16.0516 O   0  0  0  0  0  0  0  0  0  0  0  0
   12.4989    6.2074   20.1776 C   0  0  0  0  0  0  0  0  0  0  0  0
    6.9192    9.1053   20.9073 O   0  0  0  0  0  0  0  0  0  0  0  0
   14.3979    6.0729   18.7784 C   0  0  0  0  0  0  0  0  0  0  0  0
    8.6811    9.5354   16.9998 C   0  0  0  0  0  0  0  0  0  0  0  0
    9.2512    4.2713   13.7653 O   0  0  0  0  0  0  0  0  0  0  0  0
    9.6495    8.6317   16.8332 N   0  0  0  0  0  0  0  0  0  0  0  0
    6.2934    8.6988   23.1988 O   0  0  0  0  0  0  0  0  0  0  0  0
    7.9806    8.6543   20.5437 C   0  0  0  0  0  0  0  0  0  0  0  0
   13.7270    5.7144   19.8610 O   0  0  0  0  0  0  0  0  0  0  0  0
    8.3351    5.5235   15.4478 C   0  0  0  0  0  0  0  0  0  0  0  0
    8.7700    7.8434   21.3915 C   0  0  0  0  0  0  0  0  0  0  0  0
   11.7856    6.8851   19.2401 C   0  0  0  0  0  0  0  0  0  0  0  0
   10.5281    7.4276   19.5649 C   0  0  0  0  0  0  0  0  0  0  0  0
   10.0256    7.2907   20.8484 C   0  0  0  0  0  0  0  0  0  0  0  0
    9.3113    5.3049   14.4911 C   0  0  0  0  0  0  0  0  0  0  0  0
    9.4607    7.5646   16.0139 C   0  0  0  0  0  0  0  0  0  0  0  0
   10.4192    7.3157   15.0955 C   0  0  0  0  0  0  0  0  0  0  0  0
   10.2489    6.4227   23.0218 N   0  0  0  0  0  0  0  0  0  0  0  0
    7.2472    8.0746   23.5050 C   0  0  0  0  0  0  0  0  0  0  0  0
    9.2051    6.9101   23.4604 C   0  0  0  0  0  0  0  0  0  0  0  0
   11.9646    6.0299   21.4251 C   0  0  0  0  0  0  0  0  0  0  0  0
  1  5  1  0
  1 13  1  0
  2 20  2  0
  2 28  1  0
  2 29  1  0
  3 19  4  0
  3 25  4  0
  4 23  4  0
  4 27  1  0
  4 30  4  0
  5 17  1  0
  6  8  1  0
  6 29  1  0
  7 24  4  0
  7 26  4  0
  8 28  1  0
  9 13  2  0
 10 18  1  0
 10 21  4  0
 10 30  4  0
 11 17  2  0
 12 18  1  0
 13 15  1  0
 14 24  1  0
 15 25  1  0
 16 28  2  0
 17 20  1  0
 19 24  4  0
 20 23  1  0
 21 22  4  0
 22 23  4  0
 25 26  4  0
 27 29  2  0
M  END
$$$$

 Created by Python create_sdf_string function

 30 33  0  0  0  0  0  0  0  0999 V2000
    8.3036    9.8571   18.4133 C   0  0  0  0  0  0  0  0  0  0  0  0
    8.3694    7.6612   22.6703 C   0  0  0  0  0  0  0  0  0  0  0  0
    8.4143    6.6863   16.2273 C   0  0  0  0  0  0  0  0  0  0  0  0
   10.7581    6.5674   21.7636 C   0  0  0  0  0  0  0  0  0  0  0  0
    8.4452    8.7960   19.2958 O   0  0  0  0  0  0  0  0  0  0  0  0
    8.7122    6.7842   24.8569 C   0  0  0  0  0  0  0  0  0  0  0  0
   10.3400    6.1726   14.3081 C   0  0  0  0  0  0  0  0  0  0  0  0
    7.4297    7.5873   24.8962 C   0  0  0  0  0  0  0  0  0  0  0  0
    8.1566   10.0536   16.0516 O   0  0  0  0  0  0  0  0  0  0  0  0
   12.4989    6.2074   20.1776 C   0  0  0  0  0  0  0  0  0  0  0  0
    6.9192    9.1053   20.9073 O   0  0  0  0  0  0  0  0  0  0  0  0
   14.3979    6.0729   18.7784 C   0  0  0  0  0  0  0  0  0  0  0  0
    8.6811    9.5354   16.9998 C   0  0  0  0  0  0  0  0  0  0  0  0
    9.2512    4.2713   13.7653 O   0  0  0  0  0  0  0  0  0  0  0  0
    9.6495    8.6317   16.8332 N   0  0  0  0  0  0  0  0  0  0  0  0
    6.2934    8.6988   23.1988 O   0  0  0  0  0  0  0  0  0  0  0  0
    7.9806    8.6543   20.5437 C   0  0  0  0  0  0  0  0  0  0  0  0
   13.7270    5.7144   19.8610 O   0  0  0  0  0  0  0  0  0  0  0  0
    8.3351    5.5235   15.4478 C   0  0  0  0  0  0  0  0  0  0  0  0
    8.7700    7.8434   21.3915 C   0  0  0  0  0  0  0  0  0  0  0  0
   11.7856    6.8851   19.2401 C   0  0  0  0  0  0  0  0  0  0  0  0
   10.5281    7.4276   19.5649 C   0  0  0  0  0  0  0  0  0  0  0  0
   10.0256    7.2907   20.8484 C   0  0  0  0  0  0  0  0  0  0  0  0
    9.3113    5.3049   14.4911 C   0  0  0  0  0  0  0  0  0  0  0  0
    9.4607    7.5646   16.0139 C   0  0  0  0  0  0  0  0  0  0  0  0
   10.4192    7.3157   15.0955 C   0  0  0  0  0  0  0  0  0  0  0  0
   10.2489    6.4227   23.0218 N   0  0  0  0  0  0  0  0  0  0  0  0
    7.2472    8.0746   23.5050 C   0  0  0  0  0  0  0  0  0  0  0  0
    9.2051    6.9101   23.4604 C   0  0  0  0  0  0  0  0  0  0  0  0
   11.9646    6.0299   21.4251 C   0  0  0  0  0  0  0  0  0  0  0  0
  1  5  1  0
  1 13  1  0
  2 20  2  0
  2 28  1  0
  2 29  1  0
  3 19  4  0
  3 25  4  0
  4 23  4  0
  4 27  1  0
  4 30  4  0
  5 17  1  0
  6  8  1  0
  6 29  1  0
  7 24  4  0
  7 26  4  0
  8 28  1  0
  9 13  2  0
 10 18  1  0
 10 21  4  0
 10 30  4  0
 11 17  2  0
 12 18  1  0
 13 15  1  0
 14 24  1  0
 15 25  1  0
 16 28  2  0
 17 20  1  0
 19 24  4  0
 20 23  1  0
 21 22  4  0
 22 23  4  0
 25 26  4  0
 27 29  2  0
M  END
$$$$

 Created by Python create_sdf_string function

 30 33  0  0  0  0  0  0  0  0999 V2000
    8.3036    9.8571   18.4133 C   0  0  0  0  0  0  0  0  0  0  0  0
    8.3694    7.6612   22.6703 C   0  0  0  0  0  0  0  0  0  0  0  0
    8.4143    6.6863   16.2273 C   0  0  0  0  0  0  0  0  0  0  0  0
   10.7581    6.5674   21.7636 C   0  0  0  0  0  0  0  0  0  0  0  0
    8.4452    8.7960   19.2958 O   0  0  0  0  0  0  0  0  0  0  0  0
    8.7122    6.7842   24.8569 C   0  0  0  0  0  0  0  0  0  0  0  0
   10.3400    6.1726   14.3081 C   0  0  0  0  0  0  0  0  0  0  0  0
    7.4297    7.5873   24.8962 C   0  0  0  0  0  0  0  0  0  0  0  0
    8.1566   10.0536   16.0516 O   0  0  0  0  0  0  0  0  0  0  0  0
   12.4989    6.2074   20.1776 C   0  0  0  0  0  0  0  0  0  0  0  0
    6.9192    9.1053   20.9073 O   0  0  0  0  0  0  0  0  0  0  0  0
   14.3979    6.0729   18.7784 C   0  0  0  0  0  0  0  0  0  0  0  0
    8.6811    9.5354   16.9998 C   0  0  0  0  0  0  0  0  0  0  0  0
    9.2512    4.2713   13.7653 O   0  0  0  0  0  0  0  0  0  0  0  0
    9.6495    8.6317   16.8332 N   0  0  0  0  0  0  0  0  0  0  0  0
    6.2934    8.6988   23.1988 O   0  0  0  0  0  0  0  0  0  0  0  0
    7.9806    8.6543   20.5437 C   0  0  0  0  0  0  0  0  0  0  0  0
   13.7270    5.7144   19.8610 O   0  0  0  0  0  0  0  0  0  0  0  0
    8.3351    5.5235   15.4478 C   0  0  0  0  0  0  0  0  0  0  0  0
    8.7700    7.8434   21.3915 C   0  0  0  0  0  0  0  0  0  0  0  0
   11.7856    6.8851   19.2401 C   0  0  0  0  0  0  0  0  0  0  0  0
   10.5281    7.4276   19.5649 C   0  0  0  0  0  0  0  0  0  0  0  0
   10.0256    7.2907   20.8484 C   0  0  0  0  0  0  0  0  0  0  0  0
    9.3113    5.3049   14.4911 C   0  0  0  0  0  0  0  0  0  0  0  0
    9.4607    7.5646   16.0139 C   0  0  0  0  0  0  0  0  0  0  0  0
   10.4192    7.3157   15.0955 C   0  0  0  0  0  0  0  0  0  0  0  0
   10.2489    6.4227   23.0218 N   0  0  0  0  0  0  0  0  0  0  0  0
    7.2472    8.0746   23.5050 C   0  0  0  0  0  0  0  0  0  0  0  0
    9.2051    6.9101   23.4604 C   0  0  0  0  0  0  0  0  0  0  0  0
   11.9646    6.0299   21.4251 C   0  0  0  0  0  0  0  0  0  0  0  0
  1  5  1  0
  1 13  1  0
  2 20  2  0
  2 28  1  0
  2 29  1  0
  3 19  4  0
  3 25  4  0
  4 23  4  0
  4 27  1  0
  4 30  4  0
  5 17  1  0
  6  8  1  0
  6 29  1  0
  7 24  4  0
  7 26  4  0
  8 28  1  0
  9 13  2  0
 10 18  1  0
 10 21  4  0
 10 30  4  0
 11 17  2  0
 12 18  1  0
 13 15  1  0
 14 24  1  0
 15 25  1  0
 16 28  2  0
 17 20  1  0
 19 24  4  0
 20 23  1  0
 21 22  4  0
 22 23  4  0
 25 26  4  0
 27 29  2  0
M  END
$$$$

 Created by Python create_sdf_string function

 30 33  0  0  0  0  0  0  0  0999 V2000
    8.3036    9.8571   18.4133 C   0  0  0  0  0  0  0  0  0  0  0  0
    8.3694    7.6612   22.6703 C   0  0  0  0  0  0  0  0  0  0  0  0
    8.4143    6.6863   16.2273 C   0  0  0  0  0  0  0  0  0  0  0  0
   10.7581    6.5674   21.7636 C   0  0  0  0  0  0  0  0  0  0  0  0
    8.4452    8.7960   19.2958 O   0  0  0  0  0  0  0  0  0  0  0  0
    8.7122    6.7842   24.8569 C   0  0  0  0  0  0  0  0  0  0  0  0
   10.3400    6.1726   14.3081 C   0  0  0  0  0  0  0  0  0  0  0  0
    7.4297    7.5873   24.8962 C   0  0  0  0  0  0  0  0  0  0  0  0
    8.1566   10.0536   16.0516 O   0  0  0  0  0  0  0  0  0  0  0  0
   12.4989    6.2074   20.1776 C   0  0  0  0  0  0  0  0  0  0  0  0
    6.9192    9.1053   20.9073 O   0  0  0  0  0  0  0  0  0  0  0  0
   14.3979    6.0729   18.7784 C   0  0  0  0  0  0  0  0  0  0  0  0
    8.6811    9.5354   16.9998 C   0  0  0  0  0  0  0  0  0  0  0  0
    9.2512    4.2713   13.7653 O   0  0  0  0  0  0  0  0  0  0  0  0
    9.6495    8.6317   16.8332 N   0  0  0  0  0  0  0  0  0  0  0  0
    6.2934    8.6988   23.1988 O   0  0  0  0  0  0  0  0  0  0  0  0
    7.9806    8.6543   20.5437 C   0  0  0  0  0  0  0  0  0  0  0  0
   13.7270    5.7144   19.8610 O   0  0  0  0  0  0  0  0  0  0  0  0
    8.3351    5.5235   15.4478 C   0  0  0  0  0  0  0  0  0  0  0  0
    8.7700    7.8434   21.3915 C   0  0  0  0  0  0  0  0  0  0  0  0
   11.7856    6.8851   19.2401 C   0  0  0  0  0  0  0  0  0  0  0  0
   10.5281    7.4276   19.5649 C   0  0  0  0  0  0  0  0  0  0  0  0
   10.0256    7.2907   20.8484 C   0  0  0  0  0  0  0  0  0  0  0  0
    9.3113    5.3049   14.4911 C   0  0  0  0  0  0  0  0  0  0  0  0
    9.4607    7.5646   16.0139 C   0  0  0  0  0  0  0  0  0  0  0  0
   10.4192    7.3157   15.0955 C   0  0  0  0  0  0  0  0  0  0  0  0
   10.2489    6.4227   23.0218 N   0  0  0  0  0  0  0  0  0  0  0  0
    7.2472    8.0746   23.5050 C   0  0  0  0  0  0  0  0  0  0  0  0
    9.2051    6.9101   23.4604 C   0  0  0  0  0  0  0  0  0  0  0  0
   11.9646    6.0299   21.4251 C   0  0  0  0  0  0  0  0  0  0  0  0
  1  5  1  0
  1 13  1  0
  2 20  2  0
  2 28  1  0
  2 29  1  0
  3 19  4  0
  3 25  4  0
  4 23  4  0
  4 27  1  0
  4 30  4  0
  5 17  1  0
  6  8  1  0
  6 29  1  0
  7 24  4  0
  7 26  4  0
  8 28  1  0
  9 13  2  0
 10 18  1  0
 10 21  4  0
 10 30  4  0
 11 17  2  0
 12 18  1  0
 13 15  1  0
 14 24  1  0
 15 25  1  0
 16 28  2  0
 17 20  1  0
 19 24  4  0
 20 23  1  0
 21 22  4  0
 22 23  4  0
 25 26  4  0
 27 29  2  0
M  END
$$$$

 Created by Python create_sdf_string function

 30 33  0  0  0  0  0  0  0  0999 V2000
    8.3036    9.8571   18.4133 C   0  0  0  0  0  0  0  0  0  0  0  0
    8.3694    7.6612   22.6703 C   0  0  0  0  0  0  0  0  0  0  0  0
    8.4143    6.6863   16.2273 C   0  0  0  0  0  0  0  0  0  0  0  0
   10.7581    6.5674   21.7636 C   0  0  0  0  0  0  0  0  0  0  0  0
    8.4452    8.7960   19.2958 O   0  0  0  0  0  0  0  0  0  0  0  0
    8.7122    6.7842   24.8569 C   0  0  0  0  0  0  0  0  0  0  0  0
   10.3400    6.1726   14.3081 C   0  0  0  0  0  0  0  0  0  0  0  0
    7.4297    7.5873   24.8962 C   0  0  0  0  0  0  0  0  0  0  0  0
    8.1566   10.0536   16.0516 O   0  0  0  0  0  0  0  0  0  0  0  0
   12.4989    6.2074   20.1776 C   0  0  0  0  0  0  0  0  0  0  0  0
    6.9192    9.1053   20.9073 O   0  0  0  0  0  0  0  0  0  0  0  0
   14.3979    6.0729   18.7784 C   0  0  0  0  0  0  0  0  0  0  0  0
    8.6811    9.5354   16.9998 C   0  0  0  0  0  0  0  0  0  0  0  0
    9.2512    4.2713   13.7653 O   0  0  0  0  0  0  0  0  0  0  0  0
    9.6495    8.6317   16.8332 N   0  0  0  0  0  0  0  0  0  0  0  0
    6.2934    8.6988   23.1988 O   0  0  0  0  0  0  0  0  0  0  0  0
    7.9806    8.6543   20.5437 C   0  0  0  0  0  0  0  0  0  0  0  0
   13.7270    5.7144   19.8610 O   0  0  0  0  0  0  0  0  0  0  0  0
    8.3351    5.5235   15.4478 C   0  0  0  0  0  0  0  0  0  0  0  0
    8.7700    7.8434   21.3915 C   0  0  0  0  0  0  0  0  0  0  0  0
   11.7856    6.8851   19.2401 C   0  0  0  0  0  0  0  0  0  0  0  0
   10.5281    7.4276   19.5649 C   0  0  0  0  0  0  0  0  0  0  0  0
   10.0256    7.2907   20.8484 C   0  0  0  0  0  0  0  0  0  0  0  0
    9.3113    5.3049   14.4911 C   0  0  0  0  0  0  0  0  0  0  0  0
    9.4607    7.5646   16.0139 C   0  0  0  0  0  0  0  0  0  0  0  0
   10.4192    7.3157   15.0955 C   0  0  0  0  0  0  0  0  0  0  0  0
   10.2489    6.4227   23.0218 N   0  0  0  0  0  0  0  0  0  0  0  0
    7.2472    8.0746   23.5050 C   0  0  0  0  0  0  0  0  0  0  0  0
    9.2051    6.9101   23.4604 C   0  0  0  0  0  0  0  0  0  0  0  0
   11.9646    6.0299   21.4251 C   0  0  0  0  0  0  0  0  0  0  0  0
  1  5  1  0
  1 13  1  0
  2 20  2  0
  2 28  1  0
  2 29  1  0
  3 19  4  0
  3 25  4  0
  4 23  4  0
  4 27  1  0
  4 30  4  0
  5 17  1  0
  6  8  1  0
  6 29  1  0
  7 24  4  0
  7 26  4  0
  8 28  1  0
  9 13  2  0
 10 18  1  0
 10 21  4  0
 10 30  4  0
 11 17  2  0
 12 18  1  0
 13 15  1  0
 14 24  1  0
 15 25  1  0
 16 28  2  0
 17 20  1  0
 19 24  4  0
 20 23  1  0
 21 22  4  0
 22 23  4  0
 25 26  4  0
 27 29  2  0
M  END
$$$$

 Created by Python create_sdf_string function

 30 33  0  0  0  0  0  0  0  0999 V2000
    8.3036    9.8571   18.4133 C   0  0  0  0  0  0  0  0  0  0  0  0
    8.3694    7.6612   22.6703 C   0  0  0  0  0  0  0  0  0  0  0  0
    8.4143    6.6863   16.2273 C   0  0  0  0  0  0  0  0  0  0  0  0
   10.7581    6.5674   21.7636 C   0  0  0  0  0  0  0  0  0  0  0  0
    8.4452    8.7960   19.2958 O   0  0  0  0  0  0  0  0  0  0  0  0
    8.7122    6.7842   24.8569 C   0  0  0  0  0  0  0  0  0  0  0  0
   10.3400    6.1726   14.3081 C   0  0  0  0  0  0  0  0  0  0  0  0
    7.4297    7.5873   24.8962 C   0  0  0  0  0  0  0  0  0  0  0  0
    8.1566   10.0536   16.0516 O   0  0  0  0  0  0  0  0  0  0  0  0
   12.4989    6.2074   20.1776 C   0  0  0  0  0  0  0  0  0  0  0  0
    6.9192    9.1053   20.9073 O   0  0  0  0  0  0  0  0  0  0  0  0
   14.3979    6.0729   18.7784 C   0  0  0  0  0  0  0  0  0  0  0  0
    8.6811    9.5354   16.9998 C   0  0  0  0  0  0  0  0  0  0  0  0
    9.2512    4.2713   13.7653 O   0  0  0  0  0  0  0  0  0  0  0  0
    9.6495    8.6317   16.8332 N   0  0  0  0  0  0  0  0  0  0  0  0
    6.2934    8.6988   23.1988 O   0  0  0  0  0  0  0  0  0  0  0  0
    7.9806    8.6543   20.5437 C   0  0  0  0  0  0  0  0  0  0  0  0
   13.7270    5.7144   19.8610 O   0  0  0  0  0  0  0  0  0  0  0  0
    8.3351    5.5235   15.4478 C   0  0  0  0  0  0  0  0  0  0  0  0
    8.7700    7.8434   21.3915 C   0  0  0  0  0  0  0  0  0  0  0  0
   11.7856    6.8851   19.2401 C   0  0  0  0  0  0  0  0  0  0  0  0
   10.5281    7.4276   19.5649 C   0  0  0  0  0  0  0  0  0  0  0  0
   10.0256    7.2907   20.8484 C   0  0  0  0  0  0  0  0  0  0  0  0
    9.3113    5.3049   14.4911 C   0  0  0  0  0  0  0  0  0  0  0  0
    9.4607    7.5646   16.0139 C   0  0  0  0  0  0  0  0  0  0  0  0
   10.4192    7.3157   15.0955 C   0  0  0  0  0  0  0  0  0  0  0  0
   10.2489    6.4227   23.0218 N   0  0  0  0  0  0  0  0  0  0  0  0
    7.2472    8.0746   23.5050 C   0  0  0  0  0  0  0  0  0  0  0  0
    9.2051    6.9101   23.4604 C   0  0  0  0  0  0  0  0  0  0  0  0
   11.9646    6.0299   21.4251 C   0  0  0  0  0  0  0  0  0  0  0  0
  1  5  1  0
  1 13  1  0
  2 20  2  0
  2 28  1  0
  2 29  1  0
  3 19  4  0
  3 25  4  0
  4 23  4  0
  4 27  1  0
  4 30  4  0
  5 17  1  0
  6  8  1  0
  6 29  1  0
  7 24  4  0
  7 26  4  0
  8 28  1  0
  9 13  2  0
 10 18  1  0
 10 21  4  0
 10 30  4  0
 11 17  2  0
 12 18  1  0
 13 15  1  0
 14 24  1  0
 15 25  1  0
 16 28  2  0
 17 20  1  0
 19 24  4  0
 20 23  1  0
 21 22  4  0
 22 23  4  0
 25 26  4  0
 27 29  2  0
M  END
$$$$

 Created by Python create_sdf_string function

 30 33  0  0  0  0  0  0  0  0999 V2000
    8.3036    9.8571   18.4133 C   0  0  0  0  0  0  0  0  0  0  0  0
    8.3694    7.6612   22.6703 C   0  0  0  0  0  0  0  0  0  0  0  0
    8.4143    6.6863   16.2273 C   0  0  0  0  0  0  0  0  0  0  0  0
   10.7581    6.5674   21.7636 C   0  0  0  0  0  0  0  0  0  0  0  0
    8.4452    8.7960   19.2958 O   0  0  0  0  0  0  0  0  0  0  0  0
    8.7122    6.7842   24.8569 C   0  0  0  0  0  0  0  0  0  0  0  0
   10.3400    6.1726   14.3081 C   0  0  0  0  0  0  0  0  0  0  0  0
    7.4297    7.5873   24.8962 C   0  0  0  0  0  0  0  0  0  0  0  0
    8.1566   10.0536   16.0516 O   0  0  0  0  0  0  0  0  0  0  0  0
   12.4989    6.2074   20.1776 C   0  0  0  0  0  0  0  0  0  0  0  0
    6.9192    9.1053   20.9073 O   0  0  0  0  0  0  0  0  0  0  0  0
   14.3979    6.0729   18.7784 C   0  0  0  0  0  0  0  0  0  0  0  0
    8.6811    9.5354   16.9998 C   0  0  0  0  0  0  0  0  0  0  0  0
    9.2512    4.2713   13.7653 O   0  0  0  0  0  0  0  0  0  0  0  0
    9.6495    8.6317   16.8332 N   0  0  0  0  0  0  0  0  0  0  0  0
    6.2934    8.6988   23.1988 O   0  0  0  0  0  0  0  0  0  0  0  0
    7.9806    8.6543   20.5437 C   0  0  0  0  0  0  0  0  0  0  0  0
   13.7270    5.7144   19.8610 O   0  0  0  0  0  0  0  0  0  0  0  0
    8.3351    5.5235   15.4478 C   0  0  0  0  0  0  0  0  0  0  0  0
    8.7700    7.8434   21.3915 C   0  0  0  0  0  0  0  0  0  0  0  0
   11.7856    6.8851   19.2401 C   0  0  0  0  0  0  0  0  0  0  0  0
   10.5281    7.4276   19.5649 C   0  0  0  0  0  0  0  0  0  0  0  0
   10.0256    7.2907   20.8484 C   0  0  0  0  0  0  0  0  0  0  0  0
    9.3113    5.3049   14.4911 C   0  0  0  0  0  0  0  0  0  0  0  0
    9.4607    7.5646   16.0139 C   0  0  0  0  0  0  0  0  0  0  0  0
   10.4192    7.3157   15.0955 C   0  0  0  0  0  0  0  0  0  0  0  0
   10.2489    6.4227   23.0218 N   0  0  0  0  0  0  0  0  0  0  0  0
    7.2472    8.0746   23.5050 C   0  0  0  0  0  0  0  0  0  0  0  0
    9.2051    6.9101   23.4604 C   0  0  0  0  0  0  0  0  0  0  0  0
   11.9646    6.0299   21.4251 C   0  0  0  0  0  0  0  0  0  0  0  0
  1  5  1  0
  1 13  1  0
  2 20  2  0
  2 28  1  0
  2 29  1  0
  3 19  4  0
  3 25  4  0
  4 23  4  0
  4 27  1  0
  4 30  4  0
  5 17  1  0
  6  8  1  0
  6 29  1  0
  7 24  4  0
  7 26  4  0
  8 28  1  0
  9 13  2  0
 10 18  1  0
 10 21  4  0
 10 30  4  0
 11 17  2  0
 12 18  1  0
 13 15  1  0
 14 24  1  0
 15 25  1  0
 16 28  2  0
 17 20  1  0
 19 24  4  0
 20 23  1  0
 21 22  4  0
 22 23  4  0
 25 26  4  0
 27 29  2  0
M  END
$$$$

 Created by Python create_sdf_string function

 30 33  0  0  0  0  0  0  0  0999 V2000
    8.3036    9.8571   18.4133 C   0  0  0  0  0  0  0  0  0  0  0  0
    8.3694    7.6612   22.6703 C   0  0  0  0  0  0  0  0  0  0  0  0
    8.4143    6.6863   16.2273 C   0  0  0  0  0  0  0  0  0  0  0  0
   10.7581    6.5674   21.7636 C   0  0  0  0  0  0  0  0  0  0  0  0
    8.4452    8.7960   19.2958 O   0  0  0  0  0  0  0  0  0  0  0  0
    8.7122    6.7842   24.8569 C   0  0  0  0  0  0  0  0  0  0  0  0
   10.3400    6.1726   14.3081 C   0  0  0  0  0  0  0  0  0  0  0  0
    7.4297    7.5873   24.8962 C   0  0  0  0  0  0  0  0  0  0  0  0
    8.1566   10.0536   16.0516 O   0  0  0  0  0  0  0  0  0  0  0  0
   12.4989    6.2074   20.1776 C   0  0  0  0  0  0  0  0  0  0  0  0
    6.9192    9.1053   20.9073 O   0  0  0  0  0  0  0  0  0  0  0  0
   14.3979    6.0729   18.7784 C   0  0  0  0  0  0  0  0  0  0  0  0
    8.6811    9.5354   16.9998 C   0  0  0  0  0  0  0  0  0  0  0  0
    9.2512    4.2713   13.7653 O   0  0  0  0  0  0  0  0  0  0  0  0
    9.6495    8.6317   16.8332 N   0  0  0  0  0  0  0  0  0  0  0  0
    6.2934    8.6988   23.1988 O   0  0  0  0  0  0  0  0  0  0  0  0
    7.9806    8.6543   20.5437 C   0  0  0  0  0  0  0  0  0  0  0  0
   13.7270    5.7144   19.8610 O   0  0  0  0  0  0  0  0  0  0  0  0
    8.3351    5.5235   15.4478 C   0  0  0  0  0  0  0  0  0  0  0  0
    8.7700    7.8434   21.3915 C   0  0  0  0  0  0  0  0  0  0  0  0
   11.7856    6.8851   19.2401 C   0  0  0  0  0  0  0  0  0  0  0  0
   10.5281    7.4276   19.5649 C   0  0  0  0  0  0  0  0  0  0  0  0
   10.0256    7.2907   20.8484 C   0  0  0  0  0  0  0  0  0  0  0  0
    9.3113    5.3049   14.4911 C   0  0  0  0  0  0  0  0  0  0  0  0
    9.4607    7.5646   16.0139 C   0  0  0  0  0  0  0  0  0  0  0  0
   10.4192    7.3157   15.0955 C   0  0  0  0  0  0  0  0  0  0  0  0
   10.2489    6.4227   23.0218 N   0  0  0  0  0  0  0  0  0  0  0  0
    7.2472    8.0746   23.5050 C   0  0  0  0  0  0  0  0  0  0  0  0
    9.2051    6.9101   23.4604 C   0  0  0  0  0  0  0  0  0  0  0  0
   11.9646    6.0299   21.4251 C   0  0  0  0  0  0  0  0  0  0  0  0
  1  5  1  0
  1 13  1  0
  2 20  2  0
  2 28  1  0
  2 29  1  0
  3 19  4  0
  3 25  4  0
  4 23  4  0
  4 27  1  0
  4 30  4  0
  5 17  1  0
  6  8  1  0
  6 29  1  0
  7 24  4  0
  7 26  4  0
  8 28  1  0
  9 13  2  0
 10 18  1  0
 10 21  4  0
 10 30  4  0
 11 17  2  0
 12 18  1  0
 13 15  1  0
 14 24  1  0
 15 25  1  0
 16 28  2  0
 17 20  1  0
 19 24  4  0
 20 23  1  0
 21 22  4  0
 22 23  4  0
 25 26  4  0
 27 29  2  0
M  END
$$$$

 Created by Python create_sdf_string function

 30 33  0  0  0  0  0  0  0  0999 V2000
    8.3036    9.8571   18.4133 C   0  0  0  0  0  0  0  0  0  0  0  0
    8.3694    7.6612   22.6703 C   0  0  0  0  0  0  0  0  0  0  0  0
    8.4143    6.6863   16.2273 C   0  0  0  0  0  0  0  0  0  0  0  0
   10.7581    6.5674   21.7636 C   0  0  0  0  0  0  0  0  0  0  0  0
    8.4452    8.7960   19.2958 O   0  0  0  0  0  0  0  0  0  0  0  0
    8.7122    6.7842   24.8569 C   0  0  0  0  0  0  0  0  0  0  0  0
   10.3400    6.1726   14.3081 C   0  0  0  0  0  0  0  0  0  0  0  0
    7.4297    7.5873   24.8962 C   0  0  0  0  0  0  0  0  0  0  0  0
    8.1566   10.0536   16.0516 O   0  0  0  0  0  0  0  0  0  0  0  0
   12.4989    6.2074   20.1776 C   0  0  0  0  0  0  0  0  0  0  0  0
    6.9192    9.1053   20.9073 O   0  0  0  0  0  0  0  0  0  0  0  0
   14.3979    6.0729   18.7784 C   0  0  0  0  0  0  0  0  0  0  0  0
    8.6811    9.5354   16.9998 C   0  0  0  0  0  0  0  0  0  0  0  0
    9.2512    4.2713   13.7653 O   0  0  0  0  0  0  0  0  0  0  0  0
    9.6495    8.6317   16.8332 N   0  0  0  0  0  0  0  0  0  0  0  0
    6.2934    8.6988   23.1988 O   0  0  0  0  0  0  0  0  0  0  0  0
    7.9806    8.6543   20.5437 C   0  0  0  0  0  0  0  0  0  0  0  0
   13.7270    5.7144   19.8610 O   0  0  0  0  0  0  0  0  0  0  0  0
    8.3351    5.5235   15.4478 C   0  0  0  0  0  0  0  0  0  0  0  0
    8.7700    7.8434   21.3915 C   0  0  0  0  0  0  0  0  0  0  0  0
   11.7856    6.8851   19.2401 C   0  0  0  0  0  0  0  0  0  0  0  0
   10.5281    7.4276   19.5649 C   0  0  0  0  0  0  0  0  0  0  0  0
   10.0256    7.2907   20.8484 C   0  0  0  0  0  0  0  0  0  0  0  0
    9.3113    5.3049   14.4911 C   0  0  0  0  0  0  0  0  0  0  0  0
    9.4607    7.5646   16.0139 C   0  0  0  0  0  0  0  0  0  0  0  0
   10.4192    7.3157   15.0955 C   0  0  0  0  0  0  0  0  0  0  0  0
   10.2489    6.4227   23.0218 N   0  0  0  0  0  0  0  0  0  0  0  0
    7.2472    8.0746   23.5050 C   0  0  0  0  0  0  0  0  0  0  0  0
    9.2051    6.9101   23.4604 C   0  0  0  0  0  0  0  0  0  0  0  0
   11.9646    6.0299   21.4251 C   0  0  0  0  0  0  0  0  0  0  0  0
  1  5  1  0
  1 13  1  0
  2 20  2  0
  2 28  1  0
  2 29  1  0
  3 19  4  0
  3 25  4  0
  4 23  4  0
  4 27  1  0
  4 30  4  0
  5 17  1  0
  6  8  1  0
  6 29  1  0
  7 24  4  0
  7 26  4  0
  8 28  1  0
  9 13  2  0
 10 18  1  0
 10 21  4  0
 10 30  4  0
 11 17  2  0
 12 18  1  0
 13 15  1  0
 14 24  1  0
 15 25  1  0
 16 28  2  0
 17 20  1  0
 19 24  4  0
 20 23  1  0
 21 22  4  0
 22 23  4  0
 25 26  4  0
 27 29  2  0
M  END
$$$$

 Created by Python create_sdf_string function

 30 33  0  0  0  0  0  0  0  0999 V2000
    8.3036    9.8571   18.4133 C   0  0  0  0  0  0  0  0  0  0  0  0
    8.3694    7.6612   22.6703 C   0  0  0  0  0  0  0  0  0  0  0  0
    8.4143    6.6863   16.2273 C   0  0  0  0  0  0  0  0  0  0  0  0
   10.7581    6.5674   21.7636 C   0  0  0  0  0  0  0  0  0  0  0  0
    8.4452    8.7960   19.2958 O   0  0  0  0  0  0  0  0  0  0  0  0
    8.7122    6.7842   24.8569 C   0  0  0  0  0  0  0  0  0  0  0  0
   10.3400    6.1726   14.3081 C   0  0  0  0  0  0  0  0  0  0  0  0
    7.4297    7.5873   24.8962 C   0  0  0  0  0  0  0  0  0  0  0  0
    8.1566   10.0536   16.0516 O   0  0  0  0  0  0  0  0  0  0  0  0
   12.4989    6.2074   20.1776 C   0  0  0  0  0  0  0  0  0  0  0  0
    6.9192    9.1053   20.9073 O   0  0  0  0  0  0  0  0  0  0  0  0
   14.3979    6.0729   18.7784 C   0  0  0  0  0  0  0  0  0  0  0  0
    8.6811    9.5354   16.9998 C   0  0  0  0  0  0  0  0  0  0  0  0
    9.2512    4.2713   13.7653 O   0  0  0  0  0  0  0  0  0  0  0  0
    9.6495    8.6317   16.8332 N   0  0  0  0  0  0  0  0  0  0  0  0
    6.2934    8.6988   23.1988 O   0  0  0  0  0  0  0  0  0  0  0  0
    7.9806    8.6543   20.5437 C   0  0  0  0  0  0  0  0  0  0  0  0
   13.7270    5.7144   19.8610 O   0  0  0  0  0  0  0  0  0  0  0  0
    8.3351    5.5235   15.4478 C   0  0  0  0  0  0  0  0  0  0  0  0
    8.7700    7.8434   21.3915 C   0  0  0  0  0  0  0  0  0  0  0  0
   11.7856    6.8851   19.2401 C   0  0  0  0  0  0  0  0  0  0  0  0
   10.5281    7.4276   19.5649 C   0  0  0  0  0  0  0  0  0  0  0  0
   10.0256    7.2907   20.8484 C   0  0  0  0  0  0  0  0  0  0  0  0
    9.3113    5.3049   14.4911 C   0  0  0  0  0  0  0  0  0  0  0  0
    9.4607    7.5646   16.0139 C   0  0  0  0  0  0  0  0  0  0  0  0
   10.4192    7.3157   15.0955 C   0  0  0  0  0  0  0  0  0  0  0  0
   10.2489    6.4227   23.0218 N   0  0  0  0  0  0  0  0  0  0  0  0
    7.2472    8.0746   23.5050 C   0  0  0  0  0  0  0  0  0  0  0  0
    9.2051    6.9101   23.4604 C   0  0  0  0  0  0  0  0  0  0  0  0
   11.9646    6.0299   21.4251 C   0  0  0  0  0  0  0  0  0  0  0  0
  1  5  1  0
  1 13  1  0
  2 20  2  0
  2 28  1  0
  2 29  1  0
  3 19  4  0
  3 25  4  0
  4 23  4  0
  4 27  1  0
  4 30  4  0
  5 17  1  0
  6  8  1  0
  6 29  1  0
  7 24  4  0
  7 26  4  0
  8 28  1  0
  9 13  2  0
 10 18  1  0
 10 21  4  0
 10 30  4  0
 11 17  2  0
 12 18  1  0
 13 15  1  0
 14 24  1  0
 15 25  1  0
 16 28  2  0
 17 20  1  0
 19 24  4  0
 20 23  1  0
 21 22  4  0
 22 23  4  0
 25 26  4  0
 27 29  2  0
M  END
$$$$

 Created by Python create_sdf_string function

 30 33  0  0  0  0  0  0  0  0999 V2000
    8.3036    9.8571   18.4133 C   0  0  0  0  0  0  0  0  0  0  0  0
    8.3694    7.6612   22.6703 C   0  0  0  0  0  0  0  0  0  0  0  0
    8.4143    6.6863   16.2273 C   0  0  0  0  0  0  0  0  0  0  0  0
   10.7581    6.5674   21.7636 C   0  0  0  0  0  0  0  0  0  0  0  0
    8.4452    8.7960   19.2958 O   0  0  0  0  0  0  0  0  0  0  0  0
    8.7122    6.7842   24.8569 C   0  0  0  0  0  0  0  0  0  0  0  0
   10.3400    6.1726   14.3081 C   0  0  0  0  0  0  0  0  0  0  0  0
    7.4297    7.5873   24.8962 C   0  0  0  0  0  0  0  0  0  0  0  0
    8.1566   10.0536   16.0516 O   0  0  0  0  0  0  0  0  0  0  0  0
   12.4989    6.2074   20.1776 C   0  0  0  0  0  0  0  0  0  0  0  0
    6.9192    9.1053   20.9073 O   0  0  0  0  0  0  0  0  0  0  0  0
   14.3979    6.0729   18.7784 C   0  0  0  0  0  0  0  0  0  0  0  0
    8.6811    9.5354   16.9998 C   0  0  0  0  0  0  0  0  0  0  0  0
    9.2512    4.2713   13.7653 O   0  0  0  0  0  0  0  0  0  0  0  0
    9.6495    8.6317   16.8332 N   0  0  0  0  0  0  0  0  0  0  0  0
    6.2934    8.6988   23.1988 O   0  0  0  0  0  0  0  0  0  0  0  0
    7.9806    8.6543   20.5437 C   0  0  0  0  0  0  0  0  0  0  0  0
   13.7270    5.7144   19.8610 O   0  0  0  0  0  0  0  0  0  0  0  0
    8.3351    5.5235   15.4478 C   0  0  0  0  0  0  0  0  0  0  0  0
    8.7700    7.8434   21.3915 C   0  0  0  0  0  0  0  0  0  0  0  0
   11.7856    6.8851   19.2401 C   0  0  0  0  0  0  0  0  0  0  0  0
   10.5281    7.4276   19.5649 C   0  0  0  0  0  0  0  0  0  0  0  0
   10.0256    7.2907   20.8484 C   0  0  0  0  0  0  0  0  0  0  0  0
    9.3113    5.3049   14.4911 C   0  0  0  0  0  0  0  0  0  0  0  0
    9.4607    7.5646   16.0139 C   0  0  0  0  0  0  0  0  0  0  0  0
   10.4192    7.3157   15.0955 C   0  0  0  0  0  0  0  0  0  0  0  0
   10.2489    6.4227   23.0218 N   0  0  0  0  0  0  0  0  0  0  0  0
    7.2472    8.0746   23.5050 C   0  0  0  0  0  0  0  0  0  0  0  0
    9.2051    6.9101   23.4604 C   0  0  0  0  0  0  0  0  0  0  0  0
   11.9646    6.0299   21.4251 C   0  0  0  0  0  0  0  0  0  0  0  0
  1  5  1  0
  1 13  1  0
  2 20  2  0
  2 28  1  0
  2 29  1  0
  3 19  4  0
  3 25  4  0
  4 23  4  0
  4 27  1  0
  4 30  4  0
  5 17  1  0
  6  8  1  0
  6 29  1  0
  7 24  4  0
  7 26  4  0
  8 28  1  0
  9 13  2  0
 10 18  1  0
 10 21  4  0
 10 30  4  0
 11 17  2  0
 12 18  1  0
 13 15  1  0
 14 24  1  0
 15 25  1  0
 16 28  2  0
 17 20  1  0
 19 24  4  0
 20 23  1  0
 21 22  4  0
 22 23  4  0
 25 26  4  0
 27 29  2  0
M  END
$$$$

 Created by Python create_sdf_string function

 30 33  0  0  0  0  0  0  0  0999 V2000
    8.3036    9.8571   18.4133 C   0  0  0  0  0  0  0  0  0  0  0  0
    8.3694    7.6612   22.6703 C   0  0  0  0  0  0  0  0  0  0  0  0
    8.4143    6.6863   16.2273 C   0  0  0  0  0  0  0  0  0  0  0  0
   10.7581    6.5674   21.7636 C   0  0  0  0  0  0  0  0  0  0  0  0
    8.4452    8.7960   19.2958 O   0  0  0  0  0  0  0  0  0  0  0  0
    8.7122    6.7842   24.8569 C   0  0  0  0  0  0  0  0  0  0  0  0
   10.3400    6.1726   14.3081 C   0  0  0  0  0  0  0  0  0  0  0  0
    7.4297    7.5873   24.8962 C   0  0  0  0  0  0  0  0  0  0  0  0
    8.1566   10.0536   16.0516 O   0  0  0  0  0  0  0  0  0  0  0  0
   12.4989    6.2074   20.1776 C   0  0  0  0  0  0  0  0  0  0  0  0
    6.9192    9.1053   20.9073 O   0  0  0  0  0  0  0  0  0  0  0  0
   14.3979    6.0729   18.7784 C   0  0  0  0  0  0  0  0  0  0  0  0
    8.6811    9.5354   16.9998 C   0  0  0  0  0  0  0  0  0  0  0  0
    9.2512    4.2713   13.7653 O   0  0  0  0  0  0  0  0  0  0  0  0
    9.6495    8.6317   16.8332 N   0  0  0  0  0  0  0  0  0  0  0  0
    6.2934    8.6988   23.1988 O   0  0  0  0  0  0  0  0  0  0  0  0
    7.9806    8.6543   20.5437 C   0  0  0  0  0  0  0  0  0  0  0  0
   13.7270    5.7144   19.8610 O   0  0  0  0  0  0  0  0  0  0  0  0
    8.3351    5.5235   15.4478 C   0  0  0  0  0  0  0  0  0  0  0  0
    8.7700    7.8434   21.3915 C   0  0  0  0  0  0  0  0  0  0  0  0
   11.7856    6.8851   19.2401 C   0  0  0  0  0  0  0  0  0  0  0  0
   10.5281    7.4276   19.5649 C   0  0  0  0  0  0  0  0  0  0  0  0
   10.0256    7.2907   20.8484 C   0  0  0  0  0  0  0  0  0  0  0  0
    9.3113    5.3049   14.4911 C   0  0  0  0  0  0  0  0  0  0  0  0
    9.4607    7.5646   16.0139 C   0  0  0  0  0  0  0  0  0  0  0  0
   10.4192    7.3157   15.0955 C   0  0  0  0  0  0  0  0  0  0  0  0
   10.2489    6.4227   23.0218 N   0  0  0  0  0  0  0  0  0  0  0  0
    7.2472    8.0746   23.5050 C   0  0  0  0  0  0  0  0  0  0  0  0
    9.2051    6.9101   23.4604 C   0  0  0  0  0  0  0  0  0  0  0  0
   11.9646    6.0299   21.4251 C   0  0  0  0  0  0  0  0  0  0  0  0
  1  5  1  0
  1 13  1  0
  2 20  2  0
  2 28  1  0
  2 29  1  0
  3 19  4  0
  3 25  4  0
  4 23  4  0
  4 27  1  0
  4 30  4  0
  5 17  1  0
  6  8  1  0
  6 29  1  0
  7 24  4  0
  7 26  4  0
  8 28  1  0
  9 13  2  0
 10 18  1  0
 10 21  4  0
 10 30  4  0
 11 17  2  0
 12 18  1  0
 13 15  1  0
 14 24  1  0
 15 25  1  0
 16 28  2  0
 17 20  1  0
 19 24  4  0
 20 23  1  0
 21 22  4  0
 22 23  4  0
 25 26  4  0
 27 29  2  0
M  END
$$$$

 Created by Python create_sdf_string function

 30 33  0  0  0  0  0  0  0  0999 V2000
    8.3036    9.8571   18.4133 C   0  0  0  0  0  0  0  0  0  0  0  0
    8.3694    7.6612   22.6703 C   0  0  0  0  0  0  0  0  0  0  0  0
    8.4143    6.6863   16.2273 C   0  0  0  0  0  0  0  0  0  0  0  0
   10.7581    6.5674   21.7636 C   0  0  0  0  0  0  0  0  0  0  0  0
    8.4452    8.7960   19.2958 O   0  0  0  0  0  0  0  0  0  0  0  0
    8.7122    6.7842   24.8569 C   0  0  0  0  0  0  0  0  0  0  0  0
   10.3400    6.1726   14.3081 C   0  0  0  0  0  0  0  0  0  0  0  0
    7.4297    7.5873   24.8962 C   0  0  0  0  0  0  0  0  0  0  0  0
    8.1566   10.0536   16.0516 O   0  0  0  0  0  0  0  0  0  0  0  0
   12.4989    6.2074   20.1776 C   0  0  0  0  0  0  0  0  0  0  0  0
    6.9192    9.1053   20.9073 O   0  0  0  0  0  0  0  0  0  0  0  0
   14.3979    6.0729   18.7784 C   0  0  0  0  0  0  0  0  0  0  0  0
    8.6811    9.5354   16.9998 C   0  0  0  0  0  0  0  0  0  0  0  0
    9.2512    4.2713   13.7653 O   0  0  0  0  0  0  0  0  0  0  0  0
    9.6495    8.6317   16.8332 N   0  0  0  0  0  0  0  0  0  0  0  0
    6.2934    8.6988   23.1988 O   0  0  0  0  0  0  0  0  0  0  0  0
    7.9806    8.6543   20.5437 C   0  0  0  0  0  0  0  0  0  0  0  0
   13.7270    5.7144   19.8610 O   0  0  0  0  0  0  0  0  0  0  0  0
    8.3351    5.5235   15.4478 C   0  0  0  0  0  0  0  0  0  0  0  0
    8.7700    7.8434   21.3915 C   0  0  0  0  0  0  0  0  0  0  0  0
   11.7856    6.8851   19.2401 C   0  0  0  0  0  0  0  0  0  0  0  0
   10.5281    7.4276   19.5649 C   0  0  0  0  0  0  0  0  0  0  0  0
   10.0256    7.2907   20.8484 C   0  0  0  0  0  0  0  0  0  0  0  0
    9.3113    5.3049   14.4911 C   0  0  0  0  0  0  0  0  0  0  0  0
    9.4607    7.5646   16.0139 C   0  0  0  0  0  0  0  0  0  0  0  0
   10.4192    7.3157   15.0955 C   0  0  0  0  0  0  0  0  0  0  0  0
   10.2489    6.4227   23.0218 N   0  0  0  0  0  0  0  0  0  0  0  0
    7.2472    8.0746   23.5050 C   0  0  0  0  0  0  0  0  0  0  0  0
    9.2051    6.9101   23.4604 C   0  0  0  0  0  0  0  0  0  0  0  0
   11.9646    6.0299   21.4251 C   0  0  0  0  0  0  0  0  0  0  0  0
  1  5  1  0
  1 13  1  0
  2 20  2  0
  2 28  1  0
  2 29  1  0
  3 19  4  0
  3 25  4  0
  4 23  4  0
  4 27  1  0
  4 30  4  0
  5 17  1  0
  6  8  1  0
  6 29  1  0
  7 24  4  0
  7 26  4  0
  8 28  1  0
  9 13  2  0
 10 18  1  0
 10 21  4  0
 10 30  4  0
 11 17  2  0
 12 18  1  0
 13 15  1  0
 14 24  1  0
 15 25  1  0
 16 28  2  0
 17 20  1  0
 19 24  4  0
 20 23  1  0
 21 22  4  0
 22 23  4  0
 25 26  4  0
 27 29  2  0
M  END
$$$$

 Created by Python create_sdf_string function

 30 33  0  0  0  0  0  0  0  0999 V2000
    8.3036    9.8571   18.4133 C   0  0  0  0  0  0  0  0  0  0  0  0
    8.3694    7.6612   22.6703 C   0  0  0  0  0  0  0  0  0  0  0  0
    8.4143    6.6863   16.2273 C   0  0  0  0  0  0  0  0  0  0  0  0
   10.7581    6.5674   21.7636 C   0  0  0  0  0  0  0  0  0  0  0  0
    8.4452    8.7960   19.2958 O   0  0  0  0  0  0  0  0  0  0  0  0
    8.7122    6.7842   24.8569 C   0  0  0  0  0  0  0  0  0  0  0  0
   10.3400    6.1726   14.3081 C   0  0  0  0  0  0  0  0  0  0  0  0
    7.4297    7.5873   24.8962 C   0  0  0  0  0  0  0  0  0  0  0  0
    8.1566   10.0536   16.0516 O   0  0  0  0  0  0  0  0  0  0  0  0
   12.4989    6.2074   20.1776 C   0  0  0  0  0  0  0  0  0  0  0  0
    6.9192    9.1053   20.9073 O   0  0  0  0  0  0  0  0  0  0  0  0
   14.3979    6.0729   18.7784 C   0  0  0  0  0  0  0  0  0  0  0  0
    8.6811    9.5354   16.9998 C   0  0  0  0  0  0  0  0  0  0  0  0
    9.2512    4.2713   13.7653 O   0  0  0  0  0  0  0  0  0  0  0  0
    9.6495    8.6317   16.8332 N   0  0  0  0  0  0  0  0  0  0  0  0
    6.2934    8.6988   23.1988 O   0  0  0  0  0  0  0  0  0  0  0  0
    7.9806    8.6543   20.5437 C   0  0  0  0  0  0  0  0  0  0  0  0
   13.7270    5.7144   19.8610 O   0  0  0  0  0  0  0  0  0  0  0  0
    8.3351    5.5235   15.4478 C   0  0  0  0  0  0  0  0  0  0  0  0
    8.7700    7.8434   21.3915 C   0  0  0  0  0  0  0  0  0  0  0  0
   11.7856    6.8851   19.2401 C   0  0  0  0  0  0  0  0  0  0  0  0
   10.5281    7.4276   19.5649 C   0  0  0  0  0  0  0  0  0  0  0  0
   10.0256    7.2907   20.8484 C   0  0  0  0  0  0  0  0  0  0  0  0
    9.3113    5.3049   14.4911 C   0  0  0  0  0  0  0  0  0  0  0  0
    9.4607    7.5646   16.0139 C   0  0  0  0  0  0  0  0  0  0  0  0
   10.4192    7.3157   15.0955 C   0  0  0  0  0  0  0  0  0  0  0  0
   10.2489    6.4227   23.0218 N   0  0  0  0  0  0  0  0  0  0  0  0
    7.2472    8.0746   23.5050 C   0  0  0  0  0  0  0  0  0  0  0  0
    9.2051    6.9101   23.4604 C   0  0  0  0  0  0  0  0  0  0  0  0
   11.9646    6.0299   21.4251 C   0  0  0  0  0  0  0  0  0  0  0  0
  1  5  1  0
  1 13  1  0
  2 20  2  0
  2 28  1  0
  2 29  1  0
  3 19  4  0
  3 25  4  0
  4 23  4  0
  4 27  1  0
  4 30  4  0
  5 17  1  0
  6  8  1  0
  6 29  1  0
  7 24  4  0
  7 26  4  0
  8 28  1  0
  9 13  2  0
 10 18  1  0
 10 21  4  0
 10 30  4  0
 11 17  2  0
 12 18  1  0
 13 15  1  0
 14 24  1  0
 15 25  1  0
 16 28  2  0
 17 20  1  0
 19 24  4  0
 20 23  1  0
 21 22  4  0
 22 23  4  0
 25 26  4  0
 27 29  2  0
M  END
$$$$

 Created by Python create_sdf_string function

 30 33  0  0  0  0  0  0  0  0999 V2000
    8.3036    9.8571   18.4133 C   0  0  0  0  0  0  0  0  0  0  0  0
    8.3694    7.6612   22.6703 C   0  0  0  0  0  0  0  0  0  0  0  0
    8.4143    6.6863   16.2273 C   0  0  0  0  0  0  0  0  0  0  0  0
   10.7581    6.5674   21.7636 C   0  0  0  0  0  0  0  0  0  0  0  0
    8.4452    8.7960   19.2958 O   0  0  0  0  0  0  0  0  0  0  0  0
    8.7122    6.7842   24.8569 C   0  0  0  0  0  0  0  0  0  0  0  0
   10.3400    6.1726   14.3081 C   0  0  0  0  0  0  0  0  0  0  0  0
    7.4297    7.5873   24.8962 C   0  0  0  0  0  0  0  0  0  0  0  0
    8.1566   10.0536   16.0516 O   0  0  0  0  0  0  0  0  0  0  0  0
   12.4989    6.2074   20.1776 C   0  0  0  0  0  0  0  0  0  0  0  0
    6.9192    9.1053   20.9073 O   0  0  0  0  0  0  0  0  0  0  0  0
   14.3979    6.0729   18.7784 C   0  0  0  0  0  0  0  0  0  0  0  0
    8.6811    9.5354   16.9998 C   0  0  0  0  0  0  0  0  0  0  0  0
    9.2512    4.2713   13.7653 O   0  0  0  0  0  0  0  0  0  0  0  0
    9.6495    8.6317   16.8332 N   0  0  0  0  0  0  0  0  0  0  0  0
    6.2934    8.6988   23.1988 O   0  0  0  0  0  0  0  0  0  0  0  0
    7.9806    8.6543   20.5437 C   0  0  0  0  0  0  0  0  0  0  0  0
   13.7270    5.7144   19.8610 O   0  0  0  0  0  0  0  0  0  0  0  0
    8.3351    5.5235   15.4478 C   0  0  0  0  0  0  0  0  0  0  0  0
    8.7700    7.8434   21.3915 C   0  0  0  0  0  0  0  0  0  0  0  0
   11.7856    6.8851   19.2401 C   0  0  0  0  0  0  0  0  0  0  0  0
   10.5281    7.4276   19.5649 C   0  0  0  0  0  0  0  0  0  0  0  0
   10.0256    7.2907   20.8484 C   0  0  0  0  0  0  0  0  0  0  0  0
    9.3113    5.3049   14.4911 C   0  0  0  0  0  0  0  0  0  0  0  0
    9.4607    7.5646   16.0139 C   0  0  0  0  0  0  0  0  0  0  0  0
   10.4192    7.3157   15.0955 C   0  0  0  0  0  0  0  0  0  0  0  0
   10.2489    6.4227   23.0218 N   0  0  0  0  0  0  0  0  0  0  0  0
    7.2472    8.0746   23.5050 C   0  0  0  0  0  0  0  0  0  0  0  0
    9.2051    6.9101   23.4604 C   0  0  0  0  0  0  0  0  0  0  0  0
   11.9646    6.0299   21.4251 C   0  0  0  0  0  0  0  0  0  0  0  0
  1  5  1  0
  1 13  1  0
  2 20  2  0
  2 28  1  0
  2 29  1  0
  3 19  4  0
  3 25  4  0
  4 23  4  0
  4 27  1  0
  4 30  4  0
  5 17  1  0
  6  8  1  0
  6 29  1  0
  7 24  4  0
  7 26  4  0
  8 28  1  0
  9 13  2  0
 10 18  1  0
 10 21  4  0
 10 30  4  0
 11 17  2  0
 12 18  1  0
 13 15  1  0
 14 24  1  0
 15 25  1  0
 16 28  2  0
 17 20  1  0
 19 24  4  0
 20 23  1  0
 21 22  4  0
 22 23  4  0
 25 26  4  0
 27 29  2  0
M  END
$$$$

 Created by Python create_sdf_string function

 30 33  0  0  0  0  0  0  0  0999 V2000
    8.3036    9.8571   18.4133 C   0  0  0  0  0  0  0  0  0  0  0  0
    8.3694    7.6612   22.6703 C   0  0  0  0  0  0  0  0  0  0  0  0
    8.4143    6.6863   16.2273 C   0  0  0  0  0  0  0  0  0  0  0  0
   10.7581    6.5674   21.7636 C   0  0  0  0  0  0  0  0  0  0  0  0
    8.4452    8.7960   19.2958 O   0  0  0  0  0  0  0  0  0  0  0  0
    8.7122    6.7842   24.8569 C   0  0  0  0  0  0  0  0  0  0  0  0
   10.3400    6.1726   14.3081 C   0  0  0  0  0  0  0  0  0  0  0  0
    7.4297    7.5873   24.8962 C   0  0  0  0  0  0  0  0  0  0  0  0
    8.1566   10.0536   16.0516 O   0  0  0  0  0  0  0  0  0  0  0  0
   12.4989    6.2074   20.1776 C   0  0  0  0  0  0  0  0  0  0  0  0
    6.9192    9.1053   20.9073 O   0  0  0  0  0  0  0  0  0  0  0  0
   14.3979    6.0729   18.7784 C   0  0  0  0  0  0  0  0  0  0  0  0
    8.6811    9.5354   16.9998 C   0  0  0  0  0  0  0  0  0  0  0  0
    9.2512    4.2713   13.7653 O   0  0  0  0  0  0  0  0  0  0  0  0
    9.6495    8.6317   16.8332 N   0  0  0  0  0  0  0  0  0  0  0  0
    6.2934    8.6988   23.1988 O   0  0  0  0  0  0  0  0  0  0  0  0
    7.9806    8.6543   20.5437 C   0  0  0  0  0  0  0  0  0  0  0  0
   13.7270    5.7144   19.8610 O   0  0  0  0  0  0  0  0  0  0  0  0
    8.3351    5.5235   15.4478 C   0  0  0  0  0  0  0  0  0  0  0  0
    8.7700    7.8434   21.3915 C   0  0  0  0  0  0  0  0  0  0  0  0
   11.7856    6.8851   19.2401 C   0  0  0  0  0  0  0  0  0  0  0  0
   10.5281    7.4276   19.5649 C   0  0  0  0  0  0  0  0  0  0  0  0
   10.0256    7.2907   20.8484 C   0  0  0  0  0  0  0  0  0  0  0  0
    9.3113    5.3049   14.4911 C   0  0  0  0  0  0  0  0  0  0  0  0
    9.4607    7.5646   16.0139 C   0  0  0  0  0  0  0  0  0  0  0  0
   10.4192    7.3157   15.0955 C   0  0  0  0  0  0  0  0  0  0  0  0
   10.2489    6.4227   23.0218 N   0  0  0  0  0  0  0  0  0  0  0  0
    7.2472    8.0746   23.5050 C   0  0  0  0  0  0  0  0  0  0  0  0
    9.2051    6.9101   23.4604 C   0  0  0  0  0  0  0  0  0  0  0  0
   11.9646    6.0299   21.4251 C   0  0  0  0  0  0  0  0  0  0  0  0
  1  5  1  0
  1 13  1  0
  2 20  2  0
  2 28  1  0
  2 29  1  0
  3 19  4  0
  3 25  4  0
  4 23  4  0
  4 27  1  0
  4 30  4  0
  5 17  1  0
  6  8  1  0
  6 29  1  0
  7 24  4  0
  7 26  4  0
  8 28  1  0
  9 13  2  0
 10 18  1  0
 10 21  4  0
 10 30  4  0
 11 17  2  0
 12 18  1  0
 13 15  1  0
 14 24  1  0
 15 25  1  0
 16 28  2  0
 17 20  1  0
 19 24  4  0
 20 23  1  0
 21 22  4  0
 22 23  4  0
 25 26  4  0
 27 29  2  0
M  END
$$$$

 Created by Python create_sdf_string function

 30 33  0  0  0  0  0  0  0  0999 V2000
    8.3036    9.8571   18.4133 C   0  0  0  0  0  0  0  0  0  0  0  0
    8.3694    7.6612   22.6703 C   0  0  0  0  0  0  0  0  0  0  0  0
    8.4143    6.6863   16.2273 C   0  0  0  0  0  0  0  0  0  0  0  0
   10.7581    6.5674   21.7636 C   0  0  0  0  0  0  0  0  0  0  0  0
    8.4452    8.7960   19.2958 O   0  0  0  0  0  0  0  0  0  0  0  0
    8.7122    6.7842   24.8569 C   0  0  0  0  0  0  0  0  0  0  0  0
   10.3400    6.1726   14.3081 C   0  0  0  0  0  0  0  0  0  0  0  0
    7.4297    7.5873   24.8962 C   0  0  0  0  0  0  0  0  0  0  0  0
    8.1566   10.0536   16.0516 O   0  0  0  0  0  0  0  0  0  0  0  0
   12.4989    6.2074   20.1776 C   0  0  0  0  0  0  0  0  0  0  0  0
    6.9192    9.1053   20.9073 O   0  0  0  0  0  0  0  0  0  0  0  0
   14.3979    6.0729   18.7784 C   0  0  0  0  0  0  0  0  0  0  0  0
    8.6811    9.5354   16.9998 C   0  0  0  0  0  0  0  0  0  0  0  0
    9.2512    4.2713   13.7653 O   0  0  0  0  0  0  0  0  0  0  0  0
    9.6495    8.6317   16.8332 N   0  0  0  0  0  0  0  0  0  0  0  0
    6.2934    8.6988   23.1988 O   0  0  0  0  0  0  0  0  0  0  0  0
    7.9806    8.6543   20.5437 C   0  0  0  0  0  0  0  0  0  0  0  0
   13.7270    5.7144   19.8610 O   0  0  0  0  0  0  0  0  0  0  0  0
    8.3351    5.5235   15.4478 C   0  0  0  0  0  0  0  0  0  0  0  0
    8.7700    7.8434   21.3915 C   0  0  0  0  0  0  0  0  0  0  0  0
   11.7856    6.8851   19.2401 C   0  0  0  0  0  0  0  0  0  0  0  0
   10.5281    7.4276   19.5649 C   0  0  0  0  0  0  0  0  0  0  0  0
   10.0256    7.2907   20.8484 C   0  0  0  0  0  0  0  0  0  0  0  0
    9.3113    5.3049   14.4911 C   0  0  0  0  0  0  0  0  0  0  0  0
    9.4607    7.5646   16.0139 C   0  0  0  0  0  0  0  0  0  0  0  0
   10.4192    7.3157   15.0955 C   0  0  0  0  0  0  0  0  0  0  0  0
   10.2489    6.4227   23.0218 N   0  0  0  0  0  0  0  0  0  0  0  0
    7.2472    8.0746   23.5050 C   0  0  0  0  0  0  0  0  0  0  0  0
    9.2051    6.9101   23.4604 C   0  0  0  0  0  0  0  0  0  0  0  0
   11.9646    6.0299   21.4251 C   0  0  0  0  0  0  0  0  0  0  0  0
  1  5  1  0
  1 13  1  0
  2 20  2  0
  2 28  1  0
  2 29  1  0
  3 19  4  0
  3 25  4  0
  4 23  4  0
  4 27  1  0
  4 30  4  0
  5 17  1  0
  6  8  1  0
  6 29  1  0
  7 24  4  0
  7 26  4  0
  8 28  1  0
  9 13  2  0
 10 18  1  0
 10 21  4  0
 10 30  4  0
 11 17  2  0
 12 18  1  0
 13 15  1  0
 14 24  1  0
 15 25  1  0
 16 28  2  0
 17 20  1  0
 19 24  4  0
 20 23  1  0
 21 22  4  0
 22 23  4  0
 25 26  4  0
 27 29  2  0
M  END
$$$$

 Created by Python create_sdf_string function

 30 33  0  0  0  0  0  0  0  0999 V2000
    8.3036    9.8571   18.4133 C   0  0  0  0  0  0  0  0  0  0  0  0
    8.3694    7.6612   22.6703 C   0  0  0  0  0  0  0  0  0  0  0  0
    8.4143    6.6863   16.2273 C   0  0  0  0  0  0  0  0  0  0  0  0
   10.7581    6.5674   21.7636 C   0  0  0  0  0  0  0  0  0  0  0  0
    8.4452    8.7960   19.2958 O   0  0  0  0  0  0  0  0  0  0  0  0
    8.7122    6.7842   24.8569 C   0  0  0  0  0  0  0  0  0  0  0  0
   10.3400    6.1726   14.3081 C   0  0  0  0  0  0  0  0  0  0  0  0
    7.4297    7.5873   24.8962 C   0  0  0  0  0  0  0  0  0  0  0  0
    8.1566   10.0536   16.0516 O   0  0  0  0  0  0  0  0  0  0  0  0
   12.4989    6.2074   20.1776 C   0  0  0  0  0  0  0  0  0  0  0  0
    6.9192    9.1053   20.9073 O   0  0  0  0  0  0  0  0  0  0  0  0
   14.3979    6.0729   18.7784 C   0  0  0  0  0  0  0  0  0  0  0  0
    8.6811    9.5354   16.9998 C   0  0  0  0  0  0  0  0  0  0  0  0
    9.2512    4.2713   13.7653 O   0  0  0  0  0  0  0  0  0  0  0  0
    9.6495    8.6317   16.8332 N   0  0  0  0  0  0  0  0  0  0  0  0
    6.2934    8.6988   23.1988 O   0  0  0  0  0  0  0  0  0  0  0  0
    7.9806    8.6543   20.5437 C   0  0  0  0  0  0  0  0  0  0  0  0
   13.7270    5.7144   19.8610 O   0  0  0  0  0  0  0  0  0  0  0  0
    8.3351    5.5235   15.4478 C   0  0  0  0  0  0  0  0  0  0  0  0
    8.7700    7.8434   21.3915 C   0  0  0  0  0  0  0  0  0  0  0  0
   11.7856    6.8851   19.2401 C   0  0  0  0  0  0  0  0  0  0  0  0
   10.5281    7.4276   19.5649 C   0  0  0  0  0  0  0  0  0  0  0  0
   10.0256    7.2907   20.8484 C   0  0  0  0  0  0  0  0  0  0  0  0
    9.3113    5.3049   14.4911 C   0  0  0  0  0  0  0  0  0  0  0  0
    9.4607    7.5646   16.0139 C   0  0  0  0  0  0  0  0  0  0  0  0
   10.4192    7.3157   15.0955 C   0  0  0  0  0  0  0  0  0  0  0  0
   10.2489    6.4227   23.0218 N   0  0  0  0  0  0  0  0  0  0  0  0
    7.2472    8.0746   23.5050 C   0  0  0  0  0  0  0  0  0  0  0  0
    9.2051    6.9101   23.4604 C   0  0  0  0  0  0  0  0  0  0  0  0
   11.9646    6.0299   21.4251 C   0  0  0  0  0  0  0  0  0  0  0  0
  1  5  1  0
  1 13  1  0
  2 20  2  0
  2 28  1  0
  2 29  1  0
  3 19  4  0
  3 25  4  0
  4 23  4  0
  4 27  1  0
  4 30  4  0
  5 17  1  0
  6  8  1  0
  6 29  1  0
  7 24  4  0
  7 26  4  0
  8 28  1  0
  9 13  2  0
 10 18  1  0
 10 21  4  0
 10 30  4  0
 11 17  2  0
 12 18  1  0
 13 15  1  0
 14 24  1  0
 15 25  1  0
 16 28  2  0
 17 20  1  0
 19 24  4  0
 20 23  1  0
 21 22  4  0
 22 23  4  0
 25 26  4  0
 27 29  2  0
M  END
$$$$

 Created by Python create_sdf_string function

 30 33  0  0  0  0  0  0  0  0999 V2000
    8.3036    9.8571   18.4133 C   0  0  0  0  0  0  0  0  0  0  0  0
    8.3694    7.6612   22.6703 C   0  0  0  0  0  0  0  0  0  0  0  0
    8.4143    6.6863   16.2273 C   0  0  0  0  0  0  0  0  0  0  0  0
   10.7581    6.5674   21.7636 C   0  0  0  0  0  0  0  0  0  0  0  0
    8.4452    8.7960   19.2958 O   0  0  0  0  0  0  0  0  0  0  0  0
    8.7122    6.7842   24.8569 C   0  0  0  0  0  0  0  0  0  0  0  0
   10.3400    6.1726   14.3081 C   0  0  0  0  0  0  0  0  0  0  0  0
    7.4297    7.5873   24.8962 C   0  0  0  0  0  0  0  0  0  0  0  0
    8.1566   10.0536   16.0516 O   0  0  0  0  0  0  0  0  0  0  0  0
   12.4989    6.2074   20.1776 C   0  0  0  0  0  0  0  0  0  0  0  0
    6.9192    9.1053   20.9073 O   0  0  0  0  0  0  0  0  0  0  0  0
   14.3979    6.0729   18.7784 C   0  0  0  0  0  0  0  0  0  0  0  0
    8.6811    9.5354   16.9998 C   0  0  0  0  0  0  0  0  0  0  0  0
    9.2512    4.2713   13.7653 O   0  0  0  0  0  0  0  0  0  0  0  0
    9.6495    8.6317   16.8332 N   0  0  0  0  0  0  0  0  0  0  0  0
    6.2934    8.6988   23.1988 O   0  0  0  0  0  0  0  0  0  0  0  0
    7.9806    8.6543   20.5437 C   0  0  0  0  0  0  0  0  0  0  0  0
   13.7270    5.7144   19.8610 O   0  0  0  0  0  0  0  0  0  0  0  0
    8.3351    5.5235   15.4478 C   0  0  0  0  0  0  0  0  0  0  0  0
    8.7700    7.8434   21.3915 C   0  0  0  0  0  0  0  0  0  0  0  0
   11.7856    6.8851   19.2401 C   0  0  0  0  0  0  0  0  0  0  0  0
   10.5281    7.4276   19.5649 C   0  0  0  0  0  0  0  0  0  0  0  0
   10.0256    7.2907   20.8484 C   0  0  0  0  0  0  0  0  0  0  0  0
    9.3113    5.3049   14.4911 C   0  0  0  0  0  0  0  0  0  0  0  0
    9.4607    7.5646   16.0139 C   0  0  0  0  0  0  0  0  0  0  0  0
   10.4192    7.3157   15.0955 C   0  0  0  0  0  0  0  0  0  0  0  0
   10.2489    6.4227   23.0218 N   0  0  0  0  0  0  0  0  0  0  0  0
    7.2472    8.0746   23.5050 C   0  0  0  0  0  0  0  0  0  0  0  0
    9.2051    6.9101   23.4604 C   0  0  0  0  0  0  0  0  0  0  0  0
   11.9646    6.0299   21.4251 C   0  0  0  0  0  0  0  0  0  0  0  0
  1  5  1  0
  1 13  1  0
  2 20  2  0
  2 28  1  0
  2 29  1  0
  3 19  4  0
  3 25  4  0
  4 23  4  0
  4 27  1  0
  4 30  4  0
  5 17  1  0
  6  8  1  0
  6 29  1  0
  7 24  4  0
  7 26  4  0
  8 28  1  0
  9 13  2  0
 10 18  1  0
 10 21  4  0
 10 30  4  0
 11 17  2  0
 12 18  1  0
 13 15  1  0
 14 24  1  0
 15 25  1  0
 16 28  2  0
 17 20  1  0
 19 24  4  0
 20 23  1  0
 21 22  4  0
 22 23  4  0
 25 26  4  0
 27 29  2  0
M  END
$$$$

 Created by Python create_sdf_string function

 30 33  0  0  0  0  0  0  0  0999 V2000
    8.3036    9.8571   18.4133 C   0  0  0  0  0  0  0  0  0  0  0  0
    8.3694    7.6612   22.6703 C   0  0  0  0  0  0  0  0  0  0  0  0
    8.4143    6.6863   16.2273 C   0  0  0  0  0  0  0  0  0  0  0  0
   10.7581    6.5674   21.7636 C   0  0  0  0  0  0  0  0  0  0  0  0
    8.4452    8.7960   19.2958 O   0  0  0  0  0  0  0  0  0  0  0  0
    8.7122    6.7842   24.8569 C   0  0  0  0  0  0  0  0  0  0  0  0
   10.3400    6.1726   14.3081 C   0  0  0  0  0  0  0  0  0  0  0  0
    7.4297    7.5873   24.8962 C   0  0  0  0  0  0  0  0  0  0  0  0
    8.1566   10.0536   16.0516 O   0  0  0  0  0  0  0  0  0  0  0  0
   12.4989    6.2074   20.1776 C   0  0  0  0  0  0  0  0  0  0  0  0
    6.9192    9.1053   20.9073 O   0  0  0  0  0  0  0  0  0  0  0  0
   14.3979    6.0729   18.7784 C   0  0  0  0  0  0  0  0  0  0  0  0
    8.6811    9.5354   16.9998 C   0  0  0  0  0  0  0  0  0  0  0  0
    9.2512    4.2713   13.7653 O   0  0  0  0  0  0  0  0  0  0  0  0
    9.6495    8.6317   16.8332 N   0  0  0  0  0  0  0  0  0  0  0  0
    6.2934    8.6988   23.1988 O   0  0  0  0  0  0  0  0  0  0  0  0
    7.9806    8.6543   20.5437 C   0  0  0  0  0  0  0  0  0  0  0  0
   13.7270    5.7144   19.8610 O   0  0  0  0  0  0  0  0  0  0  0  0
    8.3351    5.5235   15.4478 C   0  0  0  0  0  0  0  0  0  0  0  0
    8.7700    7.8434   21.3915 C   0  0  0  0  0  0  0  0  0  0  0  0
   11.7856    6.8851   19.2401 C   0  0  0  0  0  0  0  0  0  0  0  0
   10.5281    7.4276   19.5649 C   0  0  0  0  0  0  0  0  0  0  0  0
   10.0256    7.2907   20.8484 C   0  0  0  0  0  0  0  0  0  0  0  0
    9.3113    5.3049   14.4911 C   0  0  0  0  0  0  0  0  0  0  0  0
    9.4607    7.5646   16.0139 C   0  0  0  0  0  0  0  0  0  0  0  0
   10.4192    7.3157   15.0955 C   0  0  0  0  0  0  0  0  0  0  0  0
   10.2489    6.4227   23.0218 N   0  0  0  0  0  0  0  0  0  0  0  0
    7.2472    8.0746   23.5050 C   0  0  0  0  0  0  0  0  0  0  0  0
    9.2051    6.9101   23.4604 C   0  0  0  0  0  0  0  0  0  0  0  0
   11.9646    6.0299   21.4251 C   0  0  0  0  0  0  0  0  0  0  0  0
  1  5  1  0
  1 13  1  0
  2 20  2  0
  2 28  1  0
  2 29  1  0
  3 19  4  0
  3 25  4  0
  4 23  4  0
  4 27  1  0
  4 30  4  0
  5 17  1  0
  6  8  1  0
  6 29  1  0
  7 24  4  0
  7 26  4  0
  8 28  1  0
  9 13  2  0
 10 18  1  0
 10 21  4  0
 10 30  4  0
 11 17  2  0
 12 18  1  0
 13 15  1  0
 14 24  1  0
 15 25  1  0
 16 28  2  0
 17 20  1  0
 19 24  4  0
 20 23  1  0
 21 22  4  0
 22 23  4  0
 25 26  4  0
 27 29  2  0
M  END
$$$$

 Created by Python create_sdf_string function

 30 33  0  0  0  0  0  0  0  0999 V2000
    8.3036    9.8571   18.4133 C   0  0  0  0  0  0  0  0  0  0  0  0
    8.3694    7.6612   22.6703 C   0  0  0  0  0  0  0  0  0  0  0  0
    8.4143    6.6863   16.2273 C   0  0  0  0  0  0  0  0  0  0  0  0
   10.7581    6.5674   21.7636 C   0  0  0  0  0  0  0  0  0  0  0  0
    8.4452    8.7960   19.2958 O   0  0  0  0  0  0  0  0  0  0  0  0
    8.7122    6.7842   24.8569 C   0  0  0  0  0  0  0  0  0  0  0  0
   10.3400    6.1726   14.3081 C   0  0  0  0  0  0  0  0  0  0  0  0
    7.4297    7.5873   24.8962 C   0  0  0  0  0  0  0  0  0  0  0  0
    8.1566   10.0536   16.0516 O   0  0  0  0  0  0  0  0  0  0  0  0
   12.4989    6.2074   20.1776 C   0  0  0  0  0  0  0  0  0  0  0  0
    6.9192    9.1053   20.9073 O   0  0  0  0  0  0  0  0  0  0  0  0
   14.3979    6.0729   18.7784 C   0  0  0  0  0  0  0  0  0  0  0  0
    8.6811    9.5354   16.9998 C   0  0  0  0  0  0  0  0  0  0  0  0
    9.2512    4.2713   13.7653 O   0  0  0  0  0  0  0  0  0  0  0  0
    9.6495    8.6317   16.8332 N   0  0  0  0  0  0  0  0  0  0  0  0
    6.2934    8.6988   23.1988 O   0  0  0  0  0  0  0  0  0  0  0  0
    7.9806    8.6543   20.5437 C   0  0  0  0  0  0  0  0  0  0  0  0
   13.7270    5.7144   19.8610 O   0  0  0  0  0  0  0  0  0  0  0  0
    8.3351    5.5235   15.4478 C   0  0  0  0  0  0  0  0  0  0  0  0
    8.7700    7.8434   21.3915 C   0  0  0  0  0  0  0  0  0  0  0  0
   11.7856    6.8851   19.2401 C   0  0  0  0  0  0  0  0  0  0  0  0
   10.5281    7.4276   19.5649 C   0  0  0  0  0  0  0  0  0  0  0  0
   10.0256    7.2907   20.8484 C   0  0  0  0  0  0  0  0  0  0  0  0
    9.3113    5.3049   14.4911 C   0  0  0  0  0  0  0  0  0  0  0  0
    9.4607    7.5646   16.0139 C   0  0  0  0  0  0  0  0  0  0  0  0
   10.4192    7.3157   15.0955 C   0  0  0  0  0  0  0  0  0  0  0  0
   10.2489    6.4227   23.0218 N   0  0  0  0  0  0  0  0  0  0  0  0
    7.2472    8.0746   23.5050 C   0  0  0  0  0  0  0  0  0  0  0  0
    9.2051    6.9101   23.4604 C   0  0  0  0  0  0  0  0  0  0  0  0
   11.9646    6.0299   21.4251 C   0  0  0  0  0  0  0  0  0  0  0  0
  1  5  1  0
  1 13  1  0
  2 20  2  0
  2 28  1  0
  2 29  1  0
  3 19  4  0
  3 25  4  0
  4 23  4  0
  4 27  1  0
  4 30  4  0
  5 17  1  0
  6  8  1  0
  6 29  1  0
  7 24  4  0
  7 26  4  0
  8 28  1  0
  9 13  2  0
 10 18  1  0
 10 21  4  0
 10 30  4  0
 11 17  2  0
 12 18  1  0
 13 15  1  0
 14 24  1  0
 15 25  1  0
 16 28  2  0
 17 20  1  0
 19 24  4  0
 20 23  1  0
 21 22  4  0
 22 23  4  0
 25 26  4  0
 27 29  2  0
M  END
$$$$

 Created by Python create_sdf_string function

 30 33  0  0  0  0  0  0  0  0999 V2000
    8.3036    9.8571   18.4133 C   0  0  0  0  0  0  0  0  0  0  0  0
    8.3694    7.6612   22.6703 C   0  0  0  0  0  0  0  0  0  0  0  0
    8.4143    6.6863   16.2273 C   0  0  0  0  0  0  0  0  0  0  0  0
   10.7581    6.5674   21.7636 C   0  0  0  0  0  0  0  0  0  0  0  0
    8.4452    8.7960   19.2958 O   0  0  0  0  0  0  0  0  0  0  0  0
    8.7122    6.7842   24.8569 C   0  0  0  0  0  0  0  0  0  0  0  0
   10.3400    6.1726   14.3081 C   0  0  0  0  0  0  0  0  0  0  0  0
    7.4297    7.5873   24.8962 C   0  0  0  0  0  0  0  0  0  0  0  0
    8.1566   10.0536   16.0516 O   0  0  0  0  0  0  0  0  0  0  0  0
   12.4989    6.2074   20.1776 C   0  0  0  0  0  0  0  0  0  0  0  0
    6.9192    9.1053   20.9073 O   0  0  0  0  0  0  0  0  0  0  0  0
   14.3979    6.0729   18.7784 C   0  0  0  0  0  0  0  0  0  0  0  0
    8.6811    9.5354   16.9998 C   0  0  0  0  0  0  0  0  0  0  0  0
    9.2512    4.2713   13.7653 O   0  0  0  0  0  0  0  0  0  0  0  0
    9.6495    8.6317   16.8332 N   0  0  0  0  0  0  0  0  0  0  0  0
    6.2934    8.6988   23.1988 O   0  0  0  0  0  0  0  0  0  0  0  0
    7.9806    8.6543   20.5437 C   0  0  0  0  0  0  0  0  0  0  0  0
   13.7270    5.7144   19.8610 O   0  0  0  0  0  0  0  0  0  0  0  0
    8.3351    5.5235   15.4478 C   0  0  0  0  0  0  0  0  0  0  0  0
    8.7700    7.8434   21.3915 C   0  0  0  0  0  0  0  0  0  0  0  0
   11.7856    6.8851   19.2401 C   0  0  0  0  0  0  0  0  0  0  0  0
   10.5281    7.4276   19.5649 C   0  0  0  0  0  0  0  0  0  0  0  0
   10.0256    7.2907   20.8484 C   0  0  0  0  0  0  0  0  0  0  0  0
    9.3113    5.3049   14.4911 C   0  0  0  0  0  0  0  0  0  0  0  0
    9.4607    7.5646   16.0139 C   0  0  0  0  0  0  0  0  0  0  0  0
   10.4192    7.3157   15.0955 C   0  0  0  0  0  0  0  0  0  0  0  0
   10.2489    6.4227   23.0218 N   0  0  0  0  0  0  0  0  0  0  0  0
    7.2472    8.0746   23.5050 C   0  0  0  0  0  0  0  0  0  0  0  0
    9.2051    6.9101   23.4604 C   0  0  0  0  0  0  0  0  0  0  0  0
   11.9646    6.0299   21.4251 C   0  0  0  0  0  0  0  0  0  0  0  0
  1  5  1  0
  1 13  1  0
  2 20  2  0
  2 28  1  0
  2 29  1  0
  3 19  4  0
  3 25  4  0
  4 23  4  0
  4 27  1  0
  4 30  4  0
  5 17  1  0
  6  8  1  0
  6 29  1  0
  7 24  4  0
  7 26  4  0
  8 28  1  0
  9 13  2  0
 10 18  1  0
 10 21  4  0
 10 30  4  0
 11 17  2  0
 12 18  1  0
 13 15  1  0
 14 24  1  0
 15 25  1  0
 16 28  2  0
 17 20  1  0
 19 24  4  0
 20 23  1  0
 21 22  4  0
 22 23  4  0
 25 26  4  0
 27 29  2  0
M  END
$$$$

 Created by Python create_sdf_string function

 30 33  0  0  0  0  0  0  0  0999 V2000
    8.3036    9.8571   18.4133 C   0  0  0  0  0  0  0  0  0  0  0  0
    8.3694    7.6612   22.6703 C   0  0  0  0  0  0  0  0  0  0  0  0
    8.4143    6.6863   16.2273 C   0  0  0  0  0  0  0  0  0  0  0  0
   10.7581    6.5674   21.7636 C   0  0  0  0  0  0  0  0  0  0  0  0
    8.4452    8.7960   19.2958 O   0  0  0  0  0  0  0  0  0  0  0  0
    8.7122    6.7842   24.8569 C   0  0  0  0  0  0  0  0  0  0  0  0
   10.3400    6.1726   14.3081 C   0  0  0  0  0  0  0  0  0  0  0  0
    7.4297    7.5873   24.8962 C   0  0  0  0  0  0  0  0  0  0  0  0
    8.1566   10.0536   16.0516 O   0  0  0  0  0  0  0  0  0  0  0  0
   12.4989    6.2074   20.1776 C   0  0  0  0  0  0  0  0  0  0  0  0
    6.9192    9.1053   20.9073 O   0  0  0  0  0  0  0  0  0  0  0  0
   14.3979    6.0729   18.7784 C   0  0  0  0  0  0  0  0  0  0  0  0
    8.6811    9.5354   16.9998 C   0  0  0  0  0  0  0  0  0  0  0  0
    9.2512    4.2713   13.7653 O   0  0  0  0  0  0  0  0  0  0  0  0
    9.6495    8.6317   16.8332 N   0  0  0  0  0  0  0  0  0  0  0  0
    6.2934    8.6988   23.1988 O   0  0  0  0  0  0  0  0  0  0  0  0
    7.9806    8.6543   20.5437 C   0  0  0  0  0  0  0  0  0  0  0  0
   13.7270    5.7144   19.8610 O   0  0  0  0  0  0  0  0  0  0  0  0
    8.3351    5.5235   15.4478 C   0  0  0  0  0  0  0  0  0  0  0  0
    8.7700    7.8434   21.3915 C   0  0  0  0  0  0  0  0  0  0  0  0
   11.7856    6.8851   19.2401 C   0  0  0  0  0  0  0  0  0  0  0  0
   10.5281    7.4276   19.5649 C   0  0  0  0  0  0  0  0  0  0  0  0
   10.0256    7.2907   20.8484 C   0  0  0  0  0  0  0  0  0  0  0  0
    9.3113    5.3049   14.4911 C   0  0  0  0  0  0  0  0  0  0  0  0
    9.4607    7.5646   16.0139 C   0  0  0  0  0  0  0  0  0  0  0  0
   10.4192    7.3157   15.0955 C   0  0  0  0  0  0  0  0  0  0  0  0
   10.2489    6.4227   23.0218 N   0  0  0  0  0  0  0  0  0  0  0  0
    7.2472    8.0746   23.5050 C   0  0  0  0  0  0  0  0  0  0  0  0
    9.2051    6.9101   23.4604 C   0  0  0  0  0  0  0  0  0  0  0  0
   11.9646    6.0299   21.4251 C   0  0  0  0  0  0  0  0  0  0  0  0
  1  5  1  0
  1 13  1  0
  2 20  2  0
  2 28  1  0
  2 29  1  0
  3 19  4  0
  3 25  4  0
  4 23  4  0
  4 27  1  0
  4 30  4  0
  5 17  1  0
  6  8  1  0
  6 29  1  0
  7 24  4  0
  7 26  4  0
  8 28  1  0
  9 13  2  0
 10 18  1  0
 10 21  4  0
 10 30  4  0
 11 17  2  0
 12 18  1  0
 13 15  1  0
 14 24  1  0
 15 25  1  0
 16 28  2  0
 17 20  1  0
 19 24  4  0
 20 23  1  0
 21 22  4  0
 22 23  4  0
 25 26  4  0
 27 29  2  0
M  END
$$$$

 Created by Python create_sdf_string function

 30 33  0  0  0  0  0  0  0  0999 V2000
    8.3036    9.8571   18.4133 C   0  0  0  0  0  0  0  0  0  0  0  0
    8.3694    7.6612   22.6703 C   0  0  0  0  0  0  0  0  0  0  0  0
    8.4143    6.6863   16.2273 C   0  0  0  0  0  0  0  0  0  0  0  0
   10.7581    6.5674   21.7636 C   0  0  0  0  0  0  0  0  0  0  0  0
    8.4452    8.7960   19.2958 O   0  0  0  0  0  0  0  0  0  0  0  0
    8.7122    6.7842   24.8569 C   0  0  0  0  0  0  0  0  0  0  0  0
   10.3400    6.1726   14.3081 C   0  0  0  0  0  0  0  0  0  0  0  0
    7.4297    7.5873   24.8962 C   0  0  0  0  0  0  0  0  0  0  0  0
    8.1566   10.0536   16.0516 O   0  0  0  0  0  0  0  0  0  0  0  0
   12.4989    6.2074   20.1776 C   0  0  0  0  0  0  0  0  0  0  0  0
    6.9192    9.1053   20.9073 O   0  0  0  0  0  0  0  0  0  0  0  0
   14.3979    6.0729   18.7784 C   0  0  0  0  0  0  0  0  0  0  0  0
    8.6811    9.5354   16.9998 C   0  0  0  0  0  0  0  0  0  0  0  0
    9.2512    4.2713   13.7653 O   0  0  0  0  0  0  0  0  0  0  0  0
    9.6495    8.6317   16.8332 N   0  0  0  0  0  0  0  0  0  0  0  0
    6.2934    8.6988   23.1988 O   0  0  0  0  0  0  0  0  0  0  0  0
    7.9806    8.6543   20.5437 C   0  0  0  0  0  0  0  0  0  0  0  0
   13.7270    5.7144   19.8610 O   0  0  0  0  0  0  0  0  0  0  0  0
    8.3351    5.5235   15.4478 C   0  0  0  0  0  0  0  0  0  0  0  0
    8.7700    7.8434   21.3915 C   0  0  0  0  0  0  0  0  0  0  0  0
   11.7856    6.8851   19.2401 C   0  0  0  0  0  0  0  0  0  0  0  0
   10.5281    7.4276   19.5649 C   0  0  0  0  0  0  0  0  0  0  0  0
   10.0256    7.2907   20.8484 C   0  0  0  0  0  0  0  0  0  0  0  0
    9.3113    5.3049   14.4911 C   0  0  0  0  0  0  0  0  0  0  0  0
    9.4607    7.5646   16.0139 C   0  0  0  0  0  0  0  0  0  0  0  0
   10.4192    7.3157   15.0955 C   0  0  0  0  0  0  0  0  0  0  0  0
   10.2489    6.4227   23.0218 N   0  0  0  0  0  0  0  0  0  0  0  0
    7.2472    8.0746   23.5050 C   0  0  0  0  0  0  0  0  0  0  0  0
    9.2051    6.9101   23.4604 C   0  0  0  0  0  0  0  0  0  0  0  0
   11.9646    6.0299   21.4251 C   0  0  0  0  0  0  0  0  0  0  0  0
  1  5  1  0
  1 13  1  0
  2 20  2  0
  2 28  1  0
  2 29  1  0
  3 19  4  0
  3 25  4  0
  4 23  4  0
  4 27  1  0
  4 30  4  0
  5 17  1  0
  6  8  1  0
  6 29  1  0
  7 24  4  0
  7 26  4  0
  8 28  1  0
  9 13  2  0
 10 18  1  0
 10 21  4  0
 10 30  4  0
 11 17  2  0
 12 18  1  0
 13 15  1  0
 14 24  1  0
 15 25  1  0
 16 28  2  0
 17 20  1  0
 19 24  4  0
 20 23  1  0
 21 22  4  0
 22 23  4  0
 25 26  4  0
 27 29  2  0
M  END
$$$$

 Created by Python create_sdf_string function

 30 33  0  0  0  0  0  0  0  0999 V2000
    8.3036    9.8571   18.4133 C   0  0  0  0  0  0  0  0  0  0  0  0
    8.3694    7.6612   22.6703 C   0  0  0  0  0  0  0  0  0  0  0  0
    8.4143    6.6863   16.2273 C   0  0  0  0  0  0  0  0  0  0  0  0
   10.7581    6.5674   21.7636 C   0  0  0  0  0  0  0  0  0  0  0  0
    8.4452    8.7960   19.2958 O   0  0  0  0  0  0  0  0  0  0  0  0
    8.7122    6.7842   24.8569 C   0  0  0  0  0  0  0  0  0  0  0  0
   10.3400    6.1726   14.3081 C   0  0  0  0  0  0  0  0  0  0  0  0
    7.4297    7.5873   24.8962 C   0  0  0  0  0  0  0  0  0  0  0  0
    8.1566   10.0536   16.0516 O   0  0  0  0  0  0  0  0  0  0  0  0
   12.4989    6.2074   20.1776 C   0  0  0  0  0  0  0  0  0  0  0  0
    6.9192    9.1053   20.9073 O   0  0  0  0  0  0  0  0  0  0  0  0
   14.3979    6.0729   18.7784 C   0  0  0  0  0  0  0  0  0  0  0  0
    8.6811    9.5354   16.9998 C   0  0  0  0  0  0  0  0  0  0  0  0
    9.2512    4.2713   13.7653 O   0  0  0  0  0  0  0  0  0  0  0  0
    9.6495    8.6317   16.8332 N   0  0  0  0  0  0  0  0  0  0  0  0
    6.2934    8.6988   23.1988 O   0  0  0  0  0  0  0  0  0  0  0  0
    7.9806    8.6543   20.5437 C   0  0  0  0  0  0  0  0  0  0  0  0
   13.7270    5.7144   19.8610 O   0  0  0  0  0  0  0  0  0  0  0  0
    8.3351    5.5235   15.4478 C   0  0  0  0  0  0  0  0  0  0  0  0
    8.7700    7.8434   21.3915 C   0  0  0  0  0  0  0  0  0  0  0  0
   11.7856    6.8851   19.2401 C   0  0  0  0  0  0  0  0  0  0  0  0
   10.5281    7.4276   19.5649 C   0  0  0  0  0  0  0  0  0  0  0  0
   10.0256    7.2907   20.8484 C   0  0  0  0  0  0  0  0  0  0  0  0
    9.3113    5.3049   14.4911 C   0  0  0  0  0  0  0  0  0  0  0  0
    9.4607    7.5646   16.0139 C   0  0  0  0  0  0  0  0  0  0  0  0
   10.4192    7.3157   15.0955 C   0  0  0  0  0  0  0  0  0  0  0  0
   10.2489    6.4227   23.0218 N   0  0  0  0  0  0  0  0  0  0  0  0
    7.2472    8.0746   23.5050 C   0  0  0  0  0  0  0  0  0  0  0  0
    9.2051    6.9101   23.4604 C   0  0  0  0  0  0  0  0  0  0  0  0
   11.9646    6.0299   21.4251 C   0  0  0  0  0  0  0  0  0  0  0  0
  1  5  1  0
  1 13  1  0
  2 20  2  0
  2 28  1  0
  2 29  1  0
  3 19  4  0
  3 25  4  0
  4 23  4  0
  4 27  1  0
  4 30  4  0
  5 17  1  0
  6  8  1  0
  6 29  1  0
  7 24  4  0
  7 26  4  0
  8 28  1  0
  9 13  2  0
 10 18  1  0
 10 21  4  0
 10 30  4  0
 11 17  2  0
 12 18  1  0
 13 15  1  0
 14 24  1  0
 15 25  1  0
 16 28  2  0
 17 20  1  0
 19 24  4  0
 20 23  1  0
 21 22  4  0
 22 23  4  0
 25 26  4  0
 27 29  2  0
M  END
$$$$

 Created by Python create_sdf_string function

 30 33  0  0  0  0  0  0  0  0999 V2000
    8.3036    9.8571   18.4133 C   0  0  0  0  0  0  0  0  0  0  0  0
    8.3694    7.6612   22.6703 C   0  0  0  0  0  0  0  0  0  0  0  0
    8.4143    6.6863   16.2273 C   0  0  0  0  0  0  0  0  0  0  0  0
   10.7581    6.5674   21.7636 C   0  0  0  0  0  0  0  0  0  0  0  0
    8.4452    8.7960   19.2958 O   0  0  0  0  0  0  0  0  0  0  0  0
    8.7122    6.7842   24.8569 C   0  0  0  0  0  0  0  0  0  0  0  0
   10.3400    6.1726   14.3081 C   0  0  0  0  0  0  0  0  0  0  0  0
    7.4297    7.5873   24.8962 C   0  0  0  0  0  0  0  0  0  0  0  0
    8.1566   10.0536   16.0516 O   0  0  0  0  0  0  0  0  0  0  0  0
   12.4989    6.2074   20.1776 C   0  0  0  0  0  0  0  0  0  0  0  0
    6.9192    9.1053   20.9073 O   0  0  0  0  0  0  0  0  0  0  0  0
   14.3979    6.0729   18.7784 C   0  0  0  0  0  0  0  0  0  0  0  0
    8.6811    9.5354   16.9998 C   0  0  0  0  0  0  0  0  0  0  0  0
    9.2512    4.2713   13.7653 O   0  0  0  0  0  0  0  0  0  0  0  0
    9.6495    8.6317   16.8332 N   0  0  0  0  0  0  0  0  0  0  0  0
    6.2934    8.6988   23.1988 O   0  0  0  0  0  0  0  0  0  0  0  0
    7.9806    8.6543   20.5437 C   0  0  0  0  0  0  0  0  0  0  0  0
   13.7270    5.7144   19.8610 O   0  0  0  0  0  0  0  0  0  0  0  0
    8.3351    5.5235   15.4478 C   0  0  0  0  0  0  0  0  0  0  0  0
    8.7700    7.8434   21.3915 C   0  0  0  0  0  0  0  0  0  0  0  0
   11.7856    6.8851   19.2401 C   0  0  0  0  0  0  0  0  0  0  0  0
   10.5281    7.4276   19.5649 C   0  0  0  0  0  0  0  0  0  0  0  0
   10.0256    7.2907   20.8484 C   0  0  0  0  0  0  0  0  0  0  0  0
    9.3113    5.3049   14.4911 C   0  0  0  0  0  0  0  0  0  0  0  0
    9.4607    7.5646   16.0139 C   0  0  0  0  0  0  0  0  0  0  0  0
   10.4192    7.3157   15.0955 C   0  0  0  0  0  0  0  0  0  0  0  0
   10.2489    6.4227   23.0218 N   0  0  0  0  0  0  0  0  0  0  0  0
    7.2472    8.0746   23.5050 C   0  0  0  0  0  0  0  0  0  0  0  0
    9.2051    6.9101   23.4604 C   0  0  0  0  0  0  0  0  0  0  0  0
   11.9646    6.0299   21.4251 C   0  0  0  0  0  0  0  0  0  0  0  0
  1  5  1  0
  1 13  1  0
  2 20  2  0
  2 28  1  0
  2 29  1  0
  3 19  4  0
  3 25  4  0
  4 23  4  0
  4 27  1  0
  4 30  4  0
  5 17  1  0
  6  8  1  0
  6 29  1  0
  7 24  4  0
  7 26  4  0
  8 28  1  0
  9 13  2  0
 10 18  1  0
 10 21  4  0
 10 30  4  0
 11 17  2  0
 12 18  1  0
 13 15  1  0
 14 24  1  0
 15 25  1  0
 16 28  2  0
 17 20  1  0
 19 24  4  0
 20 23  1  0
 21 22  4  0
 22 23  4  0
 25 26  4  0
 27 29  2  0
M  END
$$$$

 Created by Python create_sdf_string function

 30 33  0  0  0  0  0  0  0  0999 V2000
    8.3036    9.8571   18.4133 C   0  0  0  0  0  0  0  0  0  0  0  0
    8.3694    7.6612   22.6703 C   0  0  0  0  0  0  0  0  0  0  0  0
    8.4143    6.6863   16.2273 C   0  0  0  0  0  0  0  0  0  0  0  0
   10.7581    6.5674   21.7636 C   0  0  0  0  0  0  0  0  0  0  0  0
    8.4452    8.7960   19.2958 O   0  0  0  0  0  0  0  0  0  0  0  0
    8.7122    6.7842   24.8569 C   0  0  0  0  0  0  0  0  0  0  0  0
   10.3400    6.1726   14.3081 C   0  0  0  0  0  0  0  0  0  0  0  0
    7.4297    7.5873   24.8962 C   0  0  0  0  0  0  0  0  0  0  0  0
    8.1566   10.0536   16.0516 O   0  0  0  0  0  0  0  0  0  0  0  0
   12.4989    6.2074   20.1776 C   0  0  0  0  0  0  0  0  0  0  0  0
    6.9192    9.1053   20.9073 O   0  0  0  0  0  0  0  0  0  0  0  0
   14.3979    6.0729   18.7784 C   0  0  0  0  0  0  0  0  0  0  0  0
    8.6811    9.5354   16.9998 C   0  0  0  0  0  0  0  0  0  0  0  0
    9.2512    4.2713   13.7653 O   0  0  0  0  0  0  0  0  0  0  0  0
    9.6495    8.6317   16.8332 N   0  0  0  0  0  0  0  0  0  0  0  0
    6.2934    8.6988   23.1988 O   0  0  0  0  0  0  0  0  0  0  0  0
    7.9806    8.6543   20.5437 C   0  0  0  0  0  0  0  0  0  0  0  0
   13.7270    5.7144   19.8610 O   0  0  0  0  0  0  0  0  0  0  0  0
    8.3351    5.5235   15.4478 C   0  0  0  0  0  0  0  0  0  0  0  0
    8.7700    7.8434   21.3915 C   0  0  0  0  0  0  0  0  0  0  0  0
   11.7856    6.8851   19.2401 C   0  0  0  0  0  0  0  0  0  0  0  0
   10.5281    7.4276   19.5649 C   0  0  0  0  0  0  0  0  0  0  0  0
   10.0256    7.2907   20.8484 C   0  0  0  0  0  0  0  0  0  0  0  0
    9.3113    5.3049   14.4911 C   0  0  0  0  0  0  0  0  0  0  0  0
    9.4607    7.5646   16.0139 C   0  0  0  0  0  0  0  0  0  0  0  0
   10.4192    7.3157   15.0955 C   0  0  0  0  0  0  0  0  0  0  0  0
   10.2489    6.4227   23.0218 N   0  0  0  0  0  0  0  0  0  0  0  0
    7.2472    8.0746   23.5050 C   0  0  0  0  0  0  0  0  0  0  0  0
    9.2051    6.9101   23.4604 C   0  0  0  0  0  0  0  0  0  0  0  0
   11.9646    6.0299   21.4251 C   0  0  0  0  0  0  0  0  0  0  0  0
  1  5  1  0
  1 13  1  0
  2 20  2  0
  2 28  1  0
  2 29  1  0
  3 19  4  0
  3 25  4  0
  4 23  4  0
  4 27  1  0
  4 30  4  0
  5 17  1  0
  6  8  1  0
  6 29  1  0
  7 24  4  0
  7 26  4  0
  8 28  1  0
  9 13  2  0
 10 18  1  0
 10 21  4  0
 10 30  4  0
 11 17  2  0
 12 18  1  0
 13 15  1  0
 14 24  1  0
 15 25  1  0
 16 28  2  0
 17 20  1  0
 19 24  4  0
 20 23  1  0
 21 22  4  0
 22 23  4  0
 25 26  4  0
 27 29  2  0
M  END
$$$$

 Created by Python create_sdf_string function

 30 33  0  0  0  0  0  0  0  0999 V2000
    8.3036    9.8571   18.4133 C   0  0  0  0  0  0  0  0  0  0  0  0
    8.3694    7.6612   22.6703 C   0  0  0  0  0  0  0  0  0  0  0  0
    8.4143    6.6863   16.2273 C   0  0  0  0  0  0  0  0  0  0  0  0
   10.7581    6.5674   21.7636 C   0  0  0  0  0  0  0  0  0  0  0  0
    8.4452    8.7960   19.2958 O   0  0  0  0  0  0  0  0  0  0  0  0
    8.7122    6.7842   24.8569 C   0  0  0  0  0  0  0  0  0  0  0  0
   10.3400    6.1726   14.3081 C   0  0  0  0  0  0  0  0  0  0  0  0
    7.4297    7.5873   24.8962 C   0  0  0  0  0  0  0  0  0  0  0  0
    8.1566   10.0536   16.0516 O   0  0  0  0  0  0  0  0  0  0  0  0
   12.4989    6.2074   20.1776 C   0  0  0  0  0  0  0  0  0  0  0  0
    6.9192    9.1053   20.9073 O   0  0  0  0  0  0  0  0  0  0  0  0
   14.3979    6.0729   18.7784 C   0  0  0  0  0  0  0  0  0  0  0  0
    8.6811    9.5354   16.9998 C   0  0  0  0  0  0  0  0  0  0  0  0
    9.2512    4.2713   13.7653 O   0  0  0  0  0  0  0  0  0  0  0  0
    9.6495    8.6317   16.8332 N   0  0  0  0  0  0  0  0  0  0  0  0
    6.2934    8.6988   23.1988 O   0  0  0  0  0  0  0  0  0  0  0  0
    7.9806    8.6543   20.5437 C   0  0  0  0  0  0  0  0  0  0  0  0
   13.7270    5.7144   19.8610 O   0  0  0  0  0  0  0  0  0  0  0  0
    8.3351    5.5235   15.4478 C   0  0  0  0  0  0  0  0  0  0  0  0
    8.7700    7.8434   21.3915 C   0  0  0  0  0  0  0  0  0  0  0  0
   11.7856    6.8851   19.2401 C   0  0  0  0  0  0  0  0  0  0  0  0
   10.5281    7.4276   19.5649 C   0  0  0  0  0  0  0  0  0  0  0  0
   10.0256    7.2907   20.8484 C   0  0  0  0  0  0  0  0  0  0  0  0
    9.3113    5.3049   14.4911 C   0  0  0  0  0  0  0  0  0  0  0  0
    9.4607    7.5646   16.0139 C   0  0  0  0  0  0  0  0  0  0  0  0
   10.4192    7.3157   15.0955 C   0  0  0  0  0  0  0  0  0  0  0  0
   10.2489    6.4227   23.0218 N   0  0  0  0  0  0  0  0  0  0  0  0
    7.2472    8.0746   23.5050 C   0  0  0  0  0  0  0  0  0  0  0  0
    9.2051    6.9101   23.4604 C   0  0  0  0  0  0  0  0  0  0  0  0
   11.9646    6.0299   21.4251 C   0  0  0  0  0  0  0  0  0  0  0  0
  1  5  1  0
  1 13  1  0
  2 20  2  0
  2 28  1  0
  2 29  1  0
  3 19  4  0
  3 25  4  0
  4 23  4  0
  4 27  1  0
  4 30  4  0
  5 17  1  0
  6  8  1  0
  6 29  1  0
  7 24  4  0
  7 26  4  0
  8 28  1  0
  9 13  2  0
 10 18  1  0
 10 21  4  0
 10 30  4  0
 11 17  2  0
 12 18  1  0
 13 15  1  0
 14 24  1  0
 15 25  1  0
 16 28  2  0
 17 20  1  0
 19 24  4  0
 20 23  1  0
 21 22  4  0
 22 23  4  0
 25 26  4  0
 27 29  2  0
M  END
$$$$

 Created by Python create_sdf_string function

 30 33  0  0  0  0  0  0  0  0999 V2000
    8.3036    9.8571   18.4133 C   0  0  0  0  0  0  0  0  0  0  0  0
    8.3694    7.6612   22.6703 C   0  0  0  0  0  0  0  0  0  0  0  0
    8.4143    6.6863   16.2273 C   0  0  0  0  0  0  0  0  0  0  0  0
   10.7581    6.5674   21.7636 C   0  0  0  0  0  0  0  0  0  0  0  0
    8.4452    8.7960   19.2958 O   0  0  0  0  0  0  0  0  0  0  0  0
    8.7122    6.7842   24.8569 C   0  0  0  0  0  0  0  0  0  0  0  0
   10.3400    6.1726   14.3081 C   0  0  0  0  0  0  0  0  0  0  0  0
    7.4297    7.5873   24.8962 C   0  0  0  0  0  0  0  0  0  0  0  0
    8.1566   10.0536   16.0516 O   0  0  0  0  0  0  0  0  0  0  0  0
   12.4989    6.2074   20.1776 C   0  0  0  0  0  0  0  0  0  0  0  0
    6.9192    9.1053   20.9073 O   0  0  0  0  0  0  0  0  0  0  0  0
   14.3979    6.0729   18.7784 C   0  0  0  0  0  0  0  0  0  0  0  0
    8.6811    9.5354   16.9998 C   0  0  0  0  0  0  0  0  0  0  0  0
    9.2512    4.2713   13.7653 O   0  0  0  0  0  0  0  0  0  0  0  0
    9.6495    8.6317   16.8332 N   0  0  0  0  0  0  0  0  0  0  0  0
    6.2934    8.6988   23.1988 O   0  0  0  0  0  0  0  0  0  0  0  0
    7.9806    8.6543   20.5437 C   0  0  0  0  0  0  0  0  0  0  0  0
   13.7270    5.7144   19.8610 O   0  0  0  0  0  0  0  0  0  0  0  0
    8.3351    5.5235   15.4478 C   0  0  0  0  0  0  0  0  0  0  0  0
    8.7700    7.8434   21.3915 C   0  0  0  0  0  0  0  0  0  0  0  0
   11.7856    6.8851   19.2401 C   0  0  0  0  0  0  0  0  0  0  0  0
   10.5281    7.4276   19.5649 C   0  0  0  0  0  0  0  0  0  0  0  0
   10.0256    7.2907   20.8484 C   0  0  0  0  0  0  0  0  0  0  0  0
    9.3113    5.3049   14.4911 C   0  0  0  0  0  0  0  0  0  0  0  0
    9.4607    7.5646   16.0139 C   0  0  0  0  0  0  0  0  0  0  0  0
   10.4192    7.3157   15.0955 C   0  0  0  0  0  0  0  0  0  0  0  0
   10.2489    6.4227   23.0218 N   0  0  0  0  0  0  0  0  0  0  0  0
    7.2472    8.0746   23.5050 C   0  0  0  0  0  0  0  0  0  0  0  0
    9.2051    6.9101   23.4604 C   0  0  0  0  0  0  0  0  0  0  0  0
   11.9646    6.0299   21.4251 C   0  0  0  0  0  0  0  0  0  0  0  0
  1  5  1  0
  1 13  1  0
  2 20  2  0
  2 28  1  0
  2 29  1  0
  3 19  4  0
  3 25  4  0
  4 23  4  0
  4 27  1  0
  4 30  4  0
  5 17  1  0
  6  8  1  0
  6 29  1  0
  7 24  4  0
  7 26  4  0
  8 28  1  0
  9 13  2  0
 10 18  1  0
 10 21  4  0
 10 30  4  0
 11 17  2  0
 12 18  1  0
 13 15  1  0
 14 24  1  0
 15 25  1  0
 16 28  2  0
 17 20  1  0
 19 24  4  0
 20 23  1  0
 21 22  4  0
 22 23  4  0
 25 26  4  0
 27 29  2  0
M  END
$$$$

 Created by Python create_sdf_string function

 30 33  0  0  0  0  0  0  0  0999 V2000
    8.3036    9.8571   18.4133 C   0  0  0  0  0  0  0  0  0  0  0  0
    8.3694    7.6612   22.6703 C   0  0  0  0  0  0  0  0  0  0  0  0
    8.4143    6.6863   16.2273 C   0  0  0  0  0  0  0  0  0  0  0  0
   10.7581    6.5674   21.7636 C   0  0  0  0  0  0  0  0  0  0  0  0
    8.4452    8.7960   19.2958 O   0  0  0  0  0  0  0  0  0  0  0  0
    8.7122    6.7842   24.8569 C   0  0  0  0  0  0  0  0  0  0  0  0
   10.3400    6.1726   14.3081 C   0  0  0  0  0  0  0  0  0  0  0  0
    7.4297    7.5873   24.8962 C   0  0  0  0  0  0  0  0  0  0  0  0
    8.1566   10.0536   16.0516 O   0  0  0  0  0  0  0  0  0  0  0  0
   12.4989    6.2074   20.1776 C   0  0  0  0  0  0  0  0  0  0  0  0
    6.9192    9.1053   20.9073 O   0  0  0  0  0  0  0  0  0  0  0  0
   14.3979    6.0729   18.7784 C   0  0  0  0  0  0  0  0  0  0  0  0
    8.6811    9.5354   16.9998 C   0  0  0  0  0  0  0  0  0  0  0  0
    9.2512    4.2713   13.7653 O   0  0  0  0  0  0  0  0  0  0  0  0
    9.6495    8.6317   16.8332 N   0  0  0  0  0  0  0  0  0  0  0  0
    6.2934    8.6988   23.1988 O   0  0  0  0  0  0  0  0  0  0  0  0
    7.9806    8.6543   20.5437 C   0  0  0  0  0  0  0  0  0  0  0  0
   13.7270    5.7144   19.8610 O   0  0  0  0  0  0  0  0  0  0  0  0
    8.3351    5.5235   15.4478 C   0  0  0  0  0  0  0  0  0  0  0  0
    8.7700    7.8434   21.3915 C   0  0  0  0  0  0  0  0  0  0  0  0
   11.7856    6.8851   19.2401 C   0  0  0  0  0  0  0  0  0  0  0  0
   10.5281    7.4276   19.5649 C   0  0  0  0  0  0  0  0  0  0  0  0
   10.0256    7.2907   20.8484 C   0  0  0  0  0  0  0  0  0  0  0  0
    9.3113    5.3049   14.4911 C   0  0  0  0  0  0  0  0  0  0  0  0
    9.4607    7.5646   16.0139 C   0  0  0  0  0  0  0  0  0  0  0  0
   10.4192    7.3157   15.0955 C   0  0  0  0  0  0  0  0  0  0  0  0
   10.2489    6.4227   23.0218 N   0  0  0  0  0  0  0  0  0  0  0  0
    7.2472    8.0746   23.5050 C   0  0  0  0  0  0  0  0  0  0  0  0
    9.2051    6.9101   23.4604 C   0  0  0  0  0  0  0  0  0  0  0  0
   11.9646    6.0299   21.4251 C   0  0  0  0  0  0  0  0  0  0  0  0
  1  5  1  0
  1 13  1  0
  2 20  2  0
  2 28  1  0
  2 29  1  0
  3 19  4  0
  3 25  4  0
  4 23  4  0
  4 27  1  0
  4 30  4  0
  5 17  1  0
  6  8  1  0
  6 29  1  0
  7 24  4  0
  7 26  4  0
  8 28  1  0
  9 13  2  0
 10 18  1  0
 10 21  4  0
 10 30  4  0
 11 17  2  0
 12 18  1  0
 13 15  1  0
 14 24  1  0
 15 25  1  0
 16 28  2  0
 17 20  1  0
 19 24  4  0
 20 23  1  0
 21 22  4  0
 22 23  4  0
 25 26  4  0
 27 29  2  0
M  END
$$$$

 Created by Python create_sdf_string function

 30 33  0  0  0  0  0  0  0  0999 V2000
    8.3036    9.8571   18.4133 C   0  0  0  0  0  0  0  0  0  0  0  0
    8.3694    7.6612   22.6703 C   0  0  0  0  0  0  0  0  0  0  0  0
    8.4143    6.6863   16.2273 C   0  0  0  0  0  0  0  0  0  0  0  0
   10.7581    6.5674   21.7636 C   0  0  0  0  0  0  0  0  0  0  0  0
    8.4452    8.7960   19.2958 O   0  0  0  0  0  0  0  0  0  0  0  0
    8.7122    6.7842   24.8569 C   0  0  0  0  0  0  0  0  0  0  0  0
   10.3400    6.1726   14.3081 C   0  0  0  0  0  0  0  0  0  0  0  0
    7.4297    7.5873   24.8962 C   0  0  0  0  0  0  0  0  0  0  0  0
    8.1566   10.0536   16.0516 O   0  0  0  0  0  0  0  0  0  0  0  0
   12.4989    6.2074   20.1776 C   0  0  0  0  0  0  0  0  0  0  0  0
    6.9192    9.1053   20.9073 O   0  0  0  0  0  0  0  0  0  0  0  0
   14.3979    6.0729   18.7784 C   0  0  0  0  0  0  0  0  0  0  0  0
    8.6811    9.5354   16.9998 C   0  0  0  0  0  0  0  0  0  0  0  0
    9.2512    4.2713   13.7653 O   0  0  0  0  0  0  0  0  0  0  0  0
    9.6495    8.6317   16.8332 N   0  0  0  0  0  0  0  0  0  0  0  0
    6.2934    8.6988   23.1988 O   0  0  0  0  0  0  0  0  0  0  0  0
    7.9806    8.6543   20.5437 C   0  0  0  0  0  0  0  0  0  0  0  0
   13.7270    5.7144   19.8610 O   0  0  0  0  0  0  0  0  0  0  0  0
    8.3351    5.5235   15.4478 C   0  0  0  0  0  0  0  0  0  0  0  0
    8.7700    7.8434   21.3915 C   0  0  0  0  0  0  0  0  0  0  0  0
   11.7856    6.8851   19.2401 C   0  0  0  0  0  0  0  0  0  0  0  0
   10.5281    7.4276   19.5649 C   0  0  0  0  0  0  0  0  0  0  0  0
   10.0256    7.2907   20.8484 C   0  0  0  0  0  0  0  0  0  0  0  0
    9.3113    5.3049   14.4911 C   0  0  0  0  0  0  0  0  0  0  0  0
    9.4607    7.5646   16.0139 C   0  0  0  0  0  0  0  0  0  0  0  0
   10.4192    7.3157   15.0955 C   0  0  0  0  0  0  0  0  0  0  0  0
   10.2489    6.4227   23.0218 N   0  0  0  0  0  0  0  0  0  0  0  0
    7.2472    8.0746   23.5050 C   0  0  0  0  0  0  0  0  0  0  0  0
    9.2051    6.9101   23.4604 C   0  0  0  0  0  0  0  0  0  0  0  0
   11.9646    6.0299   21.4251 C   0  0  0  0  0  0  0  0  0  0  0  0
  1  5  1  0
  1 13  1  0
  2 20  2  0
  2 28  1  0
  2 29  1  0
  3 19  4  0
  3 25  4  0
  4 23  4  0
  4 27  1  0
  4 30  4  0
  5 17  1  0
  6  8  1  0
  6 29  1  0
  7 24  4  0
  7 26  4  0
  8 28  1  0
  9 13  2  0
 10 18  1  0
 10 21  4  0
 10 30  4  0
 11 17  2  0
 12 18  1  0
 13 15  1  0
 14 24  1  0
 15 25  1  0
 16 28  2  0
 17 20  1  0
 19 24  4  0
 20 23  1  0
 21 22  4  0
 22 23  4  0
 25 26  4  0
 27 29  2  0
M  END
$$$$

 Created by Python create_sdf_string function

 30 33  0  0  0  0  0  0  0  0999 V2000
    8.3036    9.8571   18.4133 C   0  0  0  0  0  0  0  0  0  0  0  0
    8.3694    7.6612   22.6703 C   0  0  0  0  0  0  0  0  0  0  0  0
    8.4143    6.6863   16.2273 C   0  0  0  0  0  0  0  0  0  0  0  0
   10.7581    6.5674   21.7636 C   0  0  0  0  0  0  0  0  0  0  0  0
    8.4452    8.7960   19.2958 O   0  0  0  0  0  0  0  0  0  0  0  0
    8.7122    6.7842   24.8569 C   0  0  0  0  0  0  0  0  0  0  0  0
   10.3400    6.1726   14.3081 C   0  0  0  0  0  0  0  0  0  0  0  0
    7.4297    7.5873   24.8962 C   0  0  0  0  0  0  0  0  0  0  0  0
    8.1566   10.0536   16.0516 O   0  0  0  0  0  0  0  0  0  0  0  0
   12.4989    6.2074   20.1776 C   0  0  0  0  0  0  0  0  0  0  0  0
    6.9192    9.1053   20.9073 O   0  0  0  0  0  0  0  0  0  0  0  0
   14.3979    6.0729   18.7784 C   0  0  0  0  0  0  0  0  0  0  0  0
    8.6811    9.5354   16.9998 C   0  0  0  0  0  0  0  0  0  0  0  0
    9.2512    4.2713   13.7653 O   0  0  0  0  0  0  0  0  0  0  0  0
    9.6495    8.6317   16.8332 N   0  0  0  0  0  0  0  0  0  0  0  0
    6.2934    8.6988   23.1988 O   0  0  0  0  0  0  0  0  0  0  0  0
    7.9806    8.6543   20.5437 C   0  0  0  0  0  0  0  0  0  0  0  0
   13.7270    5.7144   19.8610 O   0  0  0  0  0  0  0  0  0  0  0  0
    8.3351    5.5235   15.4478 C   0  0  0  0  0  0  0  0  0  0  0  0
    8.7700    7.8434   21.3915 C   0  0  0  0  0  0  0  0  0  0  0  0
   11.7856    6.8851   19.2401 C   0  0  0  0  0  0  0  0  0  0  0  0
   10.5281    7.4276   19.5649 C   0  0  0  0  0  0  0  0  0  0  0  0
   10.0256    7.2907   20.8484 C   0  0  0  0  0  0  0  0  0  0  0  0
    9.3113    5.3049   14.4911 C   0  0  0  0  0  0  0  0  0  0  0  0
    9.4607    7.5646   16.0139 C   0  0  0  0  0  0  0  0  0  0  0  0
   10.4192    7.3157   15.0955 C   0  0  0  0  0  0  0  0  0  0  0  0
   10.2489    6.4227   23.0218 N   0  0  0  0  0  0  0  0  0  0  0  0
    7.2472    8.0746   23.5050 C   0  0  0  0  0  0  0  0  0  0  0  0
    9.2051    6.9101   23.4604 C   0  0  0  0  0  0  0  0  0  0  0  0
   11.9646    6.0299   21.4251 C   0  0  0  0  0  0  0  0  0  0  0  0
  1  5  1  0
  1 13  1  0
  2 20  2  0
  2 28  1  0
  2 29  1  0
  3 19  4  0
  3 25  4  0
  4 23  4  0
  4 27  1  0
  4 30  4  0
  5 17  1  0
  6  8  1  0
  6 29  1  0
  7 24  4  0
  7 26  4  0
  8 28  1  0
  9 13  2  0
 10 18  1  0
 10 21  4  0
 10 30  4  0
 11 17  2  0
 12 18  1  0
 13 15  1  0
 14 24  1  0
 15 25  1  0
 16 28  2  0
 17 20  1  0
 19 24  4  0
 20 23  1  0
 21 22  4  0
 22 23  4  0
 25 26  4  0
 27 29  2  0
M  END
$$$$

 Created by Python create_sdf_string function

 30 33  0  0  0  0  0  0  0  0999 V2000
    8.3036    9.8571   18.4133 C   0  0  0  0  0  0  0  0  0  0  0  0
    8.3694    7.6612   22.6703 C   0  0  0  0  0  0  0  0  0  0  0  0
    8.4143    6.6863   16.2273 C   0  0  0  0  0  0  0  0  0  0  0  0
   10.7581    6.5674   21.7636 C   0  0  0  0  0  0  0  0  0  0  0  0
    8.4452    8.7960   19.2958 O   0  0  0  0  0  0  0  0  0  0  0  0
    8.7122    6.7842   24.8569 C   0  0  0  0  0  0  0  0  0  0  0  0
   10.3400    6.1726   14.3081 C   0  0  0  0  0  0  0  0  0  0  0  0
    7.4297    7.5873   24.8962 C   0  0  0  0  0  0  0  0  0  0  0  0
    8.1566   10.0536   16.0516 O   0  0  0  0  0  0  0  0  0  0  0  0
   12.4989    6.2074   20.1776 C   0  0  0  0  0  0  0  0  0  0  0  0
    6.9192    9.1053   20.9073 O   0  0  0  0  0  0  0  0  0  0  0  0
   14.3979    6.0729   18.7784 C   0  0  0  0  0  0  0  0  0  0  0  0
    8.6811    9.5354   16.9998 C   0  0  0  0  0  0  0  0  0  0  0  0
    9.2512    4.2713   13.7653 O   0  0  0  0  0  0  0  0  0  0  0  0
    9.6495    8.6317   16.8332 N   0  0  0  0  0  0  0  0  0  0  0  0
    6.2934    8.6988   23.1988 O   0  0  0  0  0  0  0  0  0  0  0  0
    7.9806    8.6543   20.5437 C   0  0  0  0  0  0  0  0  0  0  0  0
   13.7270    5.7144   19.8610 O   0  0  0  0  0  0  0  0  0  0  0  0
    8.3351    5.5235   15.4478 C   0  0  0  0  0  0  0  0  0  0  0  0
    8.7700    7.8434   21.3915 C   0  0  0  0  0  0  0  0  0  0  0  0
   11.7856    6.8851   19.2401 C   0  0  0  0  0  0  0  0  0  0  0  0
   10.5281    7.4276   19.5649 C   0  0  0  0  0  0  0  0  0  0  0  0
   10.0256    7.2907   20.8484 C   0  0  0  0  0  0  0  0  0  0  0  0
    9.3113    5.3049   14.4911 C   0  0  0  0  0  0  0  0  0  0  0  0
    9.4607    7.5646   16.0139 C   0  0  0  0  0  0  0  0  0  0  0  0
   10.4192    7.3157   15.0955 C   0  0  0  0  0  0  0  0  0  0  0  0
   10.2489    6.4227   23.0218 N   0  0  0  0  0  0  0  0  0  0  0  0
    7.2472    8.0746   23.5050 C   0  0  0  0  0  0  0  0  0  0  0  0
    9.2051    6.9101   23.4604 C   0  0  0  0  0  0  0  0  0  0  0  0
   11.9646    6.0299   21.4251 C   0  0  0  0  0  0  0  0  0  0  0  0
  1  5  1  0
  1 13  1  0
  2 20  2  0
  2 28  1  0
  2 29  1  0
  3 19  4  0
  3 25  4  0
  4 23  4  0
  4 27  1  0
  4 30  4  0
  5 17  1  0
  6  8  1  0
  6 29  1  0
  7 24  4  0
  7 26  4  0
  8 28  1  0
  9 13  2  0
 10 18  1  0
 10 21  4  0
 10 30  4  0
 11 17  2  0
 12 18  1  0
 13 15  1  0
 14 24  1  0
 15 25  1  0
 16 28  2  0
 17 20  1  0
 19 24  4  0
 20 23  1  0
 21 22  4  0
 22 23  4  0
 25 26  4  0
 27 29  2  0
M  END
$$$$

 Created by Python create_sdf_string function

 30 33  0  0  0  0  0  0  0  0999 V2000
    8.3036    9.8571   18.4133 C   0  0  0  0  0  0  0  0  0  0  0  0
    8.3694    7.6612   22.6703 C   0  0  0  0  0  0  0  0  0  0  0  0
    8.4143    6.6863   16.2273 C   0  0  0  0  0  0  0  0  0  0  0  0
   10.7581    6.5674   21.7636 C   0  0  0  0  0  0  0  0  0  0  0  0
    8.4452    8.7960   19.2958 O   0  0  0  0  0  0  0  0  0  0  0  0
    8.7122    6.7842   24.8569 C   0  0  0  0  0  0  0  0  0  0  0  0
   10.3400    6.1726   14.3081 C   0  0  0  0  0  0  0  0  0  0  0  0
    7.4297    7.5873   24.8962 C   0  0  0  0  0  0  0  0  0  0  0  0
    8.1566   10.0536   16.0516 O   0  0  0  0  0  0  0  0  0  0  0  0
   12.4989    6.2074   20.1776 C   0  0  0  0  0  0  0  0  0  0  0  0
    6.9192    9.1053   20.9073 O   0  0  0  0  0  0  0  0  0  0  0  0
   14.3979    6.0729   18.7784 C   0  0  0  0  0  0  0  0  0  0  0  0
    8.6811    9.5354   16.9998 C   0  0  0  0  0  0  0  0  0  0  0  0
    9.2512    4.2713   13.7653 O   0  0  0  0  0  0  0  0  0  0  0  0
    9.6495    8.6317   16.8332 N   0  0  0  0  0  0  0  0  0  0  0  0
    6.2934    8.6988   23.1988 O   0  0  0  0  0  0  0  0  0  0  0  0
    7.9806    8.6543   20.5437 C   0  0  0  0  0  0  0  0  0  0  0  0
   13.7270    5.7144   19.8610 O   0  0  0  0  0  0  0  0  0  0  0  0
    8.3351    5.5235   15.4478 C   0  0  0  0  0  0  0  0  0  0  0  0
    8.7700    7.8434   21.3915 C   0  0  0  0  0  0  0  0  0  0  0  0
   11.7856    6.8851   19.2401 C   0  0  0  0  0  0  0  0  0  0  0  0
   10.5281    7.4276   19.5649 C   0  0  0  0  0  0  0  0  0  0  0  0
   10.0256    7.2907   20.8484 C   0  0  0  0  0  0  0  0  0  0  0  0
    9.3113    5.3049   14.4911 C   0  0  0  0  0  0  0  0  0  0  0  0
    9.4607    7.5646   16.0139 C   0  0  0  0  0  0  0  0  0  0  0  0
   10.4192    7.3157   15.0955 C   0  0  0  0  0  0  0  0  0  0  0  0
   10.2489    6.4227   23.0218 N   0  0  0  0  0  0  0  0  0  0  0  0
    7.2472    8.0746   23.5050 C   0  0  0  0  0  0  0  0  0  0  0  0
    9.2051    6.9101   23.4604 C   0  0  0  0  0  0  0  0  0  0  0  0
   11.9646    6.0299   21.4251 C   0  0  0  0  0  0  0  0  0  0  0  0
  1  5  1  0
  1 13  1  0
  2 20  2  0
  2 28  1  0
  2 29  1  0
  3 19  4  0
  3 25  4  0
  4 23  4  0
  4 27  1  0
  4 30  4  0
  5 17  1  0
  6  8  1  0
  6 29  1  0
  7 24  4  0
  7 26  4  0
  8 28  1  0
  9 13  2  0
 10 18  1  0
 10 21  4  0
 10 30  4  0
 11 17  2  0
 12 18  1  0
 13 15  1  0
 14 24  1  0
 15 25  1  0
 16 28  2  0
 17 20  1  0
 19 24  4  0
 20 23  1  0
 21 22  4  0
 22 23  4  0
 25 26  4  0
 27 29  2  0
M  END
$$$$

 Created by Python create_sdf_string function

 30 33  0  0  0  0  0  0  0  0999 V2000
    8.3036    9.8571   18.4133 C   0  0  0  0  0  0  0  0  0  0  0  0
    8.3694    7.6612   22.6703 C   0  0  0  0  0  0  0  0  0  0  0  0
    8.4143    6.6863   16.2273 C   0  0  0  0  0  0  0  0  0  0  0  0
   10.7581    6.5674   21.7636 C   0  0  0  0  0  0  0  0  0  0  0  0
    8.4452    8.7960   19.2958 O   0  0  0  0  0  0  0  0  0  0  0  0
    8.7122    6.7842   24.8569 C   0  0  0  0  0  0  0  0  0  0  0  0
   10.3400    6.1726   14.3081 C   0  0  0  0  0  0  0  0  0  0  0  0
    7.4297    7.5873   24.8962 C   0  0  0  0  0  0  0  0  0  0  0  0
    8.1566   10.0536   16.0516 O   0  0  0  0  0  0  0  0  0  0  0  0
   12.4989    6.2074   20.1776 C   0  0  0  0  0  0  0  0  0  0  0  0
    6.9192    9.1053   20.9073 O   0  0  0  0  0  0  0  0  0  0  0  0
   14.3979    6.0729   18.7784 C   0  0  0  0  0  0  0  0  0  0  0  0
    8.6811    9.5354   16.9998 C   0  0  0  0  0  0  0  0  0  0  0  0
    9.2512    4.2713   13.7653 O   0  0  0  0  0  0  0  0  0  0  0  0
    9.6495    8.6317   16.8332 N   0  0  0  0  0  0  0  0  0  0  0  0
    6.2934    8.6988   23.1988 O   0  0  0  0  0  0  0  0  0  0  0  0
    7.9806    8.6543   20.5437 C   0  0  0  0  0  0  0  0  0  0  0  0
   13.7270    5.7144   19.8610 O   0  0  0  0  0  0  0  0  0  0  0  0
    8.3351    5.5235   15.4478 C   0  0  0  0  0  0  0  0  0  0  0  0
    8.7700    7.8434   21.3915 C   0  0  0  0  0  0  0  0  0  0  0  0
   11.7856    6.8851   19.2401 C   0  0  0  0  0  0  0  0  0  0  0  0
   10.5281    7.4276   19.5649 C   0  0  0  0  0  0  0  0  0  0  0  0
   10.0256    7.2907   20.8484 C   0  0  0  0  0  0  0  0  0  0  0  0
    9.3113    5.3049   14.4911 C   0  0  0  0  0  0  0  0  0  0  0  0
    9.4607    7.5646   16.0139 C   0  0  0  0  0  0  0  0  0  0  0  0
   10.4192    7.3157   15.0955 C   0  0  0  0  0  0  0  0  0  0  0  0
   10.2489    6.4227   23.0218 N   0  0  0  0  0  0  0  0  0  0  0  0
    7.2472    8.0746   23.5050 C   0  0  0  0  0  0  0  0  0  0  0  0
    9.2051    6.9101   23.4604 C   0  0  0  0  0  0  0  0  0  0  0  0
   11.9646    6.0299   21.4251 C   0  0  0  0  0  0  0  0  0  0  0  0
  1  5  1  0
  1 13  1  0
  2 20  2  0
  2 28  1  0
  2 29  1  0
  3 19  4  0
  3 25  4  0
  4 23  4  0
  4 27  1  0
  4 30  4  0
  5 17  1  0
  6  8  1  0
  6 29  1  0
  7 24  4  0
  7 26  4  0
  8 28  1  0
  9 13  2  0
 10 18  1  0
 10 21  4  0
 10 30  4  0
 11 17  2  0
 12 18  1  0
 13 15  1  0
 14 24  1  0
 15 25  1  0
 16 28  2  0
 17 20  1  0
 19 24  4  0
 20 23  1  0
 21 22  4  0
 22 23  4  0
 25 26  4  0
 27 29  2  0
M  END
$$$$

 Created by Python create_sdf_string function

 30 33  0  0  0  0  0  0  0  0999 V2000
    8.3036    9.8571   18.4133 C   0  0  0  0  0  0  0  0  0  0  0  0
    8.3694    7.6612   22.6703 C   0  0  0  0  0  0  0  0  0  0  0  0
    8.4143    6.6863   16.2273 C   0  0  0  0  0  0  0  0  0  0  0  0
   10.7581    6.5674   21.7636 C   0  0  0  0  0  0  0  0  0  0  0  0
    8.4452    8.7960   19.2958 O   0  0  0  0  0  0  0  0  0  0  0  0
    8.7122    6.7842   24.8569 C   0  0  0  0  0  0  0  0  0  0  0  0
   10.3400    6.1726   14.3081 C   0  0  0  0  0  0  0  0  0  0  0  0
    7.4297    7.5873   24.8962 C   0  0  0  0  0  0  0  0  0  0  0  0
    8.1566   10.0536   16.0516 O   0  0  0  0  0  0  0  0  0  0  0  0
   12.4989    6.2074   20.1776 C   0  0  0  0  0  0  0  0  0  0  0  0
    6.9192    9.1053   20.9073 O   0  0  0  0  0  0  0  0  0  0  0  0
   14.3979    6.0729   18.7784 C   0  0  0  0  0  0  0  0  0  0  0  0
    8.6811    9.5354   16.9998 C   0  0  0  0  0  0  0  0  0  0  0  0
    9.2512    4.2713   13.7653 O   0  0  0  0  0  0  0  0  0  0  0  0
    9.6495    8.6317   16.8332 N   0  0  0  0  0  0  0  0  0  0  0  0
    6.2934    8.6988   23.1988 O   0  0  0  0  0  0  0  0  0  0  0  0
    7.9806    8.6543   20.5437 C   0  0  0  0  0  0  0  0  0  0  0  0
   13.7270    5.7144   19.8610 O   0  0  0  0  0  0  0  0  0  0  0  0
    8.3351    5.5235   15.4478 C   0  0  0  0  0  0  0  0  0  0  0  0
    8.7700    7.8434   21.3915 C   0  0  0  0  0  0  0  0  0  0  0  0
   11.7856    6.8851   19.2401 C   0  0  0  0  0  0  0  0  0  0  0  0
   10.5281    7.4276   19.5649 C   0  0  0  0  0  0  0  0  0  0  0  0
   10.0256    7.2907   20.8484 C   0  0  0  0  0  0  0  0  0  0  0  0
    9.3113    5.3049   14.4911 C   0  0  0  0  0  0  0  0  0  0  0  0
    9.4607    7.5646   16.0139 C   0  0  0  0  0  0  0  0  0  0  0  0
   10.4192    7.3157   15.0955 C   0  0  0  0  0  0  0  0  0  0  0  0
   10.2489    6.4227   23.0218 N   0  0  0  0  0  0  0  0  0  0  0  0
    7.2472    8.0746   23.5050 C   0  0  0  0  0  0  0  0  0  0  0  0
    9.2051    6.9101   23.4604 C   0  0  0  0  0  0  0  0  0  0  0  0
   11.9646    6.0299   21.4251 C   0  0  0  0  0  0  0  0  0  0  0  0
  1  5  1  0
  1 13  1  0
  2 20  2  0
  2 28  1  0
  2 29  1  0
  3 19  4  0
  3 25  4  0
  4 23  4  0
  4 27  1  0
  4 30  4  0
  5 17  1  0
  6  8  1  0
  6 29  1  0
  7 24  4  0
  7 26  4  0
  8 28  1  0
  9 13  2  0
 10 18  1  0
 10 21  4  0
 10 30  4  0
 11 17  2  0
 12 18  1  0
 13 15  1  0
 14 24  1  0
 15 25  1  0
 16 28  2  0
 17 20  1  0
 19 24  4  0
 20 23  1  0
 21 22  4  0
 22 23  4  0
 25 26  4  0
 27 29  2  0
M  END
$$$$

 Created by Python create_sdf_string function

 30 33  0  0  0  0  0  0  0  0999 V2000
    8.3036    9.8571   18.4133 C   0  0  0  0  0  0  0  0  0  0  0  0
    8.3694    7.6612   22.6703 C   0  0  0  0  0  0  0  0  0  0  0  0
    8.4143    6.6863   16.2273 C   0  0  0  0  0  0  0  0  0  0  0  0
   10.7581    6.5674   21.7636 C   0  0  0  0  0  0  0  0  0  0  0  0
    8.4452    8.7960   19.2958 O   0  0  0  0  0  0  0  0  0  0  0  0
    8.7122    6.7842   24.8569 C   0  0  0  0  0  0  0  0  0  0  0  0
   10.3400    6.1726   14.3081 C   0  0  0  0  0  0  0  0  0  0  0  0
    7.4297    7.5873   24.8962 C   0  0  0  0  0  0  0  0  0  0  0  0
    8.1566   10.0536   16.0516 O   0  0  0  0  0  0  0  0  0  0  0  0
   12.4989    6.2074   20.1776 C   0  0  0  0  0  0  0  0  0  0  0  0
    6.9192    9.1053   20.9073 O   0  0  0  0  0  0  0  0  0  0  0  0
   14.3979    6.0729   18.7784 C   0  0  0  0  0  0  0  0  0  0  0  0
    8.6811    9.5354   16.9998 C   0  0  0  0  0  0  0  0  0  0  0  0
    9.2512    4.2713   13.7653 O   0  0  0  0  0  0  0  0  0  0  0  0
    9.6495    8.6317   16.8332 N   0  0  0  0  0  0  0  0  0  0  0  0
    6.2934    8.6988   23.1988 O   0  0  0  0  0  0  0  0  0  0  0  0
    7.9806    8.6543   20.5437 C   0  0  0  0  0  0  0  0  0  0  0  0
   13.7270    5.7144   19.8610 O   0  0  0  0  0  0  0  0  0  0  0  0
    8.3351    5.5235   15.4478 C   0  0  0  0  0  0  0  0  0  0  0  0
    8.7700    7.8434   21.3915 C   0  0  0  0  0  0  0  0  0  0  0  0
   11.7856    6.8851   19.2401 C   0  0  0  0  0  0  0  0  0  0  0  0
   10.5281    7.4276   19.5649 C   0  0  0  0  0  0  0  0  0  0  0  0
   10.0256    7.2907   20.8484 C   0  0  0  0  0  0  0  0  0  0  0  0
    9.3113    5.3049   14.4911 C   0  0  0  0  0  0  0  0  0  0  0  0
    9.4607    7.5646   16.0139 C   0  0  0  0  0  0  0  0  0  0  0  0
   10.4192    7.3157   15.0955 C   0  0  0  0  0  0  0  0  0  0  0  0
   10.2489    6.4227   23.0218 N   0  0  0  0  0  0  0  0  0  0  0  0
    7.2472    8.0746   23.5050 C   0  0  0  0  0  0  0  0  0  0  0  0
    9.2051    6.9101   23.4604 C   0  0  0  0  0  0  0  0  0  0  0  0
   11.9646    6.0299   21.4251 C   0  0  0  0  0  0  0  0  0  0  0  0
  1  5  1  0
  1 13  1  0
  2 20  2  0
  2 28  1  0
  2 29  1  0
  3 19  4  0
  3 25  4  0
  4 23  4  0
  4 27  1  0
  4 30  4  0
  5 17  1  0
  6  8  1  0
  6 29  1  0
  7 24  4  0
  7 26  4  0
  8 28  1  0
  9 13  2  0
 10 18  1  0
 10 21  4  0
 10 30  4  0
 11 17  2  0
 12 18  1  0
 13 15  1  0
 14 24  1  0
 15 25  1  0
 16 28  2  0
 17 20  1  0
 19 24  4  0
 20 23  1  0
 21 22  4  0
 22 23  4  0
 25 26  4  0
 27 29  2  0
M  END
$$$$

 Created by Python create_sdf_string function

 30 33  0  0  0  0  0  0  0  0999 V2000
    8.3036    9.8571   18.4133 C   0  0  0  0  0  0  0  0  0  0  0  0
    8.3694    7.6612   22.6703 C   0  0  0  0  0  0  0  0  0  0  0  0
    8.4143    6.6863   16.2273 C   0  0  0  0  0  0  0  0  0  0  0  0
   10.7581    6.5674   21.7636 C   0  0  0  0  0  0  0  0  0  0  0  0
    8.4452    8.7960   19.2958 O   0  0  0  0  0  0  0  0  0  0  0  0
    8.7122    6.7842   24.8569 C   0  0  0  0  0  0  0  0  0  0  0  0
   10.3400    6.1726   14.3081 C   0  0  0  0  0  0  0  0  0  0  0  0
    7.4297    7.5873   24.8962 C   0  0  0  0  0  0  0  0  0  0  0  0
    8.1566   10.0536   16.0516 O   0  0  0  0  0  0  0  0  0  0  0  0
   12.4989    6.2074   20.1776 C   0  0  0  0  0  0  0  0  0  0  0  0
    6.9192    9.1053   20.9073 O   0  0  0  0  0  0  0  0  0  0  0  0
   14.3979    6.0729   18.7784 C   0  0  0  0  0  0  0  0  0  0  0  0
    8.6811    9.5354   16.9998 C   0  0  0  0  0  0  0  0  0  0  0  0
    9.2512    4.2713   13.7653 O   0  0  0  0  0  0  0  0  0  0  0  0
    9.6495    8.6317   16.8332 N   0  0  0  0  0  0  0  0  0  0  0  0
    6.2934    8.6988   23.1988 O   0  0  0  0  0  0  0  0  0  0  0  0
    7.9806    8.6543   20.5437 C   0  0  0  0  0  0  0  0  0  0  0  0
   13.7270    5.7144   19.8610 O   0  0  0  0  0  0  0  0  0  0  0  0
    8.3351    5.5235   15.4478 C   0  0  0  0  0  0  0  0  0  0  0  0
    8.7700    7.8434   21.3915 C   0  0  0  0  0  0  0  0  0  0  0  0
   11.7856    6.8851   19.2401 C   0  0  0  0  0  0  0  0  0  0  0  0
   10.5281    7.4276   19.5649 C   0  0  0  0  0  0  0  0  0  0  0  0
   10.0256    7.2907   20.8484 C   0  0  0  0  0  0  0  0  0  0  0  0
    9.3113    5.3049   14.4911 C   0  0  0  0  0  0  0  0  0  0  0  0
    9.4607    7.5646   16.0139 C   0  0  0  0  0  0  0  0  0  0  0  0
   10.4192    7.3157   15.0955 C   0  0  0  0  0  0  0  0  0  0  0  0
   10.2489    6.4227   23.0218 N   0  0  0  0  0  0  0  0  0  0  0  0
    7.2472    8.0746   23.5050 C   0  0  0  0  0  0  0  0  0  0  0  0
    9.2051    6.9101   23.4604 C   0  0  0  0  0  0  0  0  0  0  0  0
   11.9646    6.0299   21.4251 C   0  0  0  0  0  0  0  0  0  0  0  0
  1  5  1  0
  1 13  1  0
  2 20  2  0
  2 28  1  0
  2 29  1  0
  3 19  4  0
  3 25  4  0
  4 23  4  0
  4 27  1  0
  4 30  4  0
  5 17  1  0
  6  8  1  0
  6 29  1  0
  7 24  4  0
  7 26  4  0
  8 28  1  0
  9 13  2  0
 10 18  1  0
 10 21  4  0
 10 30  4  0
 11 17  2  0
 12 18  1  0
 13 15  1  0
 14 24  1  0
 15 25  1  0
 16 28  2  0
 17 20  1  0
 19 24  4  0
 20 23  1  0
 21 22  4  0
 22 23  4  0
 25 26  4  0
 27 29  2  0
M  END
$$$$

 Created by Python create_sdf_string function

 30 33  0  0  0  0  0  0  0  0999 V2000
    8.3036    9.8571   18.4133 C   0  0  0  0  0  0  0  0  0  0  0  0
    8.3694    7.6612   22.6703 C   0  0  0  0  0  0  0  0  0  0  0  0
    8.4143    6.6863   16.2273 C   0  0  0  0  0  0  0  0  0  0  0  0
   10.7581    6.5674   21.7636 C   0  0  0  0  0  0  0  0  0  0  0  0
    8.4452    8.7960   19.2958 O   0  0  0  0  0  0  0  0  0  0  0  0
    8.7122    6.7842   24.8569 C   0  0  0  0  0  0  0  0  0  0  0  0
   10.3400    6.1726   14.3081 C   0  0  0  0  0  0  0  0  0  0  0  0
    7.4297    7.5873   24.8962 C   0  0  0  0  0  0  0  0  0  0  0  0
    8.1566   10.0536   16.0516 O   0  0  0  0  0  0  0  0  0  0  0  0
   12.4989    6.2074   20.1776 C   0  0  0  0  0  0  0  0  0  0  0  0
    6.9192    9.1053   20.9073 O   0  0  0  0  0  0  0  0  0  0  0  0
   14.3979    6.0729   18.7784 C   0  0  0  0  0  0  0  0  0  0  0  0
    8.6811    9.5354   16.9998 C   0  0  0  0  0  0  0  0  0  0  0  0
    9.2512    4.2713   13.7653 O   0  0  0  0  0  0  0  0  0  0  0  0
    9.6495    8.6317   16.8332 N   0  0  0  0  0  0  0  0  0  0  0  0
    6.2934    8.6988   23.1988 O   0  0  0  0  0  0  0  0  0  0  0  0
    7.9806    8.6543   20.5437 C   0  0  0  0  0  0  0  0  0  0  0  0
   13.7270    5.7144   19.8610 O   0  0  0  0  0  0  0  0  0  0  0  0
    8.3351    5.5235   15.4478 C   0  0  0  0  0  0  0  0  0  0  0  0
    8.7700    7.8434   21.3915 C   0  0  0  0  0  0  0  0  0  0  0  0
   11.7856    6.8851   19.2401 C   0  0  0  0  0  0  0  0  0  0  0  0
   10.5281    7.4276   19.5649 C   0  0  0  0  0  0  0  0  0  0  0  0
   10.0256    7.2907   20.8484 C   0  0  0  0  0  0  0  0  0  0  0  0
    9.3113    5.3049   14.4911 C   0  0  0  0  0  0  0  0  0  0  0  0
    9.4607    7.5646   16.0139 C   0  0  0  0  0  0  0  0  0  0  0  0
   10.4192    7.3157   15.0955 C   0  0  0  0  0  0  0  0  0  0  0  0
   10.2489    6.4227   23.0218 N   0  0  0  0  0  0  0  0  0  0  0  0
    7.2472    8.0746   23.5050 C   0  0  0  0  0  0  0  0  0  0  0  0
    9.2051    6.9101   23.4604 C   0  0  0  0  0  0  0  0  0  0  0  0
   11.9646    6.0299   21.4251 C   0  0  0  0  0  0  0  0  0  0  0  0
  1  5  1  0
  1 13  1  0
  2 20  2  0
  2 28  1  0
  2 29  1  0
  3 19  4  0
  3 25  4  0
  4 23  4  0
  4 27  1  0
  4 30  4  0
  5 17  1  0
  6  8  1  0
  6 29  1  0
  7 24  4  0
  7 26  4  0
  8 28  1  0
  9 13  2  0
 10 18  1  0
 10 21  4  0
 10 30  4  0
 11 17  2  0
 12 18  1  0
 13 15  1  0
 14 24  1  0
 15 25  1  0
 16 28  2  0
 17 20  1  0
 19 24  4  0
 20 23  1  0
 21 22  4  0
 22 23  4  0
 25 26  4  0
 27 29  2  0
M  END
$$$$

 Created by Python create_sdf_string function

 30 33  0  0  0  0  0  0  0  0999 V2000
    8.3036    9.8571   18.4133 C   0  0  0  0  0  0  0  0  0  0  0  0
    8.3694    7.6612   22.6703 C   0  0  0  0  0  0  0  0  0  0  0  0
    8.4143    6.6863   16.2273 C   0  0  0  0  0  0  0  0  0  0  0  0
   10.7581    6.5674   21.7636 C   0  0  0  0  0  0  0  0  0  0  0  0
    8.4452    8.7960   19.2958 O   0  0  0  0  0  0  0  0  0  0  0  0
    8.7122    6.7842   24.8569 C   0  0  0  0  0  0  0  0  0  0  0  0
   10.3400    6.1726   14.3081 C   0  0  0  0  0  0  0  0  0  0  0  0
    7.4297    7.5873   24.8962 C   0  0  0  0  0  0  0  0  0  0  0  0
    8.1566   10.0536   16.0516 O   0  0  0  0  0  0  0  0  0  0  0  0
   12.4989    6.2074   20.1776 C   0  0  0  0  0  0  0  0  0  0  0  0
    6.9192    9.1053   20.9073 O   0  0  0  0  0  0  0  0  0  0  0  0
   14.3979    6.0729   18.7784 C   0  0  0  0  0  0  0  0  0  0  0  0
    8.6811    9.5354   16.9998 C   0  0  0  0  0  0  0  0  0  0  0  0
    9.2512    4.2713   13.7653 O   0  0  0  0  0  0  0  0  0  0  0  0
    9.6495    8.6317   16.8332 N   0  0  0  0  0  0  0  0  0  0  0  0
    6.2934    8.6988   23.1988 O   0  0  0  0  0  0  0  0  0  0  0  0
    7.9806    8.6543   20.5437 C   0  0  0  0  0  0  0  0  0  0  0  0
   13.7270    5.7144   19.8610 O   0  0  0  0  0  0  0  0  0  0  0  0
    8.3351    5.5235   15.4478 C   0  0  0  0  0  0  0  0  0  0  0  0
    8.7700    7.8434   21.3915 C   0  0  0  0  0  0  0  0  0  0  0  0
   11.7856    6.8851   19.2401 C   0  0  0  0  0  0  0  0  0  0  0  0
   10.5281    7.4276   19.5649 C   0  0  0  0  0  0  0  0  0  0  0  0
   10.0256    7.2907   20.8484 C   0  0  0  0  0  0  0  0  0  0  0  0
    9.3113    5.3049   14.4911 C   0  0  0  0  0  0  0  0  0  0  0  0
    9.4607    7.5646   16.0139 C   0  0  0  0  0  0  0  0  0  0  0  0
   10.4192    7.3157   15.0955 C   0  0  0  0  0  0  0  0  0  0  0  0
   10.2489    6.4227   23.0218 N   0  0  0  0  0  0  0  0  0  0  0  0
    7.2472    8.0746   23.5050 C   0  0  0  0  0  0  0  0  0  0  0  0
    9.2051    6.9101   23.4604 C   0  0  0  0  0  0  0  0  0  0  0  0
   11.9646    6.0299   21.4251 C   0  0  0  0  0  0  0  0  0  0  0  0
  1  5  1  0
  1 13  1  0
  2 20  2  0
  2 28  1  0
  2 29  1  0
  3 19  4  0
  3 25  4  0
  4 23  4  0
  4 27  1  0
  4 30  4  0
  5 17  1  0
  6  8  1  0
  6 29  1  0
  7 24  4  0
  7 26  4  0
  8 28  1  0
  9 13  2  0
 10 18  1  0
 10 21  4  0
 10 30  4  0
 11 17  2  0
 12 18  1  0
 13 15  1  0
 14 24  1  0
 15 25  1  0
 16 28  2  0
 17 20  1  0
 19 24  4  0
 20 23  1  0
 21 22  4  0
 22 23  4  0
 25 26  4  0
 27 29  2  0
M  END
$$$$

 Created by Python create_sdf_string function

 30 33  0  0  0  0  0  0  0  0999 V2000
    8.3036    9.8571   18.4133 C   0  0  0  0  0  0  0  0  0  0  0  0
    8.3694    7.6612   22.6703 C   0  0  0  0  0  0  0  0  0  0  0  0
    8.4143    6.6863   16.2273 C   0  0  0  0  0  0  0  0  0  0  0  0
   10.7581    6.5674   21.7636 C   0  0  0  0  0  0  0  0  0  0  0  0
    8.4452    8.7960   19.2958 O   0  0  0  0  0  0  0  0  0  0  0  0
    8.7122    6.7842   24.8569 C   0  0  0  0  0  0  0  0  0  0  0  0
   10.3400    6.1726   14.3081 C   0  0  0  0  0  0  0  0  0  0  0  0
    7.4297    7.5873   24.8962 C   0  0  0  0  0  0  0  0  0  0  0  0
    8.1566   10.0536   16.0516 O   0  0  0  0  0  0  0  0  0  0  0  0
   12.4989    6.2074   20.1776 C   0  0  0  0  0  0  0  0  0  0  0  0
    6.9192    9.1053   20.9073 O   0  0  0  0  0  0  0  0  0  0  0  0
   14.3979    6.0729   18.7784 C   0  0  0  0  0  0  0  0  0  0  0  0
    8.6811    9.5354   16.9998 C   0  0  0  0  0  0  0  0  0  0  0  0
    9.2512    4.2713   13.7653 O   0  0  0  0  0  0  0  0  0  0  0  0
    9.6495    8.6317   16.8332 N   0  0  0  0  0  0  0  0  0  0  0  0
    6.2934    8.6988   23.1988 O   0  0  0  0  0  0  0  0  0  0  0  0
    7.9806    8.6543   20.5437 C   0  0  0  0  0  0  0  0  0  0  0  0
   13.7270    5.7144   19.8610 O   0  0  0  0  0  0  0  0  0  0  0  0
    8.3351    5.5235   15.4478 C   0  0  0  0  0  0  0  0  0  0  0  0
    8.7700    7.8434   21.3915 C   0  0  0  0  0  0  0  0  0  0  0  0
   11.7856    6.8851   19.2401 C   0  0  0  0  0  0  0  0  0  0  0  0
   10.5281    7.4276   19.5649 C   0  0  0  0  0  0  0  0  0  0  0  0
   10.0256    7.2907   20.8484 C   0  0  0  0  0  0  0  0  0  0  0  0
    9.3113    5.3049   14.4911 C   0  0  0  0  0  0  0  0  0  0  0  0
    9.4607    7.5646   16.0139 C   0  0  0  0  0  0  0  0  0  0  0  0
   10.4192    7.3157   15.0955 C   0  0  0  0  0  0  0  0  0  0  0  0
   10.2489    6.4227   23.0218 N   0  0  0  0  0  0  0  0  0  0  0  0
    7.2472    8.0746   23.5050 C   0  0  0  0  0  0  0  0  0  0  0  0
    9.2051    6.9101   23.4604 C   0  0  0  0  0  0  0  0  0  0  0  0
   11.9646    6.0299   21.4251 C   0  0  0  0  0  0  0  0  0  0  0  0
  1  5  1  0
  1 13  1  0
  2 20  2  0
  2 28  1  0
  2 29  1  0
  3 19  4  0
  3 25  4  0
  4 23  4  0
  4 27  1  0
  4 30  4  0
  5 17  1  0
  6  8  1  0
  6 29  1  0
  7 24  4  0
  7 26  4  0
  8 28  1  0
  9 13  2  0
 10 18  1  0
 10 21  4  0
 10 30  4  0
 11 17  2  0
 12 18  1  0
 13 15  1  0
 14 24  1  0
 15 25  1  0
 16 28  2  0
 17 20  1  0
 19 24  4  0
 20 23  1  0
 21 22  4  0
 22 23  4  0
 25 26  4  0
 27 29  2  0
M  END
$$$$

 Created by Python create_sdf_string function

 30 33  0  0  0  0  0  0  0  0999 V2000
    8.3036    9.8571   18.4133 C   0  0  0  0  0  0  0  0  0  0  0  0
    8.3694    7.6612   22.6703 C   0  0  0  0  0  0  0  0  0  0  0  0
    8.4143    6.6863   16.2273 C   0  0  0  0  0  0  0  0  0  0  0  0
   10.7581    6.5674   21.7636 C   0  0  0  0  0  0  0  0  0  0  0  0
    8.4452    8.7960   19.2958 O   0  0  0  0  0  0  0  0  0  0  0  0
    8.7122    6.7842   24.8569 C   0  0  0  0  0  0  0  0  0  0  0  0
   10.3400    6.1726   14.3081 C   0  0  0  0  0  0  0  0  0  0  0  0
    7.4297    7.5873   24.8962 C   0  0  0  0  0  0  0  0  0  0  0  0
    8.1566   10.0536   16.0516 O   0  0  0  0  0  0  0  0  0  0  0  0
   12.4989    6.2074   20.1776 C   0  0  0  0  0  0  0  0  0  0  0  0
    6.9192    9.1053   20.9073 O   0  0  0  0  0  0  0  0  0  0  0  0
   14.3979    6.0729   18.7784 C   0  0  0  0  0  0  0  0  0  0  0  0
    8.6811    9.5354   16.9998 C   0  0  0  0  0  0  0  0  0  0  0  0
    9.2512    4.2713   13.7653 O   0  0  0  0  0  0  0  0  0  0  0  0
    9.6495    8.6317   16.8332 N   0  0  0  0  0  0  0  0  0  0  0  0
    6.2934    8.6988   23.1988 O   0  0  0  0  0  0  0  0  0  0  0  0
    7.9806    8.6543   20.5437 C   0  0  0  0  0  0  0  0  0  0  0  0
   13.7270    5.7144   19.8610 O   0  0  0  0  0  0  0  0  0  0  0  0
    8.3351    5.5235   15.4478 C   0  0  0  0  0  0  0  0  0  0  0  0
    8.7700    7.8434   21.3915 C   0  0  0  0  0  0  0  0  0  0  0  0
   11.7856    6.8851   19.2401 C   0  0  0  0  0  0  0  0  0  0  0  0
   10.5281    7.4276   19.5649 C   0  0  0  0  0  0  0  0  0  0  0  0
   10.0256    7.2907   20.8484 C   0  0  0  0  0  0  0  0  0  0  0  0
    9.3113    5.3049   14.4911 C   0  0  0  0  0  0  0  0  0  0  0  0
    9.4607    7.5646   16.0139 C   0  0  0  0  0  0  0  0  0  0  0  0
   10.4192    7.3157   15.0955 C   0  0  0  0  0  0  0  0  0  0  0  0
   10.2489    6.4227   23.0218 N   0  0  0  0  0  0  0  0  0  0  0  0
    7.2472    8.0746   23.5050 C   0  0  0  0  0  0  0  0  0  0  0  0
    9.2051    6.9101   23.4604 C   0  0  0  0  0  0  0  0  0  0  0  0
   11.9646    6.0299   21.4251 C   0  0  0  0  0  0  0  0  0  0  0  0
  1  5  1  0
  1 13  1  0
  2 20  2  0
  2 28  1  0
  2 29  1  0
  3 19  4  0
  3 25  4  0
  4 23  4  0
  4 27  1  0
  4 30  4  0
  5 17  1  0
  6  8  1  0
  6 29  1  0
  7 24  4  0
  7 26  4  0
  8 28  1  0
  9 13  2  0
 10 18  1  0
 10 21  4  0
 10 30  4  0
 11 17  2  0
 12 18  1  0
 13 15  1  0
 14 24  1  0
 15 25  1  0
 16 28  2  0
 17 20  1  0
 19 24  4  0
 20 23  1  0
 21 22  4  0
 22 23  4  0
 25 26  4  0
 27 29  2  0
M  END
$$$$

 Created by Python create_sdf_string function

 30 33  0  0  0  0  0  0  0  0999 V2000
    8.3036    9.8571   18.4133 C   0  0  0  0  0  0  0  0  0  0  0  0
    8.3694    7.6612   22.6703 C   0  0  0  0  0  0  0  0  0  0  0  0
    8.4143    6.6863   16.2273 C   0  0  0  0  0  0  0  0  0  0  0  0
   10.7581    6.5674   21.7636 C   0  0  0  0  0  0  0  0  0  0  0  0
    8.4452    8.7960   19.2958 O   0  0  0  0  0  0  0  0  0  0  0  0
    8.7122    6.7842   24.8569 C   0  0  0  0  0  0  0  0  0  0  0  0
   10.3400    6.1726   14.3081 C   0  0  0  0  0  0  0  0  0  0  0  0
    7.4297    7.5873   24.8962 C   0  0  0  0  0  0  0  0  0  0  0  0
    8.1566   10.0536   16.0516 O   0  0  0  0  0  0  0  0  0  0  0  0
   12.4989    6.2074   20.1776 C   0  0  0  0  0  0  0  0  0  0  0  0
    6.9192    9.1053   20.9073 O   0  0  0  0  0  0  0  0  0  0  0  0
   14.3979    6.0729   18.7784 C   0  0  0  0  0  0  0  0  0  0  0  0
    8.6811    9.5354   16.9998 C   0  0  0  0  0  0  0  0  0  0  0  0
    9.2512    4.2713   13.7653 O   0  0  0  0  0  0  0  0  0  0  0  0
    9.6495    8.6317   16.8332 N   0  0  0  0  0  0  0  0  0  0  0  0
    6.2934    8.6988   23.1988 O   0  0  0  0  0  0  0  0  0  0  0  0
    7.9806    8.6543   20.5437 C   0  0  0  0  0  0  0  0  0  0  0  0
   13.7270    5.7144   19.8610 O   0  0  0  0  0  0  0  0  0  0  0  0
    8.3351    5.5235   15.4478 C   0  0  0  0  0  0  0  0  0  0  0  0
    8.7700    7.8434   21.3915 C   0  0  0  0  0  0  0  0  0  0  0  0
   11.7856    6.8851   19.2401 C   0  0  0  0  0  0  0  0  0  0  0  0
   10.5281    7.4276   19.5649 C   0  0  0  0  0  0  0  0  0  0  0  0
   10.0256    7.2907   20.8484 C   0  0  0  0  0  0  0  0  0  0  0  0
    9.3113    5.3049   14.4911 C   0  0  0  0  0  0  0  0  0  0  0  0
    9.4607    7.5646   16.0139 C   0  0  0  0  0  0  0  0  0  0  0  0
   10.4192    7.3157   15.0955 C   0  0  0  0  0  0  0  0  0  0  0  0
   10.2489    6.4227   23.0218 N   0  0  0  0  0  0  0  0  0  0  0  0
    7.2472    8.0746   23.5050 C   0  0  0  0  0  0  0  0  0  0  0  0
    9.2051    6.9101   23.4604 C   0  0  0  0  0  0  0  0  0  0  0  0
   11.9646    6.0299   21.4251 C   0  0  0  0  0  0  0  0  0  0  0  0
  1  5  1  0
  1 13  1  0
  2 20  2  0
  2 28  1  0
  2 29  1  0
  3 19  4  0
  3 25  4  0
  4 23  4  0
  4 27  1  0
  4 30  4  0
  5 17  1  0
  6  8  1  0
  6 29  1  0
  7 24  4  0
  7 26  4  0
  8 28  1  0
  9 13  2  0
 10 18  1  0
 10 21  4  0
 10 30  4  0
 11 17  2  0
 12 18  1  0
 13 15  1  0
 14 24  1  0
 15 25  1  0
 16 28  2  0
 17 20  1  0
 19 24  4  0
 20 23  1  0
 21 22  4  0
 22 23  4  0
 25 26  4  0
 27 29  2  0
M  END
$$$$

 Created by Python create_sdf_string function

 30 33  0  0  0  0  0  0  0  0999 V2000
    8.3036    9.8571   18.4133 C   0  0  0  0  0  0  0  0  0  0  0  0
    8.3694    7.6612   22.6703 C   0  0  0  0  0  0  0  0  0  0  0  0
    8.4143    6.6863   16.2273 C   0  0  0  0  0  0  0  0  0  0  0  0
   10.7581    6.5674   21.7636 C   0  0  0  0  0  0  0  0  0  0  0  0
    8.4452    8.7960   19.2958 O   0  0  0  0  0  0  0  0  0  0  0  0
    8.7122    6.7842   24.8569 C   0  0  0  0  0  0  0  0  0  0  0  0
   10.3400    6.1726   14.3081 C   0  0  0  0  0  0  0  0  0  0  0  0
    7.4297    7.5873   24.8962 C   0  0  0  0  0  0  0  0  0  0  0  0
    8.1566   10.0536   16.0516 O   0  0  0  0  0  0  0  0  0  0  0  0
   12.4989    6.2074   20.1776 C   0  0  0  0  0  0  0  0  0  0  0  0
    6.9192    9.1053   20.9073 O   0  0  0  0  0  0  0  0  0  0  0  0
   14.3979    6.0729   18.7784 C   0  0  0  0  0  0  0  0  0  0  0  0
    8.6811    9.5354   16.9998 C   0  0  0  0  0  0  0  0  0  0  0  0
    9.2512    4.2713   13.7653 O   0  0  0  0  0  0  0  0  0  0  0  0
    9.6495    8.6317   16.8332 N   0  0  0  0  0  0  0  0  0  0  0  0
    6.2934    8.6988   23.1988 O   0  0  0  0  0  0  0  0  0  0  0  0
    7.9806    8.6543   20.5437 C   0  0  0  0  0  0  0  0  0  0  0  0
   13.7270    5.7144   19.8610 O   0  0  0  0  0  0  0  0  0  0  0  0
    8.3351    5.5235   15.4478 C   0  0  0  0  0  0  0  0  0  0  0  0
    8.7700    7.8434   21.3915 C   0  0  0  0  0  0  0  0  0  0  0  0
   11.7856    6.8851   19.2401 C   0  0  0  0  0  0  0  0  0  0  0  0
   10.5281    7.4276   19.5649 C   0  0  0  0  0  0  0  0  0  0  0  0
   10.0256    7.2907   20.8484 C   0  0  0  0  0  0  0  0  0  0  0  0
    9.3113    5.3049   14.4911 C   0  0  0  0  0  0  0  0  0  0  0  0
    9.4607    7.5646   16.0139 C   0  0  0  0  0  0  0  0  0  0  0  0
   10.4192    7.3157   15.0955 C   0  0  0  0  0  0  0  0  0  0  0  0
   10.2489    6.4227   23.0218 N   0  0  0  0  0  0  0  0  0  0  0  0
    7.2472    8.0746   23.5050 C   0  0  0  0  0  0  0  0  0  0  0  0
    9.2051    6.9101   23.4604 C   0  0  0  0  0  0  0  0  0  0  0  0
   11.9646    6.0299   21.4251 C   0  0  0  0  0  0  0  0  0  0  0  0
  1  5  1  0
  1 13  1  0
  2 20  2  0
  2 28  1  0
  2 29  1  0
  3 19  4  0
  3 25  4  0
  4 23  4  0
  4 27  1  0
  4 30  4  0
  5 17  1  0
  6  8  1  0
  6 29  1  0
  7 24  4  0
  7 26  4  0
  8 28  1  0
  9 13  2  0
 10 18  1  0
 10 21  4  0
 10 30  4  0
 11 17  2  0
 12 18  1  0
 13 15  1  0
 14 24  1  0
 15 25  1  0
 16 28  2  0
 17 20  1  0
 19 24  4  0
 20 23  1  0
 21 22  4  0
 22 23  4  0
 25 26  4  0
 27 29  2  0
M  END
$$$$

 Created by Python create_sdf_string function

 30 33  0  0  0  0  0  0  0  0999 V2000
    8.3036    9.8571   18.4133 C   0  0  0  0  0  0  0  0  0  0  0  0
    8.3694    7.6612   22.6703 C   0  0  0  0  0  0  0  0  0  0  0  0
    8.4143    6.6863   16.2273 C   0  0  0  0  0  0  0  0  0  0  0  0
   10.7581    6.5674   21.7636 C   0  0  0  0  0  0  0  0  0  0  0  0
    8.4452    8.7960   19.2958 O   0  0  0  0  0  0  0  0  0  0  0  0
    8.7122    6.7842   24.8569 C   0  0  0  0  0  0  0  0  0  0  0  0
   10.3400    6.1726   14.3081 C   0  0  0  0  0  0  0  0  0  0  0  0
    7.4297    7.5873   24.8962 C   0  0  0  0  0  0  0  0  0  0  0  0
    8.1566   10.0536   16.0516 O   0  0  0  0  0  0  0  0  0  0  0  0
   12.4989    6.2074   20.1776 C   0  0  0  0  0  0  0  0  0  0  0  0
    6.9192    9.1053   20.9073 O   0  0  0  0  0  0  0  0  0  0  0  0
   14.3979    6.0729   18.7784 C   0  0  0  0  0  0  0  0  0  0  0  0
    8.6811    9.5354   16.9998 C   0  0  0  0  0  0  0  0  0  0  0  0
    9.2512    4.2713   13.7653 O   0  0  0  0  0  0  0  0  0  0  0  0
    9.6495    8.6317   16.8332 N   0  0  0  0  0  0  0  0  0  0  0  0
    6.2934    8.6988   23.1988 O   0  0  0  0  0  0  0  0  0  0  0  0
    7.9806    8.6543   20.5437 C   0  0  0  0  0  0  0  0  0  0  0  0
   13.7270    5.7144   19.8610 O   0  0  0  0  0  0  0  0  0  0  0  0
    8.3351    5.5235   15.4478 C   0  0  0  0  0  0  0  0  0  0  0  0
    8.7700    7.8434   21.3915 C   0  0  0  0  0  0  0  0  0  0  0  0
   11.7856    6.8851   19.2401 C   0  0  0  0  0  0  0  0  0  0  0  0
   10.5281    7.4276   19.5649 C   0  0  0  0  0  0  0  0  0  0  0  0
   10.0256    7.2907   20.8484 C   0  0  0  0  0  0  0  0  0  0  0  0
    9.3113    5.3049   14.4911 C   0  0  0  0  0  0  0  0  0  0  0  0
    9.4607    7.5646   16.0139 C   0  0  0  0  0  0  0  0  0  0  0  0
   10.4192    7.3157   15.0955 C   0  0  0  0  0  0  0  0  0  0  0  0
   10.2489    6.4227   23.0218 N   0  0  0  0  0  0  0  0  0  0  0  0
    7.2472    8.0746   23.5050 C   0  0  0  0  0  0  0  0  0  0  0  0
    9.2051    6.9101   23.4604 C   0  0  0  0  0  0  0  0  0  0  0  0
   11.9646    6.0299   21.4251 C   0  0  0  0  0  0  0  0  0  0  0  0
  1  5  1  0
  1 13  1  0
  2 20  2  0
  2 28  1  0
  2 29  1  0
  3 19  4  0
  3 25  4  0
  4 23  4  0
  4 27  1  0
  4 30  4  0
  5 17  1  0
  6  8  1  0
  6 29  1  0
  7 24  4  0
  7 26  4  0
  8 28  1  0
  9 13  2  0
 10 18  1  0
 10 21  4  0
 10 30  4  0
 11 17  2  0
 12 18  1  0
 13 15  1  0
 14 24  1  0
 15 25  1  0
 16 28  2  0
 17 20  1  0
 19 24  4  0
 20 23  1  0
 21 22  4  0
 22 23  4  0
 25 26  4  0
 27 29  2  0
M  END
$$$$

 Created by Python create_sdf_string function

 30 33  0  0  0  0  0  0  0  0999 V2000
    8.3036    9.8571   18.4133 C   0  0  0  0  0  0  0  0  0  0  0  0
    8.3694    7.6612   22.6703 C   0  0  0  0  0  0  0  0  0  0  0  0
    8.4143    6.6863   16.2273 C   0  0  0  0  0  0  0  0  0  0  0  0
   10.7581    6.5674   21.7636 C   0  0  0  0  0  0  0  0  0  0  0  0
    8.4452    8.7960   19.2958 O   0  0  0  0  0  0  0  0  0  0  0  0
    8.7122    6.7842   24.8569 C   0  0  0  0  0  0  0  0  0  0  0  0
   10.3400    6.1726   14.3081 C   0  0  0  0  0  0  0  0  0  0  0  0
    7.4297    7.5873   24.8962 C   0  0  0  0  0  0  0  0  0  0  0  0
    8.1566   10.0536   16.0516 O   0  0  0  0  0  0  0  0  0  0  0  0
   12.4989    6.2074   20.1776 C   0  0  0  0  0  0  0  0  0  0  0  0
    6.9192    9.1053   20.9073 O   0  0  0  0  0  0  0  0  0  0  0  0
   14.3979    6.0729   18.7784 C   0  0  0  0  0  0  0  0  0  0  0  0
    8.6811    9.5354   16.9998 C   0  0  0  0  0  0  0  0  0  0  0  0
    9.2512    4.2713   13.7653 O   0  0  0  0  0  0  0  0  0  0  0  0
    9.6495    8.6317   16.8332 N   0  0  0  0  0  0  0  0  0  0  0  0
    6.2934    8.6988   23.1988 O   0  0  0  0  0  0  0  0  0  0  0  0
    7.9806    8.6543   20.5437 C   0  0  0  0  0  0  0  0  0  0  0  0
   13.7270    5.7144   19.8610 O   0  0  0  0  0  0  0  0  0  0  0  0
    8.3351    5.5235   15.4478 C   0  0  0  0  0  0  0  0  0  0  0  0
    8.7700    7.8434   21.3915 C   0  0  0  0  0  0  0  0  0  0  0  0
   11.7856    6.8851   19.2401 C   0  0  0  0  0  0  0  0  0  0  0  0
   10.5281    7.4276   19.5649 C   0  0  0  0  0  0  0  0  0  0  0  0
   10.0256    7.2907   20.8484 C   0  0  0  0  0  0  0  0  0  0  0  0
    9.3113    5.3049   14.4911 C   0  0  0  0  0  0  0  0  0  0  0  0
    9.4607    7.5646   16.0139 C   0  0  0  0  0  0  0  0  0  0  0  0
   10.4192    7.3157   15.0955 C   0  0  0  0  0  0  0  0  0  0  0  0
   10.2489    6.4227   23.0218 N   0  0  0  0  0  0  0  0  0  0  0  0
    7.2472    8.0746   23.5050 C   0  0  0  0  0  0  0  0  0  0  0  0
    9.2051    6.9101   23.4604 C   0  0  0  0  0  0  0  0  0  0  0  0
   11.9646    6.0299   21.4251 C   0  0  0  0  0  0  0  0  0  0  0  0
  1  5  1  0
  1 13  1  0
  2 20  2  0
  2 28  1  0
  2 29  1  0
  3 19  4  0
  3 25  4  0
  4 23  4  0
  4 27  1  0
  4 30  4  0
  5 17  1  0
  6  8  1  0
  6 29  1  0
  7 24  4  0
  7 26  4  0
  8 28  1  0
  9 13  2  0
 10 18  1  0
 10 21  4  0
 10 30  4  0
 11 17  2  0
 12 18  1  0
 13 15  1  0
 14 24  1  0
 15 25  1  0
 16 28  2  0
 17 20  1  0
 19 24  4  0
 20 23  1  0
 21 22  4  0
 22 23  4  0
 25 26  4  0
 27 29  2  0
M  END
$$$$

 Created by Python create_sdf_string function

 30 33  0  0  0  0  0  0  0  0999 V2000
    8.3036    9.8571   18.4133 C   0  0  0  0  0  0  0  0  0  0  0  0
    8.3694    7.6612   22.6703 C   0  0  0  0  0  0  0  0  0  0  0  0
    8.4143    6.6863   16.2273 C   0  0  0  0  0  0  0  0  0  0  0  0
   10.7581    6.5674   21.7636 C   0  0  0  0  0  0  0  0  0  0  0  0
    8.4452    8.7960   19.2958 O   0  0  0  0  0  0  0  0  0  0  0  0
    8.7122    6.7842   24.8569 C   0  0  0  0  0  0  0  0  0  0  0  0
   10.3400    6.1726   14.3081 C   0  0  0  0  0  0  0  0  0  0  0  0
    7.4297    7.5873   24.8962 C   0  0  0  0  0  0  0  0  0  0  0  0
    8.1566   10.0536   16.0516 O   0  0  0  0  0  0  0  0  0  0  0  0
   12.4989    6.2074   20.1776 C   0  0  0  0  0  0  0  0  0  0  0  0
    6.9192    9.1053   20.9073 O   0  0  0  0  0  0  0  0  0  0  0  0
   14.3979    6.0729   18.7784 C   0  0  0  0  0  0  0  0  0  0  0  0
    8.6811    9.5354   16.9998 C   0  0  0  0  0  0  0  0  0  0  0  0
    9.2512    4.2713   13.7653 O   0  0  0  0  0  0  0  0  0  0  0  0
    9.6495    8.6317   16.8332 N   0  0  0  0  0  0  0  0  0  0  0  0
    6.2934    8.6988   23.1988 O   0  0  0  0  0  0  0  0  0  0  0  0
    7.9806    8.6543   20.5437 C   0  0  0  0  0  0  0  0  0  0  0  0
   13.7270    5.7144   19.8610 O   0  0  0  0  0  0  0  0  0  0  0  0
    8.3351    5.5235   15.4478 C   0  0  0  0  0  0  0  0  0  0  0  0
    8.7700    7.8434   21.3915 C   0  0  0  0  0  0  0  0  0  0  0  0
   11.7856    6.8851   19.2401 C   0  0  0  0  0  0  0  0  0  0  0  0
   10.5281    7.4276   19.5649 C   0  0  0  0  0  0  0  0  0  0  0  0
   10.0256    7.2907   20.8484 C   0  0  0  0  0  0  0  0  0  0  0  0
    9.3113    5.3049   14.4911 C   0  0  0  0  0  0  0  0  0  0  0  0
    9.4607    7.5646   16.0139 C   0  0  0  0  0  0  0  0  0  0  0  0
   10.4192    7.3157   15.0955 C   0  0  0  0  0  0  0  0  0  0  0  0
   10.2489    6.4227   23.0218 N   0  0  0  0  0  0  0  0  0  0  0  0
    7.2472    8.0746   23.5050 C   0  0  0  0  0  0  0  0  0  0  0  0
    9.2051    6.9101   23.4604 C   0  0  0  0  0  0  0  0  0  0  0  0
   11.9646    6.0299   21.4251 C   0  0  0  0  0  0  0  0  0  0  0  0
  1  5  1  0
  1 13  1  0
  2 20  2  0
  2 28  1  0
  2 29  1  0
  3 19  4  0
  3 25  4  0
  4 23  4  0
  4 27  1  0
  4 30  4  0
  5 17  1  0
  6  8  1  0
  6 29  1  0
  7 24  4  0
  7 26  4  0
  8 28  1  0
  9 13  2  0
 10 18  1  0
 10 21  4  0
 10 30  4  0
 11 17  2  0
 12 18  1  0
 13 15  1  0
 14 24  1  0
 15 25  1  0
 16 28  2  0
 17 20  1  0
 19 24  4  0
 20 23  1  0
 21 22  4  0
 22 23  4  0
 25 26  4  0
 27 29  2  0
M  END
$$$$

 Created by Python create_sdf_string function

 30 33  0  0  0  0  0  0  0  0999 V2000
    8.3036    9.8571   18.4133 C   0  0  0  0  0  0  0  0  0  0  0  0
    8.3694    7.6612   22.6703 C   0  0  0  0  0  0  0  0  0  0  0  0
    8.4143    6.6863   16.2273 C   0  0  0  0  0  0  0  0  0  0  0  0
   10.7581    6.5674   21.7636 C   0  0  0  0  0  0  0  0  0  0  0  0
    8.4452    8.7960   19.2958 O   0  0  0  0  0  0  0  0  0  0  0  0
    8.7122    6.7842   24.8569 C   0  0  0  0  0  0  0  0  0  0  0  0
   10.3400    6.1726   14.3081 C   0  0  0  0  0  0  0  0  0  0  0  0
    7.4297    7.5873   24.8962 C   0  0  0  0  0  0  0  0  0  0  0  0
    8.1566   10.0536   16.0516 O   0  0  0  0  0  0  0  0  0  0  0  0
   12.4989    6.2074   20.1776 C   0  0  0  0  0  0  0  0  0  0  0  0
    6.9192    9.1053   20.9073 O   0  0  0  0  0  0  0  0  0  0  0  0
   14.3979    6.0729   18.7784 C   0  0  0  0  0  0  0  0  0  0  0  0
    8.6811    9.5354   16.9998 C   0  0  0  0  0  0  0  0  0  0  0  0
    9.2512    4.2713   13.7653 O   0  0  0  0  0  0  0  0  0  0  0  0
    9.6495    8.6317   16.8332 N   0  0  0  0  0  0  0  0  0  0  0  0
    6.2934    8.6988   23.1988 O   0  0  0  0  0  0  0  0  0  0  0  0
    7.9806    8.6543   20.5437 C   0  0  0  0  0  0  0  0  0  0  0  0
   13.7270    5.7144   19.8610 O   0  0  0  0  0  0  0  0  0  0  0  0
    8.3351    5.5235   15.4478 C   0  0  0  0  0  0  0  0  0  0  0  0
    8.7700    7.8434   21.3915 C   0  0  0  0  0  0  0  0  0  0  0  0
   11.7856    6.8851   19.2401 C   0  0  0  0  0  0  0  0  0  0  0  0
   10.5281    7.4276   19.5649 C   0  0  0  0  0  0  0  0  0  0  0  0
   10.0256    7.2907   20.8484 C   0  0  0  0  0  0  0  0  0  0  0  0
    9.3113    5.3049   14.4911 C   0  0  0  0  0  0  0  0  0  0  0  0
    9.4607    7.5646   16.0139 C   0  0  0  0  0  0  0  0  0  0  0  0
   10.4192    7.3157   15.0955 C   0  0  0  0  0  0  0  0  0  0  0  0
   10.2489    6.4227   23.0218 N   0  0  0  0  0  0  0  0  0  0  0  0
    7.2472    8.0746   23.5050 C   0  0  0  0  0  0  0  0  0  0  0  0
    9.2051    6.9101   23.4604 C   0  0  0  0  0  0  0  0  0  0  0  0
   11.9646    6.0299   21.4251 C   0  0  0  0  0  0  0  0  0  0  0  0
  1  5  1  0
  1 13  1  0
  2 20  2  0
  2 28  1  0
  2 29  1  0
  3 19  4  0
  3 25  4  0
  4 23  4  0
  4 27  1  0
  4 30  4  0
  5 17  1  0
  6  8  1  0
  6 29  1  0
  7 24  4  0
  7 26  4  0
  8 28  1  0
  9 13  2  0
 10 18  1  0
 10 21  4  0
 10 30  4  0
 11 17  2  0
 12 18  1  0
 13 15  1  0
 14 24  1  0
 15 25  1  0
 16 28  2  0
 17 20  1  0
 19 24  4  0
 20 23  1  0
 21 22  4  0
 22 23  4  0
 25 26  4  0
 27 29  2  0
M  END
$$$$

 Created by Python create_sdf_string function

 30 33  0  0  0  0  0  0  0  0999 V2000
    8.3036    9.8571   18.4133 C   0  0  0  0  0  0  0  0  0  0  0  0
    8.3694    7.6612   22.6703 C   0  0  0  0  0  0  0  0  0  0  0  0
    8.4143    6.6863   16.2273 C   0  0  0  0  0  0  0  0  0  0  0  0
   10.7581    6.5674   21.7636 C   0  0  0  0  0  0  0  0  0  0  0  0
    8.4452    8.7960   19.2958 O   0  0  0  0  0  0  0  0  0  0  0  0
    8.7122    6.7842   24.8569 C   0  0  0  0  0  0  0  0  0  0  0  0
   10.3400    6.1726   14.3081 C   0  0  0  0  0  0  0  0  0  0  0  0
    7.4297    7.5873   24.8962 C   0  0  0  0  0  0  0  0  0  0  0  0
    8.1566   10.0536   16.0516 O   0  0  0  0  0  0  0  0  0  0  0  0
   12.4989    6.2074   20.1776 C   0  0  0  0  0  0  0  0  0  0  0  0
    6.9192    9.1053   20.9073 O   0  0  0  0  0  0  0  0  0  0  0  0
   14.3979    6.0729   18.7784 C   0  0  0  0  0  0  0  0  0  0  0  0
    8.6811    9.5354   16.9998 C   0  0  0  0  0  0  0  0  0  0  0  0
    9.2512    4.2713   13.7653 O   0  0  0  0  0  0  0  0  0  0  0  0
    9.6495    8.6317   16.8332 N   0  0  0  0  0  0  0  0  0  0  0  0
    6.2934    8.6988   23.1988 O   0  0  0  0  0  0  0  0  0  0  0  0
    7.9806    8.6543   20.5437 C   0  0  0  0  0  0  0  0  0  0  0  0
   13.7270    5.7144   19.8610 O   0  0  0  0  0  0  0  0  0  0  0  0
    8.3351    5.5235   15.4478 C   0  0  0  0  0  0  0  0  0  0  0  0
    8.7700    7.8434   21.3915 C   0  0  0  0  0  0  0  0  0  0  0  0
   11.7856    6.8851   19.2401 C   0  0  0  0  0  0  0  0  0  0  0  0
   10.5281    7.4276   19.5649 C   0  0  0  0  0  0  0  0  0  0  0  0
   10.0256    7.2907   20.8484 C   0  0  0  0  0  0  0  0  0  0  0  0
    9.3113    5.3049   14.4911 C   0  0  0  0  0  0  0  0  0  0  0  0
    9.4607    7.5646   16.0139 C   0  0  0  0  0  0  0  0  0  0  0  0
   10.4192    7.3157   15.0955 C   0  0  0  0  0  0  0  0  0  0  0  0
   10.2489    6.4227   23.0218 N   0  0  0  0  0  0  0  0  0  0  0  0
    7.2472    8.0746   23.5050 C   0  0  0  0  0  0  0  0  0  0  0  0
    9.2051    6.9101   23.4604 C   0  0  0  0  0  0  0  0  0  0  0  0
   11.9646    6.0299   21.4251 C   0  0  0  0  0  0  0  0  0  0  0  0
  1  5  1  0
  1 13  1  0
  2 20  2  0
  2 28  1  0
  2 29  1  0
  3 19  4  0
  3 25  4  0
  4 23  4  0
  4 27  1  0
  4 30  4  0
  5 17  1  0
  6  8  1  0
  6 29  1  0
  7 24  4  0
  7 26  4  0
  8 28  1  0
  9 13  2  0
 10 18  1  0
 10 21  4  0
 10 30  4  0
 11 17  2  0
 12 18  1  0
 13 15  1  0
 14 24  1  0
 15 25  1  0
 16 28  2  0
 17 20  1  0
 19 24  4  0
 20 23  1  0
 21 22  4  0
 22 23  4  0
 25 26  4  0
 27 29  2  0
M  END
$$$$

 Created by Python create_sdf_string function

 30 33  0  0  0  0  0  0  0  0999 V2000
    8.3036    9.8571   18.4133 C   0  0  0  0  0  0  0  0  0  0  0  0
    8.3694    7.6612   22.6703 C   0  0  0  0  0  0  0  0  0  0  0  0
    8.4143    6.6863   16.2273 C   0  0  0  0  0  0  0  0  0  0  0  0
   10.7581    6.5674   21.7636 C   0  0  0  0  0  0  0  0  0  0  0  0
    8.4452    8.7960   19.2958 O   0  0  0  0  0  0  0  0  0  0  0  0
    8.7122    6.7842   24.8569 C   0  0  0  0  0  0  0  0  0  0  0  0
   10.3400    6.1726   14.3081 C   0  0  0  0  0  0  0  0  0  0  0  0
    7.4297    7.5873   24.8962 C   0  0  0  0  0  0  0  0  0  0  0  0
    8.1566   10.0536   16.0516 O   0  0  0  0  0  0  0  0  0  0  0  0
   12.4989    6.2074   20.1776 C   0  0  0  0  0  0  0  0  0  0  0  0
    6.9192    9.1053   20.9073 O   0  0  0  0  0  0  0  0  0  0  0  0
   14.3979    6.0729   18.7784 C   0  0  0  0  0  0  0  0  0  0  0  0
    8.6811    9.5354   16.9998 C   0  0  0  0  0  0  0  0  0  0  0  0
    9.2512    4.2713   13.7653 O   0  0  0  0  0  0  0  0  0  0  0  0
    9.6495    8.6317   16.8332 N   0  0  0  0  0  0  0  0  0  0  0  0
    6.2934    8.6988   23.1988 O   0  0  0  0  0  0  0  0  0  0  0  0
    7.9806    8.6543   20.5437 C   0  0  0  0  0  0  0  0  0  0  0  0
   13.7270    5.7144   19.8610 O   0  0  0  0  0  0  0  0  0  0  0  0
    8.3351    5.5235   15.4478 C   0  0  0  0  0  0  0  0  0  0  0  0
    8.7700    7.8434   21.3915 C   0  0  0  0  0  0  0  0  0  0  0  0
   11.7856    6.8851   19.2401 C   0  0  0  0  0  0  0  0  0  0  0  0
   10.5281    7.4276   19.5649 C   0  0  0  0  0  0  0  0  0  0  0  0
   10.0256    7.2907   20.8484 C   0  0  0  0  0  0  0  0  0  0  0  0
    9.3113    5.3049   14.4911 C   0  0  0  0  0  0  0  0  0  0  0  0
    9.4607    7.5646   16.0139 C   0  0  0  0  0  0  0  0  0  0  0  0
   10.4192    7.3157   15.0955 C   0  0  0  0  0  0  0  0  0  0  0  0
   10.2489    6.4227   23.0218 N   0  0  0  0  0  0  0  0  0  0  0  0
    7.2472    8.0746   23.5050 C   0  0  0  0  0  0  0  0  0  0  0  0
    9.2051    6.9101   23.4604 C   0  0  0  0  0  0  0  0  0  0  0  0
   11.9646    6.0299   21.4251 C   0  0  0  0  0  0  0  0  0  0  0  0
  1  5  1  0
  1 13  1  0
  2 20  2  0
  2 28  1  0
  2 29  1  0
  3 19  4  0
  3 25  4  0
  4 23  4  0
  4 27  1  0
  4 30  4  0
  5 17  1  0
  6  8  1  0
  6 29  1  0
  7 24  4  0
  7 26  4  0
  8 28  1  0
  9 13  2  0
 10 18  1  0
 10 21  4  0
 10 30  4  0
 11 17  2  0
 12 18  1  0
 13 15  1  0
 14 24  1  0
 15 25  1  0
 16 28  2  0
 17 20  1  0
 19 24  4  0
 20 23  1  0
 21 22  4  0
 22 23  4  0
 25 26  4  0
 27 29  2  0
M  END
$$$$

 Created by Python create_sdf_string function

 30 33  0  0  0  0  0  0  0  0999 V2000
    8.3036    9.8571   18.4133 C   0  0  0  0  0  0  0  0  0  0  0  0
    8.3694    7.6612   22.6703 C   0  0  0  0  0  0  0  0  0  0  0  0
    8.4143    6.6863   16.2273 C   0  0  0  0  0  0  0  0  0  0  0  0
   10.7581    6.5674   21.7636 C   0  0  0  0  0  0  0  0  0  0  0  0
    8.4452    8.7960   19.2958 O   0  0  0  0  0  0  0  0  0  0  0  0
    8.7122    6.7842   24.8569 C   0  0  0  0  0  0  0  0  0  0  0  0
   10.3400    6.1726   14.3081 C   0  0  0  0  0  0  0  0  0  0  0  0
    7.4297    7.5873   24.8962 C   0  0  0  0  0  0  0  0  0  0  0  0
    8.1566   10.0536   16.0516 O   0  0  0  0  0  0  0  0  0  0  0  0
   12.4989    6.2074   20.1776 C   0  0  0  0  0  0  0  0  0  0  0  0
    6.9192    9.1053   20.9073 O   0  0  0  0  0  0  0  0  0  0  0  0
   14.3979    6.0729   18.7784 C   0  0  0  0  0  0  0  0  0  0  0  0
    8.6811    9.5354   16.9998 C   0  0  0  0  0  0  0  0  0  0  0  0
    9.2512    4.2713   13.7653 O   0  0  0  0  0  0  0  0  0  0  0  0
    9.6495    8.6317   16.8332 N   0  0  0  0  0  0  0  0  0  0  0  0
    6.2934    8.6988   23.1988 O   0  0  0  0  0  0  0  0  0  0  0  0
    7.9806    8.6543   20.5437 C   0  0  0  0  0  0  0  0  0  0  0  0
   13.7270    5.7144   19.8610 O   0  0  0  0  0  0  0  0  0  0  0  0
    8.3351    5.5235   15.4478 C   0  0  0  0  0  0  0  0  0  0  0  0
    8.7700    7.8434   21.3915 C   0  0  0  0  0  0  0  0  0  0  0  0
   11.7856    6.8851   19.2401 C   0  0  0  0  0  0  0  0  0  0  0  0
   10.5281    7.4276   19.5649 C   0  0  0  0  0  0  0  0  0  0  0  0
   10.0256    7.2907   20.8484 C   0  0  0  0  0  0  0  0  0  0  0  0
    9.3113    5.3049   14.4911 C   0  0  0  0  0  0  0  0  0  0  0  0
    9.4607    7.5646   16.0139 C   0  0  0  0  0  0  0  0  0  0  0  0
   10.4192    7.3157   15.0955 C   0  0  0  0  0  0  0  0  0  0  0  0
   10.2489    6.4227   23.0218 N   0  0  0  0  0  0  0  0  0  0  0  0
    7.2472    8.0746   23.5050 C   0  0  0  0  0  0  0  0  0  0  0  0
    9.2051    6.9101   23.4604 C   0  0  0  0  0  0  0  0  0  0  0  0
   11.9646    6.0299   21.4251 C   0  0  0  0  0  0  0  0  0  0  0  0
  1  5  1  0
  1 13  1  0
  2 20  2  0
  2 28  1  0
  2 29  1  0
  3 19  4  0
  3 25  4  0
  4 23  4  0
  4 27  1  0
  4 30  4  0
  5 17  1  0
  6  8  1  0
  6 29  1  0
  7 24  4  0
  7 26  4  0
  8 28  1  0
  9 13  2  0
 10 18  1  0
 10 21  4  0
 10 30  4  0
 11 17  2  0
 12 18  1  0
 13 15  1  0
 14 24  1  0
 15 25  1  0
 16 28  2  0
 17 20  1  0
 19 24  4  0
 20 23  1  0
 21 22  4  0
 22 23  4  0
 25 26  4  0
 27 29  2  0
M  END
$$$$

 Created by Python create_sdf_string function

 30 33  0  0  0  0  0  0  0  0999 V2000
    8.3036    9.8571   18.4133 C   0  0  0  0  0  0  0  0  0  0  0  0
    8.3694    7.6612   22.6703 C   0  0  0  0  0  0  0  0  0  0  0  0
    8.4143    6.6863   16.2273 C   0  0  0  0  0  0  0  0  0  0  0  0
   10.7581    6.5674   21.7636 C   0  0  0  0  0  0  0  0  0  0  0  0
    8.4452    8.7960   19.2958 O   0  0  0  0  0  0  0  0  0  0  0  0
    8.7122    6.7842   24.8569 C   0  0  0  0  0  0  0  0  0  0  0  0
   10.3400    6.1726   14.3081 C   0  0  0  0  0  0  0  0  0  0  0  0
    7.4297    7.5873   24.8962 C   0  0  0  0  0  0  0  0  0  0  0  0
    8.1566   10.0536   16.0516 O   0  0  0  0  0  0  0  0  0  0  0  0
   12.4989    6.2074   20.1776 C   0  0  0  0  0  0  0  0  0  0  0  0
    6.9192    9.1053   20.9073 O   0  0  0  0  0  0  0  0  0  0  0  0
   14.3979    6.0729   18.7784 C   0  0  0  0  0  0  0  0  0  0  0  0
    8.6811    9.5354   16.9998 C   0  0  0  0  0  0  0  0  0  0  0  0
    9.2512    4.2713   13.7653 O   0  0  0  0  0  0  0  0  0  0  0  0
    9.6495    8.6317   16.8332 N   0  0  0  0  0  0  0  0  0  0  0  0
    6.2934    8.6988   23.1988 O   0  0  0  0  0  0  0  0  0  0  0  0
    7.9806    8.6543   20.5437 C   0  0  0  0  0  0  0  0  0  0  0  0
   13.7270    5.7144   19.8610 O   0  0  0  0  0  0  0  0  0  0  0  0
    8.3351    5.5235   15.4478 C   0  0  0  0  0  0  0  0  0  0  0  0
    8.7700    7.8434   21.3915 C   0  0  0  0  0  0  0  0  0  0  0  0
   11.7856    6.8851   19.2401 C   0  0  0  0  0  0  0  0  0  0  0  0
   10.5281    7.4276   19.5649 C   0  0  0  0  0  0  0  0  0  0  0  0
   10.0256    7.2907   20.8484 C   0  0  0  0  0  0  0  0  0  0  0  0
    9.3113    5.3049   14.4911 C   0  0  0  0  0  0  0  0  0  0  0  0
    9.4607    7.5646   16.0139 C   0  0  0  0  0  0  0  0  0  0  0  0
   10.4192    7.3157   15.0955 C   0  0  0  0  0  0  0  0  0  0  0  0
   10.2489    6.4227   23.0218 N   0  0  0  0  0  0  0  0  0  0  0  0
    7.2472    8.0746   23.5050 C   0  0  0  0  0  0  0  0  0  0  0  0
    9.2051    6.9101   23.4604 C   0  0  0  0  0  0  0  0  0  0  0  0
   11.9646    6.0299   21.4251 C   0  0  0  0  0  0  0  0  0  0  0  0
  1  5  1  0
  1 13  1  0
  2 20  2  0
  2 28  1  0
  2 29  1  0
  3 19  4  0
  3 25  4  0
  4 23  4  0
  4 27  1  0
  4 30  4  0
  5 17  1  0
  6  8  1  0
  6 29  1  0
  7 24  4  0
  7 26  4  0
  8 28  1  0
  9 13  2  0
 10 18  1  0
 10 21  4  0
 10 30  4  0
 11 17  2  0
 12 18  1  0
 13 15  1  0
 14 24  1  0
 15 25  1  0
 16 28  2  0
 17 20  1  0
 19 24  4  0
 20 23  1  0
 21 22  4  0
 22 23  4  0
 25 26  4  0
 27 29  2  0
M  END
$$$$

 Created by Python create_sdf_string function

 30 33  0  0  0  0  0  0  0  0999 V2000
    8.3036    9.8571   18.4133 C   0  0  0  0  0  0  0  0  0  0  0  0
    8.3694    7.6612   22.6703 C   0  0  0  0  0  0  0  0  0  0  0  0
    8.4143    6.6863   16.2273 C   0  0  0  0  0  0  0  0  0  0  0  0
   10.7581    6.5674   21.7636 C   0  0  0  0  0  0  0  0  0  0  0  0
    8.4452    8.7960   19.2958 O   0  0  0  0  0  0  0  0  0  0  0  0
    8.7122    6.7842   24.8569 C   0  0  0  0  0  0  0  0  0  0  0  0
   10.3400    6.1726   14.3081 C   0  0  0  0  0  0  0  0  0  0  0  0
    7.4297    7.5873   24.8962 C   0  0  0  0  0  0  0  0  0  0  0  0
    8.1566   10.0536   16.0516 O   0  0  0  0  0  0  0  0  0  0  0  0
   12.4989    6.2074   20.1776 C   0  0  0  0  0  0  0  0  0  0  0  0
    6.9192    9.1053   20.9073 O   0  0  0  0  0  0  0  0  0  0  0  0
   14.3979    6.0729   18.7784 C   0  0  0  0  0  0  0  0  0  0  0  0
    8.6811    9.5354   16.9998 C   0  0  0  0  0  0  0  0  0  0  0  0
    9.2512    4.2713   13.7653 O   0  0  0  0  0  0  0  0  0  0  0  0
    9.6495    8.6317   16.8332 N   0  0  0  0  0  0  0  0  0  0  0  0
    6.2934    8.6988   23.1988 O   0  0  0  0  0  0  0  0  0  0  0  0
    7.9806    8.6543   20.5437 C   0  0  0  0  0  0  0  0  0  0  0  0
   13.7270    5.7144   19.8610 O   0  0  0  0  0  0  0  0  0  0  0  0
    8.3351    5.5235   15.4478 C   0  0  0  0  0  0  0  0  0  0  0  0
    8.7700    7.8434   21.3915 C   0  0  0  0  0  0  0  0  0  0  0  0
   11.7856    6.8851   19.2401 C   0  0  0  0  0  0  0  0  0  0  0  0
   10.5281    7.4276   19.5649 C   0  0  0  0  0  0  0  0  0  0  0  0
   10.0256    7.2907   20.8484 C   0  0  0  0  0  0  0  0  0  0  0  0
    9.3113    5.3049   14.4911 C   0  0  0  0  0  0  0  0  0  0  0  0
    9.4607    7.5646   16.0139 C   0  0  0  0  0  0  0  0  0  0  0  0
   10.4192    7.3157   15.0955 C   0  0  0  0  0  0  0  0  0  0  0  0
   10.2489    6.4227   23.0218 N   0  0  0  0  0  0  0  0  0  0  0  0
    7.2472    8.0746   23.5050 C   0  0  0  0  0  0  0  0  0  0  0  0
    9.2051    6.9101   23.4604 C   0  0  0  0  0  0  0  0  0  0  0  0
   11.9646    6.0299   21.4251 C   0  0  0  0  0  0  0  0  0  0  0  0
  1  5  1  0
  1 13  1  0
  2 20  2  0
  2 28  1  0
  2 29  1  0
  3 19  4  0
  3 25  4  0
  4 23  4  0
  4 27  1  0
  4 30  4  0
  5 17  1  0
  6  8  1  0
  6 29  1  0
  7 24  4  0
  7 26  4  0
  8 28  1  0
  9 13  2  0
 10 18  1  0
 10 21  4  0
 10 30  4  0
 11 17  2  0
 12 18  1  0
 13 15  1  0
 14 24  1  0
 15 25  1  0
 16 28  2  0
 17 20  1  0
 19 24  4  0
 20 23  1  0
 21 22  4  0
 22 23  4  0
 25 26  4  0
 27 29  2  0
M  END
$$$$

 Created by Python create_sdf_string function

 30 33  0  0  0  0  0  0  0  0999 V2000
    8.3036    9.8571   18.4133 C   0  0  0  0  0  0  0  0  0  0  0  0
    8.3694    7.6612   22.6703 C   0  0  0  0  0  0  0  0  0  0  0  0
    8.4143    6.6863   16.2273 C   0  0  0  0  0  0  0  0  0  0  0  0
   10.7581    6.5674   21.7636 C   0  0  0  0  0  0  0  0  0  0  0  0
    8.4452    8.7960   19.2958 O   0  0  0  0  0  0  0  0  0  0  0  0
    8.7122    6.7842   24.8569 C   0  0  0  0  0  0  0  0  0  0  0  0
   10.3400    6.1726   14.3081 C   0  0  0  0  0  0  0  0  0  0  0  0
    7.4297    7.5873   24.8962 C   0  0  0  0  0  0  0  0  0  0  0  0
    8.1566   10.0536   16.0516 O   0  0  0  0  0  0  0  0  0  0  0  0
   12.4989    6.2074   20.1776 C   0  0  0  0  0  0  0  0  0  0  0  0
    6.9192    9.1053   20.9073 O   0  0  0  0  0  0  0  0  0  0  0  0
   14.3979    6.0729   18.7784 C   0  0  0  0  0  0  0  0  0  0  0  0
    8.6811    9.5354   16.9998 C   0  0  0  0  0  0  0  0  0  0  0  0
    9.2512    4.2713   13.7653 O   0  0  0  0  0  0  0  0  0  0  0  0
    9.6495    8.6317   16.8332 N   0  0  0  0  0  0  0  0  0  0  0  0
    6.2934    8.6988   23.1988 O   0  0  0  0  0  0  0  0  0  0  0  0
    7.9806    8.6543   20.5437 C   0  0  0  0  0  0  0  0  0  0  0  0
   13.7270    5.7144   19.8610 O   0  0  0  0  0  0  0  0  0  0  0  0
    8.3351    5.5235   15.4478 C   0  0  0  0  0  0  0  0  0  0  0  0
    8.7700    7.8434   21.3915 C   0  0  0  0  0  0  0  0  0  0  0  0
   11.7856    6.8851   19.2401 C   0  0  0  0  0  0  0  0  0  0  0  0
   10.5281    7.4276   19.5649 C   0  0  0  0  0  0  0  0  0  0  0  0
   10.0256    7.2907   20.8484 C   0  0  0  0  0  0  0  0  0  0  0  0
    9.3113    5.3049   14.4911 C   0  0  0  0  0  0  0  0  0  0  0  0
    9.4607    7.5646   16.0139 C   0  0  0  0  0  0  0  0  0  0  0  0
   10.4192    7.3157   15.0955 C   0  0  0  0  0  0  0  0  0  0  0  0
   10.2489    6.4227   23.0218 N   0  0  0  0  0  0  0  0  0  0  0  0
    7.2472    8.0746   23.5050 C   0  0  0  0  0  0  0  0  0  0  0  0
    9.2051    6.9101   23.4604 C   0  0  0  0  0  0  0  0  0  0  0  0
   11.9646    6.0299   21.4251 C   0  0  0  0  0  0  0  0  0  0  0  0
  1  5  1  0
  1 13  1  0
  2 20  2  0
  2 28  1  0
  2 29  1  0
  3 19  4  0
  3 25  4  0
  4 23  4  0
  4 27  1  0
  4 30  4  0
  5 17  1  0
  6  8  1  0
  6 29  1  0
  7 24  4  0
  7 26  4  0
  8 28  1  0
  9 13  2  0
 10 18  1  0
 10 21  4  0
 10 30  4  0
 11 17  2  0
 12 18  1  0
 13 15  1  0
 14 24  1  0
 15 25  1  0
 16 28  2  0
 17 20  1  0
 19 24  4  0
 20 23  1  0
 21 22  4  0
 22 23  4  0
 25 26  4  0
 27 29  2  0
M  END
$$$$

 Created by Python create_sdf_string function

 30 33  0  0  0  0  0  0  0  0999 V2000
    8.3036    9.8571   18.4133 C   0  0  0  0  0  0  0  0  0  0  0  0
    8.3694    7.6612   22.6703 C   0  0  0  0  0  0  0  0  0  0  0  0
    8.4143    6.6863   16.2273 C   0  0  0  0  0  0  0  0  0  0  0  0
   10.7581    6.5674   21.7636 C   0  0  0  0  0  0  0  0  0  0  0  0
    8.4452    8.7960   19.2958 O   0  0  0  0  0  0  0  0  0  0  0  0
    8.7122    6.7842   24.8569 C   0  0  0  0  0  0  0  0  0  0  0  0
   10.3400    6.1726   14.3081 C   0  0  0  0  0  0  0  0  0  0  0  0
    7.4297    7.5873   24.8962 C   0  0  0  0  0  0  0  0  0  0  0  0
    8.1566   10.0536   16.0516 O   0  0  0  0  0  0  0  0  0  0  0  0
   12.4989    6.2074   20.1776 C   0  0  0  0  0  0  0  0  0  0  0  0
    6.9192    9.1053   20.9073 O   0  0  0  0  0  0  0  0  0  0  0  0
   14.3979    6.0729   18.7784 C   0  0  0  0  0  0  0  0  0  0  0  0
    8.6811    9.5354   16.9998 C   0  0  0  0  0  0  0  0  0  0  0  0
    9.2512    4.2713   13.7653 O   0  0  0  0  0  0  0  0  0  0  0  0
    9.6495    8.6317   16.8332 N   0  0  0  0  0  0  0  0  0  0  0  0
    6.2934    8.6988   23.1988 O   0  0  0  0  0  0  0  0  0  0  0  0
    7.9806    8.6543   20.5437 C   0  0  0  0  0  0  0  0  0  0  0  0
   13.7270    5.7144   19.8610 O   0  0  0  0  0  0  0  0  0  0  0  0
    8.3351    5.5235   15.4478 C   0  0  0  0  0  0  0  0  0  0  0  0
    8.7700    7.8434   21.3915 C   0  0  0  0  0  0  0  0  0  0  0  0
   11.7856    6.8851   19.2401 C   0  0  0  0  0  0  0  0  0  0  0  0
   10.5281    7.4276   19.5649 C   0  0  0  0  0  0  0  0  0  0  0  0
   10.0256    7.2907   20.8484 C   0  0  0  0  0  0  0  0  0  0  0  0
    9.3113    5.3049   14.4911 C   0  0  0  0  0  0  0  0  0  0  0  0
    9.4607    7.5646   16.0139 C   0  0  0  0  0  0  0  0  0  0  0  0
   10.4192    7.3157   15.0955 C   0  0  0  0  0  0  0  0  0  0  0  0
   10.2489    6.4227   23.0218 N   0  0  0  0  0  0  0  0  0  0  0  0
    7.2472    8.0746   23.5050 C   0  0  0  0  0  0  0  0  0  0  0  0
    9.2051    6.9101   23.4604 C   0  0  0  0  0  0  0  0  0  0  0  0
   11.9646    6.0299   21.4251 C   0  0  0  0  0  0  0  0  0  0  0  0
  1  5  1  0
  1 13  1  0
  2 20  2  0
  2 28  1  0
  2 29  1  0
  3 19  4  0
  3 25  4  0
  4 23  4  0
  4 27  1  0
  4 30  4  0
  5 17  1  0
  6  8  1  0
  6 29  1  0
  7 24  4  0
  7 26  4  0
  8 28  1  0
  9 13  2  0
 10 18  1  0
 10 21  4  0
 10 30  4  0
 11 17  2  0
 12 18  1  0
 13 15  1  0
 14 24  1  0
 15 25  1  0
 16 28  2  0
 17 20  1  0
 19 24  4  0
 20 23  1  0
 21 22  4  0
 22 23  4  0
 25 26  4  0
 27 29  2  0
M  END
$$$$

 Created by Python create_sdf_string function

 30 33  0  0  0  0  0  0  0  0999 V2000
    8.3036    9.8571   18.4133 C   0  0  0  0  0  0  0  0  0  0  0  0
    8.3694    7.6612   22.6703 C   0  0  0  0  0  0  0  0  0  0  0  0
    8.4143    6.6863   16.2273 C   0  0  0  0  0  0  0  0  0  0  0  0
   10.7581    6.5674   21.7636 C   0  0  0  0  0  0  0  0  0  0  0  0
    8.4452    8.7960   19.2958 O   0  0  0  0  0  0  0  0  0  0  0  0
    8.7122    6.7842   24.8569 C   0  0  0  0  0  0  0  0  0  0  0  0
   10.3400    6.1726   14.3081 C   0  0  0  0  0  0  0  0  0  0  0  0
    7.4297    7.5873   24.8962 C   0  0  0  0  0  0  0  0  0  0  0  0
    8.1566   10.0536   16.0516 O   0  0  0  0  0  0  0  0  0  0  0  0
   12.4989    6.2074   20.1776 C   0  0  0  0  0  0  0  0  0  0  0  0
    6.9192    9.1053   20.9073 O   0  0  0  0  0  0  0  0  0  0  0  0
   14.3979    6.0729   18.7784 C   0  0  0  0  0  0  0  0  0  0  0  0
    8.6811    9.5354   16.9998 C   0  0  0  0  0  0  0  0  0  0  0  0
    9.2512    4.2713   13.7653 O   0  0  0  0  0  0  0  0  0  0  0  0
    9.6495    8.6317   16.8332 N   0  0  0  0  0  0  0  0  0  0  0  0
    6.2934    8.6988   23.1988 O   0  0  0  0  0  0  0  0  0  0  0  0
    7.9806    8.6543   20.5437 C   0  0  0  0  0  0  0  0  0  0  0  0
   13.7270    5.7144   19.8610 O   0  0  0  0  0  0  0  0  0  0  0  0
    8.3351    5.5235   15.4478 C   0  0  0  0  0  0  0  0  0  0  0  0
    8.7700    7.8434   21.3915 C   0  0  0  0  0  0  0  0  0  0  0  0
   11.7856    6.8851   19.2401 C   0  0  0  0  0  0  0  0  0  0  0  0
   10.5281    7.4276   19.5649 C   0  0  0  0  0  0  0  0  0  0  0  0
   10.0256    7.2907   20.8484 C   0  0  0  0  0  0  0  0  0  0  0  0
    9.3113    5.3049   14.4911 C   0  0  0  0  0  0  0  0  0  0  0  0
    9.4607    7.5646   16.0139 C   0  0  0  0  0  0  0  0  0  0  0  0
   10.4192    7.3157   15.0955 C   0  0  0  0  0  0  0  0  0  0  0  0
   10.2489    6.4227   23.0218 N   0  0  0  0  0  0  0  0  0  0  0  0
    7.2472    8.0746   23.5050 C   0  0  0  0  0  0  0  0  0  0  0  0
    9.2051    6.9101   23.4604 C   0  0  0  0  0  0  0  0  0  0  0  0
   11.9646    6.0299   21.4251 C   0  0  0  0  0  0  0  0  0  0  0  0
  1  5  1  0
  1 13  1  0
  2 20  2  0
  2 28  1  0
  2 29  1  0
  3 19  4  0
  3 25  4  0
  4 23  4  0
  4 27  1  0
  4 30  4  0
  5 17  1  0
  6  8  1  0
  6 29  1  0
  7 24  4  0
  7 26  4  0
  8 28  1  0
  9 13  2  0
 10 18  1  0
 10 21  4  0
 10 30  4  0
 11 17  2  0
 12 18  1  0
 13 15  1  0
 14 24  1  0
 15 25  1  0
 16 28  2  0
 17 20  1  0
 19 24  4  0
 20 23  1  0
 21 22  4  0
 22 23  4  0
 25 26  4  0
 27 29  2  0
M  END
$$$$

 Created by Python create_sdf_string function

 30 33  0  0  0  0  0  0  0  0999 V2000
    8.3036    9.8571   18.4133 C   0  0  0  0  0  0  0  0  0  0  0  0
    8.3694    7.6612   22.6703 C   0  0  0  0  0  0  0  0  0  0  0  0
    8.4143    6.6863   16.2273 C   0  0  0  0  0  0  0  0  0  0  0  0
   10.7581    6.5674   21.7636 C   0  0  0  0  0  0  0  0  0  0  0  0
    8.4452    8.7960   19.2958 O   0  0  0  0  0  0  0  0  0  0  0  0
    8.7122    6.7842   24.8569 C   0  0  0  0  0  0  0  0  0  0  0  0
   10.3400    6.1726   14.3081 C   0  0  0  0  0  0  0  0  0  0  0  0
    7.4297    7.5873   24.8962 C   0  0  0  0  0  0  0  0  0  0  0  0
    8.1566   10.0536   16.0516 O   0  0  0  0  0  0  0  0  0  0  0  0
   12.4989    6.2074   20.1776 C   0  0  0  0  0  0  0  0  0  0  0  0
    6.9192    9.1053   20.9073 O   0  0  0  0  0  0  0  0  0  0  0  0
   14.3979    6.0729   18.7784 C   0  0  0  0  0  0  0  0  0  0  0  0
    8.6811    9.5354   16.9998 C   0  0  0  0  0  0  0  0  0  0  0  0
    9.2512    4.2713   13.7653 O   0  0  0  0  0  0  0  0  0  0  0  0
    9.6495    8.6317   16.8332 N   0  0  0  0  0  0  0  0  0  0  0  0
    6.2934    8.6988   23.1988 O   0  0  0  0  0  0  0  0  0  0  0  0
    7.9806    8.6543   20.5437 C   0  0  0  0  0  0  0  0  0  0  0  0
   13.7270    5.7144   19.8610 O   0  0  0  0  0  0  0  0  0  0  0  0
    8.3351    5.5235   15.4478 C   0  0  0  0  0  0  0  0  0  0  0  0
    8.7700    7.8434   21.3915 C   0  0  0  0  0  0  0  0  0  0  0  0
   11.7856    6.8851   19.2401 C   0  0  0  0  0  0  0  0  0  0  0  0
   10.5281    7.4276   19.5649 C   0  0  0  0  0  0  0  0  0  0  0  0
   10.0256    7.2907   20.8484 C   0  0  0  0  0  0  0  0  0  0  0  0
    9.3113    5.3049   14.4911 C   0  0  0  0  0  0  0  0  0  0  0  0
    9.4607    7.5646   16.0139 C   0  0  0  0  0  0  0  0  0  0  0  0
   10.4192    7.3157   15.0955 C   0  0  0  0  0  0  0  0  0  0  0  0
   10.2489    6.4227   23.0218 N   0  0  0  0  0  0  0  0  0  0  0  0
    7.2472    8.0746   23.5050 C   0  0  0  0  0  0  0  0  0  0  0  0
    9.2051    6.9101   23.4604 C   0  0  0  0  0  0  0  0  0  0  0  0
   11.9646    6.0299   21.4251 C   0  0  0  0  0  0  0  0  0  0  0  0
  1  5  1  0
  1 13  1  0
  2 20  2  0
  2 28  1  0
  2 29  1  0
  3 19  4  0
  3 25  4  0
  4 23  4  0
  4 27  1  0
  4 30  4  0
  5 17  1  0
  6  8  1  0
  6 29  1  0
  7 24  4  0
  7 26  4  0
  8 28  1  0
  9 13  2  0
 10 18  1  0
 10 21  4  0
 10 30  4  0
 11 17  2  0
 12 18  1  0
 13 15  1  0
 14 24  1  0
 15 25  1  0
 16 28  2  0
 17 20  1  0
 19 24  4  0
 20 23  1  0
 21 22  4  0
 22 23  4  0
 25 26  4  0
 27 29  2  0
M  END
$$$$

 Created by Python create_sdf_string function

 30 33  0  0  0  0  0  0  0  0999 V2000
    8.3036    9.8571   18.4133 C   0  0  0  0  0  0  0  0  0  0  0  0
    8.3694    7.6612   22.6703 C   0  0  0  0  0  0  0  0  0  0  0  0
    8.4143    6.6863   16.2273 C   0  0  0  0  0  0  0  0  0  0  0  0
   10.7581    6.5674   21.7636 C   0  0  0  0  0  0  0  0  0  0  0  0
    8.4452    8.7960   19.2958 O   0  0  0  0  0  0  0  0  0  0  0  0
    8.7122    6.7842   24.8569 C   0  0  0  0  0  0  0  0  0  0  0  0
   10.3400    6.1726   14.3081 C   0  0  0  0  0  0  0  0  0  0  0  0
    7.4297    7.5873   24.8962 C   0  0  0  0  0  0  0  0  0  0  0  0
    8.1566   10.0536   16.0516 O   0  0  0  0  0  0  0  0  0  0  0  0
   12.4989    6.2074   20.1776 C   0  0  0  0  0  0  0  0  0  0  0  0
    6.9192    9.1053   20.9073 O   0  0  0  0  0  0  0  0  0  0  0  0
   14.3979    6.0729   18.7784 C   0  0  0  0  0  0  0  0  0  0  0  0
    8.6811    9.5354   16.9998 C   0  0  0  0  0  0  0  0  0  0  0  0
    9.2512    4.2713   13.7653 O   0  0  0  0  0  0  0  0  0  0  0  0
    9.6495    8.6317   16.8332 N   0  0  0  0  0  0  0  0  0  0  0  0
    6.2934    8.6988   23.1988 O   0  0  0  0  0  0  0  0  0  0  0  0
    7.9806    8.6543   20.5437 C   0  0  0  0  0  0  0  0  0  0  0  0
   13.7270    5.7144   19.8610 O   0  0  0  0  0  0  0  0  0  0  0  0
    8.3351    5.5235   15.4478 C   0  0  0  0  0  0  0  0  0  0  0  0
    8.7700    7.8434   21.3915 C   0  0  0  0  0  0  0  0  0  0  0  0
   11.7856    6.8851   19.2401 C   0  0  0  0  0  0  0  0  0  0  0  0
   10.5281    7.4276   19.5649 C   0  0  0  0  0  0  0  0  0  0  0  0
   10.0256    7.2907   20.8484 C   0  0  0  0  0  0  0  0  0  0  0  0
    9.3113    5.3049   14.4911 C   0  0  0  0  0  0  0  0  0  0  0  0
    9.4607    7.5646   16.0139 C   0  0  0  0  0  0  0  0  0  0  0  0
   10.4192    7.3157   15.0955 C   0  0  0  0  0  0  0  0  0  0  0  0
   10.2489    6.4227   23.0218 N   0  0  0  0  0  0  0  0  0  0  0  0
    7.2472    8.0746   23.5050 C   0  0  0  0  0  0  0  0  0  0  0  0
    9.2051    6.9101   23.4604 C   0  0  0  0  0  0  0  0  0  0  0  0
   11.9646    6.0299   21.4251 C   0  0  0  0  0  0  0  0  0  0  0  0
  1  5  1  0
  1 13  1  0
  2 20  2  0
  2 28  1  0
  2 29  1  0
  3 19  4  0
  3 25  4  0
  4 23  4  0
  4 27  1  0
  4 30  4  0
  5 17  1  0
  6  8  1  0
  6 29  1  0
  7 24  4  0
  7 26  4  0
  8 28  1  0
  9 13  2  0
 10 18  1  0
 10 21  4  0
 10 30  4  0
 11 17  2  0
 12 18  1  0
 13 15  1  0
 14 24  1  0
 15 25  1  0
 16 28  2  0
 17 20  1  0
 19 24  4  0
 20 23  1  0
 21 22  4  0
 22 23  4  0
 25 26  4  0
 27 29  2  0
M  END
$$$$

 Created by Python create_sdf_string function

 30 33  0  0  0  0  0  0  0  0999 V2000
    8.3036    9.8571   18.4133 C   0  0  0  0  0  0  0  0  0  0  0  0
    8.3694    7.6612   22.6703 C   0  0  0  0  0  0  0  0  0  0  0  0
    8.4143    6.6863   16.2273 C   0  0  0  0  0  0  0  0  0  0  0  0
   10.7581    6.5674   21.7636 C   0  0  0  0  0  0  0  0  0  0  0  0
    8.4452    8.7960   19.2958 O   0  0  0  0  0  0  0  0  0  0  0  0
    8.7122    6.7842   24.8569 C   0  0  0  0  0  0  0  0  0  0  0  0
   10.3400    6.1726   14.3081 C   0  0  0  0  0  0  0  0  0  0  0  0
    7.4297    7.5873   24.8962 C   0  0  0  0  0  0  0  0  0  0  0  0
    8.1566   10.0536   16.0516 O   0  0  0  0  0  0  0  0  0  0  0  0
   12.4989    6.2074   20.1776 C   0  0  0  0  0  0  0  0  0  0  0  0
    6.9192    9.1053   20.9073 O   0  0  0  0  0  0  0  0  0  0  0  0
   14.3979    6.0729   18.7784 C   0  0  0  0  0  0  0  0  0  0  0  0
    8.6811    9.5354   16.9998 C   0  0  0  0  0  0  0  0  0  0  0  0
    9.2512    4.2713   13.7653 O   0  0  0  0  0  0  0  0  0  0  0  0
    9.6495    8.6317   16.8332 N   0  0  0  0  0  0  0  0  0  0  0  0
    6.2934    8.6988   23.1988 O   0  0  0  0  0  0  0  0  0  0  0  0
    7.9806    8.6543   20.5437 C   0  0  0  0  0  0  0  0  0  0  0  0
   13.7270    5.7144   19.8610 O   0  0  0  0  0  0  0  0  0  0  0  0
    8.3351    5.5235   15.4478 C   0  0  0  0  0  0  0  0  0  0  0  0
    8.7700    7.8434   21.3915 C   0  0  0  0  0  0  0  0  0  0  0  0
   11.7856    6.8851   19.2401 C   0  0  0  0  0  0  0  0  0  0  0  0
   10.5281    7.4276   19.5649 C   0  0  0  0  0  0  0  0  0  0  0  0
   10.0256    7.2907   20.8484 C   0  0  0  0  0  0  0  0  0  0  0  0
    9.3113    5.3049   14.4911 C   0  0  0  0  0  0  0  0  0  0  0  0
    9.4607    7.5646   16.0139 C   0  0  0  0  0  0  0  0  0  0  0  0
   10.4192    7.3157   15.0955 C   0  0  0  0  0  0  0  0  0  0  0  0
   10.2489    6.4227   23.0218 N   0  0  0  0  0  0  0  0  0  0  0  0
    7.2472    8.0746   23.5050 C   0  0  0  0  0  0  0  0  0  0  0  0
    9.2051    6.9101   23.4604 C   0  0  0  0  0  0  0  0  0  0  0  0
   11.9646    6.0299   21.4251 C   0  0  0  0  0  0  0  0  0  0  0  0
  1  5  1  0
  1 13  1  0
  2 20  2  0
  2 28  1  0
  2 29  1  0
  3 19  4  0
  3 25  4  0
  4 23  4  0
  4 27  1  0
  4 30  4  0
  5 17  1  0
  6  8  1  0
  6 29  1  0
  7 24  4  0
  7 26  4  0
  8 28  1  0
  9 13  2  0
 10 18  1  0
 10 21  4  0
 10 30  4  0
 11 17  2  0
 12 18  1  0
 13 15  1  0
 14 24  1  0
 15 25  1  0
 16 28  2  0
 17 20  1  0
 19 24  4  0
 20 23  1  0
 21 22  4  0
 22 23  4  0
 25 26  4  0
 27 29  2  0
M  END
$$$$

 Created by Python create_sdf_string function

 30 33  0  0  0  0  0  0  0  0999 V2000
    8.3036    9.8571   18.4133 C   0  0  0  0  0  0  0  0  0  0  0  0
    8.3694    7.6612   22.6703 C   0  0  0  0  0  0  0  0  0  0  0  0
    8.4143    6.6863   16.2273 C   0  0  0  0  0  0  0  0  0  0  0  0
   10.7581    6.5674   21.7636 C   0  0  0  0  0  0  0  0  0  0  0  0
    8.4452    8.7960   19.2958 O   0  0  0  0  0  0  0  0  0  0  0  0
    8.7122    6.7842   24.8569 C   0  0  0  0  0  0  0  0  0  0  0  0
   10.3400    6.1726   14.3081 C   0  0  0  0  0  0  0  0  0  0  0  0
    7.4297    7.5873   24.8962 C   0  0  0  0  0  0  0  0  0  0  0  0
    8.1566   10.0536   16.0516 O   0  0  0  0  0  0  0  0  0  0  0  0
   12.4989    6.2074   20.1776 C   0  0  0  0  0  0  0  0  0  0  0  0
    6.9192    9.1053   20.9073 O   0  0  0  0  0  0  0  0  0  0  0  0
   14.3979    6.0729   18.7784 C   0  0  0  0  0  0  0  0  0  0  0  0
    8.6811    9.5354   16.9998 C   0  0  0  0  0  0  0  0  0  0  0  0
    9.2512    4.2713   13.7653 O   0  0  0  0  0  0  0  0  0  0  0  0
    9.6495    8.6317   16.8332 N   0  0  0  0  0  0  0  0  0  0  0  0
    6.2934    8.6988   23.1988 O   0  0  0  0  0  0  0  0  0  0  0  0
    7.9806    8.6543   20.5437 C   0  0  0  0  0  0  0  0  0  0  0  0
   13.7270    5.7144   19.8610 O   0  0  0  0  0  0  0  0  0  0  0  0
    8.3351    5.5235   15.4478 C   0  0  0  0  0  0  0  0  0  0  0  0
    8.7700    7.8434   21.3915 C   0  0  0  0  0  0  0  0  0  0  0  0
   11.7856    6.8851   19.2401 C   0  0  0  0  0  0  0  0  0  0  0  0
   10.5281    7.4276   19.5649 C   0  0  0  0  0  0  0  0  0  0  0  0
   10.0256    7.2907   20.8484 C   0  0  0  0  0  0  0  0  0  0  0  0
    9.3113    5.3049   14.4911 C   0  0  0  0  0  0  0  0  0  0  0  0
    9.4607    7.5646   16.0139 C   0  0  0  0  0  0  0  0  0  0  0  0
   10.4192    7.3157   15.0955 C   0  0  0  0  0  0  0  0  0  0  0  0
   10.2489    6.4227   23.0218 N   0  0  0  0  0  0  0  0  0  0  0  0
    7.2472    8.0746   23.5050 C   0  0  0  0  0  0  0  0  0  0  0  0
    9.2051    6.9101   23.4604 C   0  0  0  0  0  0  0  0  0  0  0  0
   11.9646    6.0299   21.4251 C   0  0  0  0  0  0  0  0  0  0  0  0
  1  5  1  0
  1 13  1  0
  2 20  2  0
  2 28  1  0
  2 29  1  0
  3 19  4  0
  3 25  4  0
  4 23  4  0
  4 27  1  0
  4 30  4  0
  5 17  1  0
  6  8  1  0
  6 29  1  0
  7 24  4  0
  7 26  4  0
  8 28  1  0
  9 13  2  0
 10 18  1  0
 10 21  4  0
 10 30  4  0
 11 17  2  0
 12 18  1  0
 13 15  1  0
 14 24  1  0
 15 25  1  0
 16 28  2  0
 17 20  1  0
 19 24  4  0
 20 23  1  0
 21 22  4  0
 22 23  4  0
 25 26  4  0
 27 29  2  0
M  END
$$$$

 Created by Python create_sdf_string function

 30 33  0  0  0  0  0  0  0  0999 V2000
    8.3036    9.8571   18.4133 C   0  0  0  0  0  0  0  0  0  0  0  0
    8.3694    7.6612   22.6703 C   0  0  0  0  0  0  0  0  0  0  0  0
    8.4143    6.6863   16.2273 C   0  0  0  0  0  0  0  0  0  0  0  0
   10.7581    6.5674   21.7636 C   0  0  0  0  0  0  0  0  0  0  0  0
    8.4452    8.7960   19.2958 O   0  0  0  0  0  0  0  0  0  0  0  0
    8.7122    6.7842   24.8569 C   0  0  0  0  0  0  0  0  0  0  0  0
   10.3400    6.1726   14.3081 C   0  0  0  0  0  0  0  0  0  0  0  0
    7.4297    7.5873   24.8962 C   0  0  0  0  0  0  0  0  0  0  0  0
    8.1566   10.0536   16.0516 O   0  0  0  0  0  0  0  0  0  0  0  0
   12.4989    6.2074   20.1776 C   0  0  0  0  0  0  0  0  0  0  0  0
    6.9192    9.1053   20.9073 O   0  0  0  0  0  0  0  0  0  0  0  0
   14.3979    6.0729   18.7784 C   0  0  0  0  0  0  0  0  0  0  0  0
    8.6811    9.5354   16.9998 C   0  0  0  0  0  0  0  0  0  0  0  0
    9.2512    4.2713   13.7653 O   0  0  0  0  0  0  0  0  0  0  0  0
    9.6495    8.6317   16.8332 N   0  0  0  0  0  0  0  0  0  0  0  0
    6.2934    8.6988   23.1988 O   0  0  0  0  0  0  0  0  0  0  0  0
    7.9806    8.6543   20.5437 C   0  0  0  0  0  0  0  0  0  0  0  0
   13.7270    5.7144   19.8610 O   0  0  0  0  0  0  0  0  0  0  0  0
    8.3351    5.5235   15.4478 C   0  0  0  0  0  0  0  0  0  0  0  0
    8.7700    7.8434   21.3915 C   0  0  0  0  0  0  0  0  0  0  0  0
   11.7856    6.8851   19.2401 C   0  0  0  0  0  0  0  0  0  0  0  0
   10.5281    7.4276   19.5649 C   0  0  0  0  0  0  0  0  0  0  0  0
   10.0256    7.2907   20.8484 C   0  0  0  0  0  0  0  0  0  0  0  0
    9.3113    5.3049   14.4911 C   0  0  0  0  0  0  0  0  0  0  0  0
    9.4607    7.5646   16.0139 C   0  0  0  0  0  0  0  0  0  0  0  0
   10.4192    7.3157   15.0955 C   0  0  0  0  0  0  0  0  0  0  0  0
   10.2489    6.4227   23.0218 N   0  0  0  0  0  0  0  0  0  0  0  0
    7.2472    8.0746   23.5050 C   0  0  0  0  0  0  0  0  0  0  0  0
    9.2051    6.9101   23.4604 C   0  0  0  0  0  0  0  0  0  0  0  0
   11.9646    6.0299   21.4251 C   0  0  0  0  0  0  0  0  0  0  0  0
  1  5  1  0
  1 13  1  0
  2 20  2  0
  2 28  1  0
  2 29  1  0
  3 19  4  0
  3 25  4  0
  4 23  4  0
  4 27  1  0
  4 30  4  0
  5 17  1  0
  6  8  1  0
  6 29  1  0
  7 24  4  0
  7 26  4  0
  8 28  1  0
  9 13  2  0
 10 18  1  0
 10 21  4  0
 10 30  4  0
 11 17  2  0
 12 18  1  0
 13 15  1  0
 14 24  1  0
 15 25  1  0
 16 28  2  0
 17 20  1  0
 19 24  4  0
 20 23  1  0
 21 22  4  0
 22 23  4  0
 25 26  4  0
 27 29  2  0
M  END
$$$$

 Created by Python create_sdf_string function

 30 33  0  0  0  0  0  0  0  0999 V2000
    8.3036    9.8571   18.4133 C   0  0  0  0  0  0  0  0  0  0  0  0
    8.3694    7.6612   22.6703 C   0  0  0  0  0  0  0  0  0  0  0  0
    8.4143    6.6863   16.2273 C   0  0  0  0  0  0  0  0  0  0  0  0
   10.7581    6.5674   21.7636 C   0  0  0  0  0  0  0  0  0  0  0  0
    8.4452    8.7960   19.2958 O   0  0  0  0  0  0  0  0  0  0  0  0
    8.7122    6.7842   24.8569 C   0  0  0  0  0  0  0  0  0  0  0  0
   10.3400    6.1726   14.3081 C   0  0  0  0  0  0  0  0  0  0  0  0
    7.4297    7.5873   24.8962 C   0  0  0  0  0  0  0  0  0  0  0  0
    8.1566   10.0536   16.0516 O   0  0  0  0  0  0  0  0  0  0  0  0
   12.4989    6.2074   20.1776 C   0  0  0  0  0  0  0  0  0  0  0  0
    6.9192    9.1053   20.9073 O   0  0  0  0  0  0  0  0  0  0  0  0
   14.3979    6.0729   18.7784 C   0  0  0  0  0  0  0  0  0  0  0  0
    8.6811    9.5354   16.9998 C   0  0  0  0  0  0  0  0  0  0  0  0
    9.2512    4.2713   13.7653 O   0  0  0  0  0  0  0  0  0  0  0  0
    9.6495    8.6317   16.8332 N   0  0  0  0  0  0  0  0  0  0  0  0
    6.2934    8.6988   23.1988 O   0  0  0  0  0  0  0  0  0  0  0  0
    7.9806    8.6543   20.5437 C   0  0  0  0  0  0  0  0  0  0  0  0
   13.7270    5.7144   19.8610 O   0  0  0  0  0  0  0  0  0  0  0  0
    8.3351    5.5235   15.4478 C   0  0  0  0  0  0  0  0  0  0  0  0
    8.7700    7.8434   21.3915 C   0  0  0  0  0  0  0  0  0  0  0  0
   11.7856    6.8851   19.2401 C   0  0  0  0  0  0  0  0  0  0  0  0
   10.5281    7.4276   19.5649 C   0  0  0  0  0  0  0  0  0  0  0  0
   10.0256    7.2907   20.8484 C   0  0  0  0  0  0  0  0  0  0  0  0
    9.3113    5.3049   14.4911 C   0  0  0  0  0  0  0  0  0  0  0  0
    9.4607    7.5646   16.0139 C   0  0  0  0  0  0  0  0  0  0  0  0
   10.4192    7.3157   15.0955 C   0  0  0  0  0  0  0  0  0  0  0  0
   10.2489    6.4227   23.0218 N   0  0  0  0  0  0  0  0  0  0  0  0
    7.2472    8.0746   23.5050 C   0  0  0  0  0  0  0  0  0  0  0  0
    9.2051    6.9101   23.4604 C   0  0  0  0  0  0  0  0  0  0  0  0
   11.9646    6.0299   21.4251 C   0  0  0  0  0  0  0  0  0  0  0  0
  1  5  1  0
  1 13  1  0
  2 20  2  0
  2 28  1  0
  2 29  1  0
  3 19  4  0
  3 25  4  0
  4 23  4  0
  4 27  1  0
  4 30  4  0
  5 17  1  0
  6  8  1  0
  6 29  1  0
  7 24  4  0
  7 26  4  0
  8 28  1  0
  9 13  2  0
 10 18  1  0
 10 21  4  0
 10 30  4  0
 11 17  2  0
 12 18  1  0
 13 15  1  0
 14 24  1  0
 15 25  1  0
 16 28  2  0
 17 20  1  0
 19 24  4  0
 20 23  1  0
 21 22  4  0
 22 23  4  0
 25 26  4  0
 27 29  2  0
M  END
$$$$

 Created by Python create_sdf_string function

 30 33  0  0  0  0  0  0  0  0999 V2000
    8.3036    9.8571   18.4133 C   0  0  0  0  0  0  0  0  0  0  0  0
    8.3694    7.6612   22.6703 C   0  0  0  0  0  0  0  0  0  0  0  0
    8.4143    6.6863   16.2273 C   0  0  0  0  0  0  0  0  0  0  0  0
   10.7581    6.5674   21.7636 C   0  0  0  0  0  0  0  0  0  0  0  0
    8.4452    8.7960   19.2958 O   0  0  0  0  0  0  0  0  0  0  0  0
    8.7122    6.7842   24.8569 C   0  0  0  0  0  0  0  0  0  0  0  0
   10.3400    6.1726   14.3081 C   0  0  0  0  0  0  0  0  0  0  0  0
    7.4297    7.5873   24.8962 C   0  0  0  0  0  0  0  0  0  0  0  0
    8.1566   10.0536   16.0516 O   0  0  0  0  0  0  0  0  0  0  0  0
   12.4989    6.2074   20.1776 C   0  0  0  0  0  0  0  0  0  0  0  0
    6.9192    9.1053   20.9073 O   0  0  0  0  0  0  0  0  0  0  0  0
   14.3979    6.0729   18.7784 C   0  0  0  0  0  0  0  0  0  0  0  0
    8.6811    9.5354   16.9998 C   0  0  0  0  0  0  0  0  0  0  0  0
    9.2512    4.2713   13.7653 O   0  0  0  0  0  0  0  0  0  0  0  0
    9.6495    8.6317   16.8332 N   0  0  0  0  0  0  0  0  0  0  0  0
    6.2934    8.6988   23.1988 O   0  0  0  0  0  0  0  0  0  0  0  0
    7.9806    8.6543   20.5437 C   0  0  0  0  0  0  0  0  0  0  0  0
   13.7270    5.7144   19.8610 O   0  0  0  0  0  0  0  0  0  0  0  0
    8.3351    5.5235   15.4478 C   0  0  0  0  0  0  0  0  0  0  0  0
    8.7700    7.8434   21.3915 C   0  0  0  0  0  0  0  0  0  0  0  0
   11.7856    6.8851   19.2401 C   0  0  0  0  0  0  0  0  0  0  0  0
   10.5281    7.4276   19.5649 C   0  0  0  0  0  0  0  0  0  0  0  0
   10.0256    7.2907   20.8484 C   0  0  0  0  0  0  0  0  0  0  0  0
    9.3113    5.3049   14.4911 C   0  0  0  0  0  0  0  0  0  0  0  0
    9.4607    7.5646   16.0139 C   0  0  0  0  0  0  0  0  0  0  0  0
   10.4192    7.3157   15.0955 C   0  0  0  0  0  0  0  0  0  0  0  0
   10.2489    6.4227   23.0218 N   0  0  0  0  0  0  0  0  0  0  0  0
    7.2472    8.0746   23.5050 C   0  0  0  0  0  0  0  0  0  0  0  0
    9.2051    6.9101   23.4604 C   0  0  0  0  0  0  0  0  0  0  0  0
   11.9646    6.0299   21.4251 C   0  0  0  0  0  0  0  0  0  0  0  0
  1  5  1  0
  1 13  1  0
  2 20  2  0
  2 28  1  0
  2 29  1  0
  3 19  4  0
  3 25  4  0
  4 23  4  0
  4 27  1  0
  4 30  4  0
  5 17  1  0
  6  8  1  0
  6 29  1  0
  7 24  4  0
  7 26  4  0
  8 28  1  0
  9 13  2  0
 10 18  1  0
 10 21  4  0
 10 30  4  0
 11 17  2  0
 12 18  1  0
 13 15  1  0
 14 24  1  0
 15 25  1  0
 16 28  2  0
 17 20  1  0
 19 24  4  0
 20 23  1  0
 21 22  4  0
 22 23  4  0
 25 26  4  0
 27 29  2  0
M  END
$$$$

 Created by Python create_sdf_string function

 30 33  0  0  0  0  0  0  0  0999 V2000
    8.3036    9.8571   18.4133 C   0  0  0  0  0  0  0  0  0  0  0  0
    8.3694    7.6612   22.6703 C   0  0  0  0  0  0  0  0  0  0  0  0
    8.4143    6.6863   16.2273 C   0  0  0  0  0  0  0  0  0  0  0  0
   10.7581    6.5674   21.7636 C   0  0  0  0  0  0  0  0  0  0  0  0
    8.4452    8.7960   19.2958 O   0  0  0  0  0  0  0  0  0  0  0  0
    8.7122    6.7842   24.8569 C   0  0  0  0  0  0  0  0  0  0  0  0
   10.3400    6.1726   14.3081 C   0  0  0  0  0  0  0  0  0  0  0  0
    7.4297    7.5873   24.8962 C   0  0  0  0  0  0  0  0  0  0  0  0
    8.1566   10.0536   16.0516 O   0  0  0  0  0  0  0  0  0  0  0  0
   12.4989    6.2074   20.1776 C   0  0  0  0  0  0  0  0  0  0  0  0
    6.9192    9.1053   20.9073 O   0  0  0  0  0  0  0  0  0  0  0  0
   14.3979    6.0729   18.7784 C   0  0  0  0  0  0  0  0  0  0  0  0
    8.6811    9.5354   16.9998 C   0  0  0  0  0  0  0  0  0  0  0  0
    9.2512    4.2713   13.7653 O   0  0  0  0  0  0  0  0  0  0  0  0
    9.6495    8.6317   16.8332 N   0  0  0  0  0  0  0  0  0  0  0  0
    6.2934    8.6988   23.1988 O   0  0  0  0  0  0  0  0  0  0  0  0
    7.9806    8.6543   20.5437 C   0  0  0  0  0  0  0  0  0  0  0  0
   13.7270    5.7144   19.8610 O   0  0  0  0  0  0  0  0  0  0  0  0
    8.3351    5.5235   15.4478 C   0  0  0  0  0  0  0  0  0  0  0  0
    8.7700    7.8434   21.3915 C   0  0  0  0  0  0  0  0  0  0  0  0
   11.7856    6.8851   19.2401 C   0  0  0  0  0  0  0  0  0  0  0  0
   10.5281    7.4276   19.5649 C   0  0  0  0  0  0  0  0  0  0  0  0
   10.0256    7.2907   20.8484 C   0  0  0  0  0  0  0  0  0  0  0  0
    9.3113    5.3049   14.4911 C   0  0  0  0  0  0  0  0  0  0  0  0
    9.4607    7.5646   16.0139 C   0  0  0  0  0  0  0  0  0  0  0  0
   10.4192    7.3157   15.0955 C   0  0  0  0  0  0  0  0  0  0  0  0
   10.2489    6.4227   23.0218 N   0  0  0  0  0  0  0  0  0  0  0  0
    7.2472    8.0746   23.5050 C   0  0  0  0  0  0  0  0  0  0  0  0
    9.2051    6.9101   23.4604 C   0  0  0  0  0  0  0  0  0  0  0  0
   11.9646    6.0299   21.4251 C   0  0  0  0  0  0  0  0  0  0  0  0
  1  5  1  0
  1 13  1  0
  2 20  2  0
  2 28  1  0
  2 29  1  0
  3 19  4  0
  3 25  4  0
  4 23  4  0
  4 27  1  0
  4 30  4  0
  5 17  1  0
  6  8  1  0
  6 29  1  0
  7 24  4  0
  7 26  4  0
  8 28  1  0
  9 13  2  0
 10 18  1  0
 10 21  4  0
 10 30  4  0
 11 17  2  0
 12 18  1  0
 13 15  1  0
 14 24  1  0
 15 25  1  0
 16 28  2  0
 17 20  1  0
 19 24  4  0
 20 23  1  0
 21 22  4  0
 22 23  4  0
 25 26  4  0
 27 29  2  0
M  END
$$$$

 Created by Python create_sdf_string function

 30 33  0  0  0  0  0  0  0  0999 V2000
    8.3036    9.8571   18.4133 C   0  0  0  0  0  0  0  0  0  0  0  0
    8.3694    7.6612   22.6703 C   0  0  0  0  0  0  0  0  0  0  0  0
    8.4143    6.6863   16.2273 C   0  0  0  0  0  0  0  0  0  0  0  0
   10.7581    6.5674   21.7636 C   0  0  0  0  0  0  0  0  0  0  0  0
    8.4452    8.7960   19.2958 O   0  0  0  0  0  0  0  0  0  0  0  0
    8.7122    6.7842   24.8569 C   0  0  0  0  0  0  0  0  0  0  0  0
   10.3400    6.1726   14.3081 C   0  0  0  0  0  0  0  0  0  0  0  0
    7.4297    7.5873   24.8962 C   0  0  0  0  0  0  0  0  0  0  0  0
    8.1566   10.0536   16.0516 O   0  0  0  0  0  0  0  0  0  0  0  0
   12.4989    6.2074   20.1776 C   0  0  0  0  0  0  0  0  0  0  0  0
    6.9192    9.1053   20.9073 O   0  0  0  0  0  0  0  0  0  0  0  0
   14.3979    6.0729   18.7784 C   0  0  0  0  0  0  0  0  0  0  0  0
    8.6811    9.5354   16.9998 C   0  0  0  0  0  0  0  0  0  0  0  0
    9.2512    4.2713   13.7653 O   0  0  0  0  0  0  0  0  0  0  0  0
    9.6495    8.6317   16.8332 N   0  0  0  0  0  0  0  0  0  0  0  0
    6.2934    8.6988   23.1988 O   0  0  0  0  0  0  0  0  0  0  0  0
    7.9806    8.6543   20.5437 C   0  0  0  0  0  0  0  0  0  0  0  0
   13.7270    5.7144   19.8610 O   0  0  0  0  0  0  0  0  0  0  0  0
    8.3351    5.5235   15.4478 C   0  0  0  0  0  0  0  0  0  0  0  0
    8.7700    7.8434   21.3915 C   0  0  0  0  0  0  0  0  0  0  0  0
   11.7856    6.8851   19.2401 C   0  0  0  0  0  0  0  0  0  0  0  0
   10.5281    7.4276   19.5649 C   0  0  0  0  0  0  0  0  0  0  0  0
   10.0256    7.2907   20.8484 C   0  0  0  0  0  0  0  0  0  0  0  0
    9.3113    5.3049   14.4911 C   0  0  0  0  0  0  0  0  0  0  0  0
    9.4607    7.5646   16.0139 C   0  0  0  0  0  0  0  0  0  0  0  0
   10.4192    7.3157   15.0955 C   0  0  0  0  0  0  0  0  0  0  0  0
   10.2489    6.4227   23.0218 N   0  0  0  0  0  0  0  0  0  0  0  0
    7.2472    8.0746   23.5050 C   0  0  0  0  0  0  0  0  0  0  0  0
    9.2051    6.9101   23.4604 C   0  0  0  0  0  0  0  0  0  0  0  0
   11.9646    6.0299   21.4251 C   0  0  0  0  0  0  0  0  0  0  0  0
  1  5  1  0
  1 13  1  0
  2 20  2  0
  2 28  1  0
  2 29  1  0
  3 19  4  0
  3 25  4  0
  4 23  4  0
  4 27  1  0
  4 30  4  0
  5 17  1  0
  6  8  1  0
  6 29  1  0
  7 24  4  0
  7 26  4  0
  8 28  1  0
  9 13  2  0
 10 18  1  0
 10 21  4  0
 10 30  4  0
 11 17  2  0
 12 18  1  0
 13 15  1  0
 14 24  1  0
 15 25  1  0
 16 28  2  0
 17 20  1  0
 19 24  4  0
 20 23  1  0
 21 22  4  0
 22 23  4  0
 25 26  4  0
 27 29  2  0
M  END
$$$$

 Created by Python create_sdf_string function

 30 33  0  0  0  0  0  0  0  0999 V2000
    8.3036    9.8571   18.4133 C   0  0  0  0  0  0  0  0  0  0  0  0
    8.3694    7.6612   22.6703 C   0  0  0  0  0  0  0  0  0  0  0  0
    8.4143    6.6863   16.2273 C   0  0  0  0  0  0  0  0  0  0  0  0
   10.7581    6.5674   21.7636 C   0  0  0  0  0  0  0  0  0  0  0  0
    8.4452    8.7960   19.2958 O   0  0  0  0  0  0  0  0  0  0  0  0
    8.7122    6.7842   24.8569 C   0  0  0  0  0  0  0  0  0  0  0  0
   10.3400    6.1726   14.3081 C   0  0  0  0  0  0  0  0  0  0  0  0
    7.4297    7.5873   24.8962 C   0  0  0  0  0  0  0  0  0  0  0  0
    8.1566   10.0536   16.0516 O   0  0  0  0  0  0  0  0  0  0  0  0
   12.4989    6.2074   20.1776 C   0  0  0  0  0  0  0  0  0  0  0  0
    6.9192    9.1053   20.9073 O   0  0  0  0  0  0  0  0  0  0  0  0
   14.3979    6.0729   18.7784 C   0  0  0  0  0  0  0  0  0  0  0  0
    8.6811    9.5354   16.9998 C   0  0  0  0  0  0  0  0  0  0  0  0
    9.2512    4.2713   13.7653 O   0  0  0  0  0  0  0  0  0  0  0  0
    9.6495    8.6317   16.8332 N   0  0  0  0  0  0  0  0  0  0  0  0
    6.2934    8.6988   23.1988 O   0  0  0  0  0  0  0  0  0  0  0  0
    7.9806    8.6543   20.5437 C   0  0  0  0  0  0  0  0  0  0  0  0
   13.7270    5.7144   19.8610 O   0  0  0  0  0  0  0  0  0  0  0  0
    8.3351    5.5235   15.4478 C   0  0  0  0  0  0  0  0  0  0  0  0
    8.7700    7.8434   21.3915 C   0  0  0  0  0  0  0  0  0  0  0  0
   11.7856    6.8851   19.2401 C   0  0  0  0  0  0  0  0  0  0  0  0
   10.5281    7.4276   19.5649 C   0  0  0  0  0  0  0  0  0  0  0  0
   10.0256    7.2907   20.8484 C   0  0  0  0  0  0  0  0  0  0  0  0
    9.3113    5.3049   14.4911 C   0  0  0  0  0  0  0  0  0  0  0  0
    9.4607    7.5646   16.0139 C   0  0  0  0  0  0  0  0  0  0  0  0
   10.4192    7.3157   15.0955 C   0  0  0  0  0  0  0  0  0  0  0  0
   10.2489    6.4227   23.0218 N   0  0  0  0  0  0  0  0  0  0  0  0
    7.2472    8.0746   23.5050 C   0  0  0  0  0  0  0  0  0  0  0  0
    9.2051    6.9101   23.4604 C   0  0  0  0  0  0  0  0  0  0  0  0
   11.9646    6.0299   21.4251 C   0  0  0  0  0  0  0  0  0  0  0  0
  1  5  1  0
  1 13  1  0
  2 20  2  0
  2 28  1  0
  2 29  1  0
  3 19  4  0
  3 25  4  0
  4 23  4  0
  4 27  1  0
  4 30  4  0
  5 17  1  0
  6  8  1  0
  6 29  1  0
  7 24  4  0
  7 26  4  0
  8 28  1  0
  9 13  2  0
 10 18  1  0
 10 21  4  0
 10 30  4  0
 11 17  2  0
 12 18  1  0
 13 15  1  0
 14 24  1  0
 15 25  1  0
 16 28  2  0
 17 20  1  0
 19 24  4  0
 20 23  1  0
 21 22  4  0
 22 23  4  0
 25 26  4  0
 27 29  2  0
M  END
$$$$

 Created by Python create_sdf_string function

 30 33  0  0  0  0  0  0  0  0999 V2000
    8.3036    9.8571   18.4133 C   0  0  0  0  0  0  0  0  0  0  0  0
    8.3694    7.6612   22.6703 C   0  0  0  0  0  0  0  0  0  0  0  0
    8.4143    6.6863   16.2273 C   0  0  0  0  0  0  0  0  0  0  0  0
   10.7581    6.5674   21.7636 C   0  0  0  0  0  0  0  0  0  0  0  0
    8.4452    8.7960   19.2958 O   0  0  0  0  0  0  0  0  0  0  0  0
    8.7122    6.7842   24.8569 C   0  0  0  0  0  0  0  0  0  0  0  0
   10.3400    6.1726   14.3081 C   0  0  0  0  0  0  0  0  0  0  0  0
    7.4297    7.5873   24.8962 C   0  0  0  0  0  0  0  0  0  0  0  0
    8.1566   10.0536   16.0516 O   0  0  0  0  0  0  0  0  0  0  0  0
   12.4989    6.2074   20.1776 C   0  0  0  0  0  0  0  0  0  0  0  0
    6.9192    9.1053   20.9073 O   0  0  0  0  0  0  0  0  0  0  0  0
   14.3979    6.0729   18.7784 C   0  0  0  0  0  0  0  0  0  0  0  0
    8.6811    9.5354   16.9998 C   0  0  0  0  0  0  0  0  0  0  0  0
    9.2512    4.2713   13.7653 O   0  0  0  0  0  0  0  0  0  0  0  0
    9.6495    8.6317   16.8332 N   0  0  0  0  0  0  0  0  0  0  0  0
    6.2934    8.6988   23.1988 O   0  0  0  0  0  0  0  0  0  0  0  0
    7.9806    8.6543   20.5437 C   0  0  0  0  0  0  0  0  0  0  0  0
   13.7270    5.7144   19.8610 O   0  0  0  0  0  0  0  0  0  0  0  0
    8.3351    5.5235   15.4478 C   0  0  0  0  0  0  0  0  0  0  0  0
    8.7700    7.8434   21.3915 C   0  0  0  0  0  0  0  0  0  0  0  0
   11.7856    6.8851   19.2401 C   0  0  0  0  0  0  0  0  0  0  0  0
   10.5281    7.4276   19.5649 C   0  0  0  0  0  0  0  0  0  0  0  0
   10.0256    7.2907   20.8484 C   0  0  0  0  0  0  0  0  0  0  0  0
    9.3113    5.3049   14.4911 C   0  0  0  0  0  0  0  0  0  0  0  0
    9.4607    7.5646   16.0139 C   0  0  0  0  0  0  0  0  0  0  0  0
   10.4192    7.3157   15.0955 C   0  0  0  0  0  0  0  0  0  0  0  0
   10.2489    6.4227   23.0218 N   0  0  0  0  0  0  0  0  0  0  0  0
    7.2472    8.0746   23.5050 C   0  0  0  0  0  0  0  0  0  0  0  0
    9.2051    6.9101   23.4604 C   0  0  0  0  0  0  0  0  0  0  0  0
   11.9646    6.0299   21.4251 C   0  0  0  0  0  0  0  0  0  0  0  0
  1  5  1  0
  1 13  1  0
  2 20  2  0
  2 28  1  0
  2 29  1  0
  3 19  4  0
  3 25  4  0
  4 23  4  0
  4 27  1  0
  4 30  4  0
  5 17  1  0
  6  8  1  0
  6 29  1  0
  7 24  4  0
  7 26  4  0
  8 28  1  0
  9 13  2  0
 10 18  1  0
 10 21  4  0
 10 30  4  0
 11 17  2  0
 12 18  1  0
 13 15  1  0
 14 24  1  0
 15 25  1  0
 16 28  2  0
 17 20  1  0
 19 24  4  0
 20 23  1  0
 21 22  4  0
 22 23  4  0
 25 26  4  0
 27 29  2  0
M  END
$$$$

 Created by Python create_sdf_string function

 30 33  0  0  0  0  0  0  0  0999 V2000
    8.3036    9.8571   18.4133 C   0  0  0  0  0  0  0  0  0  0  0  0
    8.3694    7.6612   22.6703 C   0  0  0  0  0  0  0  0  0  0  0  0
    8.4143    6.6863   16.2273 C   0  0  0  0  0  0  0  0  0  0  0  0
   10.7581    6.5674   21.7636 C   0  0  0  0  0  0  0  0  0  0  0  0
    8.4452    8.7960   19.2958 O   0  0  0  0  0  0  0  0  0  0  0  0
    8.7122    6.7842   24.8569 C   0  0  0  0  0  0  0  0  0  0  0  0
   10.3400    6.1726   14.3081 C   0  0  0  0  0  0  0  0  0  0  0  0
    7.4297    7.5873   24.8962 C   0  0  0  0  0  0  0  0  0  0  0  0
    8.1566   10.0536   16.0516 O   0  0  0  0  0  0  0  0  0  0  0  0
   12.4989    6.2074   20.1776 C   0  0  0  0  0  0  0  0  0  0  0  0
    6.9192    9.1053   20.9073 O   0  0  0  0  0  0  0  0  0  0  0  0
   14.3979    6.0729   18.7784 C   0  0  0  0  0  0  0  0  0  0  0  0
    8.6811    9.5354   16.9998 C   0  0  0  0  0  0  0  0  0  0  0  0
    9.2512    4.2713   13.7653 O   0  0  0  0  0  0  0  0  0  0  0  0
    9.6495    8.6317   16.8332 N   0  0  0  0  0  0  0  0  0  0  0  0
    6.2934    8.6988   23.1988 O   0  0  0  0  0  0  0  0  0  0  0  0
    7.9806    8.6543   20.5437 C   0  0  0  0  0  0  0  0  0  0  0  0
   13.7270    5.7144   19.8610 O   0  0  0  0  0  0  0  0  0  0  0  0
    8.3351    5.5235   15.4478 C   0  0  0  0  0  0  0  0  0  0  0  0
    8.7700    7.8434   21.3915 C   0  0  0  0  0  0  0  0  0  0  0  0
   11.7856    6.8851   19.2401 C   0  0  0  0  0  0  0  0  0  0  0  0
   10.5281    7.4276   19.5649 C   0  0  0  0  0  0  0  0  0  0  0  0
   10.0256    7.2907   20.8484 C   0  0  0  0  0  0  0  0  0  0  0  0
    9.3113    5.3049   14.4911 C   0  0  0  0  0  0  0  0  0  0  0  0
    9.4607    7.5646   16.0139 C   0  0  0  0  0  0  0  0  0  0  0  0
   10.4192    7.3157   15.0955 C   0  0  0  0  0  0  0  0  0  0  0  0
   10.2489    6.4227   23.0218 N   0  0  0  0  0  0  0  0  0  0  0  0
    7.2472    8.0746   23.5050 C   0  0  0  0  0  0  0  0  0  0  0  0
    9.2051    6.9101   23.4604 C   0  0  0  0  0  0  0  0  0  0  0  0
   11.9646    6.0299   21.4251 C   0  0  0  0  0  0  0  0  0  0  0  0
  1  5  1  0
  1 13  1  0
  2 20  2  0
  2 28  1  0
  2 29  1  0
  3 19  4  0
  3 25  4  0
  4 23  4  0
  4 27  1  0
  4 30  4  0
  5 17  1  0
  6  8  1  0
  6 29  1  0
  7 24  4  0
  7 26  4  0
  8 28  1  0
  9 13  2  0
 10 18  1  0
 10 21  4  0
 10 30  4  0
 11 17  2  0
 12 18  1  0
 13 15  1  0
 14 24  1  0
 15 25  1  0
 16 28  2  0
 17 20  1  0
 19 24  4  0
 20 23  1  0
 21 22  4  0
 22 23  4  0
 25 26  4  0
 27 29  2  0
M  END
$$$$

 Created by Python create_sdf_string function

 30 33  0  0  0  0  0  0  0  0999 V2000
    8.3036    9.8571   18.4133 C   0  0  0  0  0  0  0  0  0  0  0  0
    8.3694    7.6612   22.6703 C   0  0  0  0  0  0  0  0  0  0  0  0
    8.4143    6.6863   16.2273 C   0  0  0  0  0  0  0  0  0  0  0  0
   10.7581    6.5674   21.7636 C   0  0  0  0  0  0  0  0  0  0  0  0
    8.4452    8.7960   19.2958 O   0  0  0  0  0  0  0  0  0  0  0  0
    8.7122    6.7842   24.8569 C   0  0  0  0  0  0  0  0  0  0  0  0
   10.3400    6.1726   14.3081 C   0  0  0  0  0  0  0  0  0  0  0  0
    7.4297    7.5873   24.8962 C   0  0  0  0  0  0  0  0  0  0  0  0
    8.1566   10.0536   16.0516 O   0  0  0  0  0  0  0  0  0  0  0  0
   12.4989    6.2074   20.1776 C   0  0  0  0  0  0  0  0  0  0  0  0
    6.9192    9.1053   20.9073 O   0  0  0  0  0  0  0  0  0  0  0  0
   14.3979    6.0729   18.7784 C   0  0  0  0  0  0  0  0  0  0  0  0
    8.6811    9.5354   16.9998 C   0  0  0  0  0  0  0  0  0  0  0  0
    9.2512    4.2713   13.7653 O   0  0  0  0  0  0  0  0  0  0  0  0
    9.6495    8.6317   16.8332 N   0  0  0  0  0  0  0  0  0  0  0  0
    6.2934    8.6988   23.1988 O   0  0  0  0  0  0  0  0  0  0  0  0
    7.9806    8.6543   20.5437 C   0  0  0  0  0  0  0  0  0  0  0  0
   13.7270    5.7144   19.8610 O   0  0  0  0  0  0  0  0  0  0  0  0
    8.3351    5.5235   15.4478 C   0  0  0  0  0  0  0  0  0  0  0  0
    8.7700    7.8434   21.3915 C   0  0  0  0  0  0  0  0  0  0  0  0
   11.7856    6.8851   19.2401 C   0  0  0  0  0  0  0  0  0  0  0  0
   10.5281    7.4276   19.5649 C   0  0  0  0  0  0  0  0  0  0  0  0
   10.0256    7.2907   20.8484 C   0  0  0  0  0  0  0  0  0  0  0  0
    9.3113    5.3049   14.4911 C   0  0  0  0  0  0  0  0  0  0  0  0
    9.4607    7.5646   16.0139 C   0  0  0  0  0  0  0  0  0  0  0  0
   10.4192    7.3157   15.0955 C   0  0  0  0  0  0  0  0  0  0  0  0
   10.2489    6.4227   23.0218 N   0  0  0  0  0  0  0  0  0  0  0  0
    7.2472    8.0746   23.5050 C   0  0  0  0  0  0  0  0  0  0  0  0
    9.2051    6.9101   23.4604 C   0  0  0  0  0  0  0  0  0  0  0  0
   11.9646    6.0299   21.4251 C   0  0  0  0  0  0  0  0  0  0  0  0
  1  5  1  0
  1 13  1  0
  2 20  2  0
  2 28  1  0
  2 29  1  0
  3 19  4  0
  3 25  4  0
  4 23  4  0
  4 27  1  0
  4 30  4  0
  5 17  1  0
  6  8  1  0
  6 29  1  0
  7 24  4  0
  7 26  4  0
  8 28  1  0
  9 13  2  0
 10 18  1  0
 10 21  4  0
 10 30  4  0
 11 17  2  0
 12 18  1  0
 13 15  1  0
 14 24  1  0
 15 25  1  0
 16 28  2  0
 17 20  1  0
 19 24  4  0
 20 23  1  0
 21 22  4  0
 22 23  4  0
 25 26  4  0
 27 29  2  0
M  END
$$$$

 Created by Python create_sdf_string function

 30 33  0  0  0  0  0  0  0  0999 V2000
    8.3036    9.8571   18.4133 C   0  0  0  0  0  0  0  0  0  0  0  0
    8.3694    7.6612   22.6703 C   0  0  0  0  0  0  0  0  0  0  0  0
    8.4143    6.6863   16.2273 C   0  0  0  0  0  0  0  0  0  0  0  0
   10.7581    6.5674   21.7636 C   0  0  0  0  0  0  0  0  0  0  0  0
    8.4452    8.7960   19.2958 O   0  0  0  0  0  0  0  0  0  0  0  0
    8.7122    6.7842   24.8569 C   0  0  0  0  0  0  0  0  0  0  0  0
   10.3400    6.1726   14.3081 C   0  0  0  0  0  0  0  0  0  0  0  0
    7.4297    7.5873   24.8962 C   0  0  0  0  0  0  0  0  0  0  0  0
    8.1566   10.0536   16.0516 O   0  0  0  0  0  0  0  0  0  0  0  0
   12.4989    6.2074   20.1776 C   0  0  0  0  0  0  0  0  0  0  0  0
    6.9192    9.1053   20.9073 O   0  0  0  0  0  0  0  0  0  0  0  0
   14.3979    6.0729   18.7784 C   0  0  0  0  0  0  0  0  0  0  0  0
    8.6811    9.5354   16.9998 C   0  0  0  0  0  0  0  0  0  0  0  0
    9.2512    4.2713   13.7653 O   0  0  0  0  0  0  0  0  0  0  0  0
    9.6495    8.6317   16.8332 N   0  0  0  0  0  0  0  0  0  0  0  0
    6.2934    8.6988   23.1988 O   0  0  0  0  0  0  0  0  0  0  0  0
    7.9806    8.6543   20.5437 C   0  0  0  0  0  0  0  0  0  0  0  0
   13.7270    5.7144   19.8610 O   0  0  0  0  0  0  0  0  0  0  0  0
    8.3351    5.5235   15.4478 C   0  0  0  0  0  0  0  0  0  0  0  0
    8.7700    7.8434   21.3915 C   0  0  0  0  0  0  0  0  0  0  0  0
   11.7856    6.8851   19.2401 C   0  0  0  0  0  0  0  0  0  0  0  0
   10.5281    7.4276   19.5649 C   0  0  0  0  0  0  0  0  0  0  0  0
   10.0256    7.2907   20.8484 C   0  0  0  0  0  0  0  0  0  0  0  0
    9.3113    5.3049   14.4911 C   0  0  0  0  0  0  0  0  0  0  0  0
    9.4607    7.5646   16.0139 C   0  0  0  0  0  0  0  0  0  0  0  0
   10.4192    7.3157   15.0955 C   0  0  0  0  0  0  0  0  0  0  0  0
   10.2489    6.4227   23.0218 N   0  0  0  0  0  0  0  0  0  0  0  0
    7.2472    8.0746   23.5050 C   0  0  0  0  0  0  0  0  0  0  0  0
    9.2051    6.9101   23.4604 C   0  0  0  0  0  0  0  0  0  0  0  0
   11.9646    6.0299   21.4251 C   0  0  0  0  0  0  0  0  0  0  0  0
  1  5  1  0
  1 13  1  0
  2 20  2  0
  2 28  1  0
  2 29  1  0
  3 19  4  0
  3 25  4  0
  4 23  4  0
  4 27  1  0
  4 30  4  0
  5 17  1  0
  6  8  1  0
  6 29  1  0
  7 24  4  0
  7 26  4  0
  8 28  1  0
  9 13  2  0
 10 18  1  0
 10 21  4  0
 10 30  4  0
 11 17  2  0
 12 18  1  0
 13 15  1  0
 14 24  1  0
 15 25  1  0
 16 28  2  0
 17 20  1  0
 19 24  4  0
 20 23  1  0
 21 22  4  0
 22 23  4  0
 25 26  4  0
 27 29  2  0
M  END
$$$$

 Created by Python create_sdf_string function

 30 33  0  0  0  0  0  0  0  0999 V2000
    8.3036    9.8571   18.4133 C   0  0  0  0  0  0  0  0  0  0  0  0
    8.3694    7.6612   22.6703 C   0  0  0  0  0  0  0  0  0  0  0  0
    8.4143    6.6863   16.2273 C   0  0  0  0  0  0  0  0  0  0  0  0
   10.7581    6.5674   21.7636 C   0  0  0  0  0  0  0  0  0  0  0  0
    8.4452    8.7960   19.2958 O   0  0  0  0  0  0  0  0  0  0  0  0
    8.7122    6.7842   24.8569 C   0  0  0  0  0  0  0  0  0  0  0  0
   10.3400    6.1726   14.3081 C   0  0  0  0  0  0  0  0  0  0  0  0
    7.4297    7.5873   24.8962 C   0  0  0  0  0  0  0  0  0  0  0  0
    8.1566   10.0536   16.0516 O   0  0  0  0  0  0  0  0  0  0  0  0
   12.4989    6.2074   20.1776 C   0  0  0  0  0  0  0  0  0  0  0  0
    6.9192    9.1053   20.9073 O   0  0  0  0  0  0  0  0  0  0  0  0
   14.3979    6.0729   18.7784 C   0  0  0  0  0  0  0  0  0  0  0  0
    8.6811    9.5354   16.9998 C   0  0  0  0  0  0  0  0  0  0  0  0
    9.2512    4.2713   13.7653 O   0  0  0  0  0  0  0  0  0  0  0  0
    9.6495    8.6317   16.8332 N   0  0  0  0  0  0  0  0  0  0  0  0
    6.2934    8.6988   23.1988 O   0  0  0  0  0  0  0  0  0  0  0  0
    7.9806    8.6543   20.5437 C   0  0  0  0  0  0  0  0  0  0  0  0
   13.7270    5.7144   19.8610 O   0  0  0  0  0  0  0  0  0  0  0  0
    8.3351    5.5235   15.4478 C   0  0  0  0  0  0  0  0  0  0  0  0
    8.7700    7.8434   21.3915 C   0  0  0  0  0  0  0  0  0  0  0  0
   11.7856    6.8851   19.2401 C   0  0  0  0  0  0  0  0  0  0  0  0
   10.5281    7.4276   19.5649 C   0  0  0  0  0  0  0  0  0  0  0  0
   10.0256    7.2907   20.8484 C   0  0  0  0  0  0  0  0  0  0  0  0
    9.3113    5.3049   14.4911 C   0  0  0  0  0  0  0  0  0  0  0  0
    9.4607    7.5646   16.0139 C   0  0  0  0  0  0  0  0  0  0  0  0
   10.4192    7.3157   15.0955 C   0  0  0  0  0  0  0  0  0  0  0  0
   10.2489    6.4227   23.0218 N   0  0  0  0  0  0  0  0  0  0  0  0
    7.2472    8.0746   23.5050 C   0  0  0  0  0  0  0  0  0  0  0  0
    9.2051    6.9101   23.4604 C   0  0  0  0  0  0  0  0  0  0  0  0
   11.9646    6.0299   21.4251 C   0  0  0  0  0  0  0  0  0  0  0  0
  1  5  1  0
  1 13  1  0
  2 20  2  0
  2 28  1  0
  2 29  1  0
  3 19  4  0
  3 25  4  0
  4 23  4  0
  4 27  1  0
  4 30  4  0
  5 17  1  0
  6  8  1  0
  6 29  1  0
  7 24  4  0
  7 26  4  0
  8 28  1  0
  9 13  2  0
 10 18  1  0
 10 21  4  0
 10 30  4  0
 11 17  2  0
 12 18  1  0
 13 15  1  0
 14 24  1  0
 15 25  1  0
 16 28  2  0
 17 20  1  0
 19 24  4  0
 20 23  1  0
 21 22  4  0
 22 23  4  0
 25 26  4  0
 27 29  2  0
M  END
$$$$

 Created by Python create_sdf_string function

 30 33  0  0  0  0  0  0  0  0999 V2000
    8.3036    9.8571   18.4133 C   0  0  0  0  0  0  0  0  0  0  0  0
    8.3694    7.6612   22.6703 C   0  0  0  0  0  0  0  0  0  0  0  0
    8.4143    6.6863   16.2273 C   0  0  0  0  0  0  0  0  0  0  0  0
   10.7581    6.5674   21.7636 C   0  0  0  0  0  0  0  0  0  0  0  0
    8.4452    8.7960   19.2958 O   0  0  0  0  0  0  0  0  0  0  0  0
    8.7122    6.7842   24.8569 C   0  0  0  0  0  0  0  0  0  0  0  0
   10.3400    6.1726   14.3081 C   0  0  0  0  0  0  0  0  0  0  0  0
    7.4297    7.5873   24.8962 C   0  0  0  0  0  0  0  0  0  0  0  0
    8.1566   10.0536   16.0516 O   0  0  0  0  0  0  0  0  0  0  0  0
   12.4989    6.2074   20.1776 C   0  0  0  0  0  0  0  0  0  0  0  0
    6.9192    9.1053   20.9073 O   0  0  0  0  0  0  0  0  0  0  0  0
   14.3979    6.0729   18.7784 C   0  0  0  0  0  0  0  0  0  0  0  0
    8.6811    9.5354   16.9998 C   0  0  0  0  0  0  0  0  0  0  0  0
    9.2512    4.2713   13.7653 O   0  0  0  0  0  0  0  0  0  0  0  0
    9.6495    8.6317   16.8332 N   0  0  0  0  0  0  0  0  0  0  0  0
    6.2934    8.6988   23.1988 O   0  0  0  0  0  0  0  0  0  0  0  0
    7.9806    8.6543   20.5437 C   0  0  0  0  0  0  0  0  0  0  0  0
   13.7270    5.7144   19.8610 O   0  0  0  0  0  0  0  0  0  0  0  0
    8.3351    5.5235   15.4478 C   0  0  0  0  0  0  0  0  0  0  0  0
    8.7700    7.8434   21.3915 C   0  0  0  0  0  0  0  0  0  0  0  0
   11.7856    6.8851   19.2401 C   0  0  0  0  0  0  0  0  0  0  0  0
   10.5281    7.4276   19.5649 C   0  0  0  0  0  0  0  0  0  0  0  0
   10.0256    7.2907   20.8484 C   0  0  0  0  0  0  0  0  0  0  0  0
    9.3113    5.3049   14.4911 C   0  0  0  0  0  0  0  0  0  0  0  0
    9.4607    7.5646   16.0139 C   0  0  0  0  0  0  0  0  0  0  0  0
   10.4192    7.3157   15.0955 C   0  0  0  0  0  0  0  0  0  0  0  0
   10.2489    6.4227   23.0218 N   0  0  0  0  0  0  0  0  0  0  0  0
    7.2472    8.0746   23.5050 C   0  0  0  0  0  0  0  0  0  0  0  0
    9.2051    6.9101   23.4604 C   0  0  0  0  0  0  0  0  0  0  0  0
   11.9646    6.0299   21.4251 C   0  0  0  0  0  0  0  0  0  0  0  0
  1  5  1  0
  1 13  1  0
  2 20  2  0
  2 28  1  0
  2 29  1  0
  3 19  4  0
  3 25  4  0
  4 23  4  0
  4 27  1  0
  4 30  4  0
  5 17  1  0
  6  8  1  0
  6 29  1  0
  7 24  4  0
  7 26  4  0
  8 28  1  0
  9 13  2  0
 10 18  1  0
 10 21  4  0
 10 30  4  0
 11 17  2  0
 12 18  1  0
 13 15  1  0
 14 24  1  0
 15 25  1  0
 16 28  2  0
 17 20  1  0
 19 24  4  0
 20 23  1  0
 21 22  4  0
 22 23  4  0
 25 26  4  0
 27 29  2  0
M  END
$$$$

 Created by Python create_sdf_string function

 30 33  0  0  0  0  0  0  0  0999 V2000
    8.3036    9.8571   18.4133 C   0  0  0  0  0  0  0  0  0  0  0  0
    8.3694    7.6612   22.6703 C   0  0  0  0  0  0  0  0  0  0  0  0
    8.4143    6.6863   16.2273 C   0  0  0  0  0  0  0  0  0  0  0  0
   10.7581    6.5674   21.7636 C   0  0  0  0  0  0  0  0  0  0  0  0
    8.4452    8.7960   19.2958 O   0  0  0  0  0  0  0  0  0  0  0  0
    8.7122    6.7842   24.8569 C   0  0  0  0  0  0  0  0  0  0  0  0
   10.3400    6.1726   14.3081 C   0  0  0  0  0  0  0  0  0  0  0  0
    7.4297    7.5873   24.8962 C   0  0  0  0  0  0  0  0  0  0  0  0
    8.1566   10.0536   16.0516 O   0  0  0  0  0  0  0  0  0  0  0  0
   12.4989    6.2074   20.1776 C   0  0  0  0  0  0  0  0  0  0  0  0
    6.9192    9.1053   20.9073 O   0  0  0  0  0  0  0  0  0  0  0  0
   14.3979    6.0729   18.7784 C   0  0  0  0  0  0  0  0  0  0  0  0
    8.6811    9.5354   16.9998 C   0  0  0  0  0  0  0  0  0  0  0  0
    9.2512    4.2713   13.7653 O   0  0  0  0  0  0  0  0  0  0  0  0
    9.6495    8.6317   16.8332 N   0  0  0  0  0  0  0  0  0  0  0  0
    6.2934    8.6988   23.1988 O   0  0  0  0  0  0  0  0  0  0  0  0
    7.9806    8.6543   20.5437 C   0  0  0  0  0  0  0  0  0  0  0  0
   13.7270    5.7144   19.8610 O   0  0  0  0  0  0  0  0  0  0  0  0
    8.3351    5.5235   15.4478 C   0  0  0  0  0  0  0  0  0  0  0  0
    8.7700    7.8434   21.3915 C   0  0  0  0  0  0  0  0  0  0  0  0
   11.7856    6.8851   19.2401 C   0  0  0  0  0  0  0  0  0  0  0  0
   10.5281    7.4276   19.5649 C   0  0  0  0  0  0  0  0  0  0  0  0
   10.0256    7.2907   20.8484 C   0  0  0  0  0  0  0  0  0  0  0  0
    9.3113    5.3049   14.4911 C   0  0  0  0  0  0  0  0  0  0  0  0
    9.4607    7.5646   16.0139 C   0  0  0  0  0  0  0  0  0  0  0  0
   10.4192    7.3157   15.0955 C   0  0  0  0  0  0  0  0  0  0  0  0
   10.2489    6.4227   23.0218 N   0  0  0  0  0  0  0  0  0  0  0  0
    7.2472    8.0746   23.5050 C   0  0  0  0  0  0  0  0  0  0  0  0
    9.2051    6.9101   23.4604 C   0  0  0  0  0  0  0  0  0  0  0  0
   11.9646    6.0299   21.4251 C   0  0  0  0  0  0  0  0  0  0  0  0
  1  5  1  0
  1 13  1  0
  2 20  2  0
  2 28  1  0
  2 29  1  0
  3 19  4  0
  3 25  4  0
  4 23  4  0
  4 27  1  0
  4 30  4  0
  5 17  1  0
  6  8  1  0
  6 29  1  0
  7 24  4  0
  7 26  4  0
  8 28  1  0
  9 13  2  0
 10 18  1  0
 10 21  4  0
 10 30  4  0
 11 17  2  0
 12 18  1  0
 13 15  1  0
 14 24  1  0
 15 25  1  0
 16 28  2  0
 17 20  1  0
 19 24  4  0
 20 23  1  0
 21 22  4  0
 22 23  4  0
 25 26  4  0
 27 29  2  0
M  END
$$$$

 Created by Python create_sdf_string function

 30 33  0  0  0  0  0  0  0  0999 V2000
    8.3036    9.8571   18.4133 C   0  0  0  0  0  0  0  0  0  0  0  0
    8.3694    7.6612   22.6703 C   0  0  0  0  0  0  0  0  0  0  0  0
    8.4143    6.6863   16.2273 C   0  0  0  0  0  0  0  0  0  0  0  0
   10.7581    6.5674   21.7636 C   0  0  0  0  0  0  0  0  0  0  0  0
    8.4452    8.7960   19.2958 O   0  0  0  0  0  0  0  0  0  0  0  0
    8.7122    6.7842   24.8569 C   0  0  0  0  0  0  0  0  0  0  0  0
   10.3400    6.1726   14.3081 C   0  0  0  0  0  0  0  0  0  0  0  0
    7.4297    7.5873   24.8962 C   0  0  0  0  0  0  0  0  0  0  0  0
    8.1566   10.0536   16.0516 O   0  0  0  0  0  0  0  0  0  0  0  0
   12.4989    6.2074   20.1776 C   0  0  0  0  0  0  0  0  0  0  0  0
    6.9192    9.1053   20.9073 O   0  0  0  0  0  0  0  0  0  0  0  0
   14.3979    6.0729   18.7784 C   0  0  0  0  0  0  0  0  0  0  0  0
    8.6811    9.5354   16.9998 C   0  0  0  0  0  0  0  0  0  0  0  0
    9.2512    4.2713   13.7653 O   0  0  0  0  0  0  0  0  0  0  0  0
    9.6495    8.6317   16.8332 N   0  0  0  0  0  0  0  0  0  0  0  0
    6.2934    8.6988   23.1988 O   0  0  0  0  0  0  0  0  0  0  0  0
    7.9806    8.6543   20.5437 C   0  0  0  0  0  0  0  0  0  0  0  0
   13.7270    5.7144   19.8610 O   0  0  0  0  0  0  0  0  0  0  0  0
    8.3351    5.5235   15.4478 C   0  0  0  0  0  0  0  0  0  0  0  0
    8.7700    7.8434   21.3915 C   0  0  0  0  0  0  0  0  0  0  0  0
   11.7856    6.8851   19.2401 C   0  0  0  0  0  0  0  0  0  0  0  0
   10.5281    7.4276   19.5649 C   0  0  0  0  0  0  0  0  0  0  0  0
   10.0256    7.2907   20.8484 C   0  0  0  0  0  0  0  0  0  0  0  0
    9.3113    5.3049   14.4911 C   0  0  0  0  0  0  0  0  0  0  0  0
    9.4607    7.5646   16.0139 C   0  0  0  0  0  0  0  0  0  0  0  0
   10.4192    7.3157   15.0955 C   0  0  0  0  0  0  0  0  0  0  0  0
   10.2489    6.4227   23.0218 N   0  0  0  0  0  0  0  0  0  0  0  0
    7.2472    8.0746   23.5050 C   0  0  0  0  0  0  0  0  0  0  0  0
    9.2051    6.9101   23.4604 C   0  0  0  0  0  0  0  0  0  0  0  0
   11.9646    6.0299   21.4251 C   0  0  0  0  0  0  0  0  0  0  0  0
  1  5  1  0
  1 13  1  0
  2 20  2  0
  2 28  1  0
  2 29  1  0
  3 19  4  0
  3 25  4  0
  4 23  4  0
  4 27  1  0
  4 30  4  0
  5 17  1  0
  6  8  1  0
  6 29  1  0
  7 24  4  0
  7 26  4  0
  8 28  1  0
  9 13  2  0
 10 18  1  0
 10 21  4  0
 10 30  4  0
 11 17  2  0
 12 18  1  0
 13 15  1  0
 14 24  1  0
 15 25  1  0
 16 28  2  0
 17 20  1  0
 19 24  4  0
 20 23  1  0
 21 22  4  0
 22 23  4  0
 25 26  4  0
 27 29  2  0
M  END
$$$$

 Created by Python create_sdf_string function

 30 33  0  0  0  0  0  0  0  0999 V2000
    8.3036    9.8571   18.4133 C   0  0  0  0  0  0  0  0  0  0  0  0
    8.3694    7.6612   22.6703 C   0  0  0  0  0  0  0  0  0  0  0  0
    8.4143    6.6863   16.2273 C   0  0  0  0  0  0  0  0  0  0  0  0
   10.7581    6.5674   21.7636 C   0  0  0  0  0  0  0  0  0  0  0  0
    8.4452    8.7960   19.2958 O   0  0  0  0  0  0  0  0  0  0  0  0
    8.7122    6.7842   24.8569 C   0  0  0  0  0  0  0  0  0  0  0  0
   10.3400    6.1726   14.3081 C   0  0  0  0  0  0  0  0  0  0  0  0
    7.4297    7.5873   24.8962 C   0  0  0  0  0  0  0  0  0  0  0  0
    8.1566   10.0536   16.0516 O   0  0  0  0  0  0  0  0  0  0  0  0
   12.4989    6.2074   20.1776 C   0  0  0  0  0  0  0  0  0  0  0  0
    6.9192    9.1053   20.9073 O   0  0  0  0  0  0  0  0  0  0  0  0
   14.3979    6.0729   18.7784 C   0  0  0  0  0  0  0  0  0  0  0  0
    8.6811    9.5354   16.9998 C   0  0  0  0  0  0  0  0  0  0  0  0
    9.2512    4.2713   13.7653 O   0  0  0  0  0  0  0  0  0  0  0  0
    9.6495    8.6317   16.8332 N   0  0  0  0  0  0  0  0  0  0  0  0
    6.2934    8.6988   23.1988 O   0  0  0  0  0  0  0  0  0  0  0  0
    7.9806    8.6543   20.5437 C   0  0  0  0  0  0  0  0  0  0  0  0
   13.7270    5.7144   19.8610 O   0  0  0  0  0  0  0  0  0  0  0  0
    8.3351    5.5235   15.4478 C   0  0  0  0  0  0  0  0  0  0  0  0
    8.7700    7.8434   21.3915 C   0  0  0  0  0  0  0  0  0  0  0  0
   11.7856    6.8851   19.2401 C   0  0  0  0  0  0  0  0  0  0  0  0
   10.5281    7.4276   19.5649 C   0  0  0  0  0  0  0  0  0  0  0  0
   10.0256    7.2907   20.8484 C   0  0  0  0  0  0  0  0  0  0  0  0
    9.3113    5.3049   14.4911 C   0  0  0  0  0  0  0  0  0  0  0  0
    9.4607    7.5646   16.0139 C   0  0  0  0  0  0  0  0  0  0  0  0
   10.4192    7.3157   15.0955 C   0  0  0  0  0  0  0  0  0  0  0  0
   10.2489    6.4227   23.0218 N   0  0  0  0  0  0  0  0  0  0  0  0
    7.2472    8.0746   23.5050 C   0  0  0  0  0  0  0  0  0  0  0  0
    9.2051    6.9101   23.4604 C   0  0  0  0  0  0  0  0  0  0  0  0
   11.9646    6.0299   21.4251 C   0  0  0  0  0  0  0  0  0  0  0  0
  1  5  1  0
  1 13  1  0
  2 20  2  0
  2 28  1  0
  2 29  1  0
  3 19  4  0
  3 25  4  0
  4 23  4  0
  4 27  1  0
  4 30  4  0
  5 17  1  0
  6  8  1  0
  6 29  1  0
  7 24  4  0
  7 26  4  0
  8 28  1  0
  9 13  2  0
 10 18  1  0
 10 21  4  0
 10 30  4  0
 11 17  2  0
 12 18  1  0
 13 15  1  0
 14 24  1  0
 15 25  1  0
 16 28  2  0
 17 20  1  0
 19 24  4  0
 20 23  1  0
 21 22  4  0
 22 23  4  0
 25 26  4  0
 27 29  2  0
M  END
$$$$

 Created by Python create_sdf_string function

 30 33  0  0  0  0  0  0  0  0999 V2000
    8.3036    9.8571   18.4133 C   0  0  0  0  0  0  0  0  0  0  0  0
    8.3694    7.6612   22.6703 C   0  0  0  0  0  0  0  0  0  0  0  0
    8.4143    6.6863   16.2273 C   0  0  0  0  0  0  0  0  0  0  0  0
   10.7581    6.5674   21.7636 C   0  0  0  0  0  0  0  0  0  0  0  0
    8.4452    8.7960   19.2958 O   0  0  0  0  0  0  0  0  0  0  0  0
    8.7122    6.7842   24.8569 C   0  0  0  0  0  0  0  0  0  0  0  0
   10.3400    6.1726   14.3081 C   0  0  0  0  0  0  0  0  0  0  0  0
    7.4297    7.5873   24.8962 C   0  0  0  0  0  0  0  0  0  0  0  0
    8.1566   10.0536   16.0516 O   0  0  0  0  0  0  0  0  0  0  0  0
   12.4989    6.2074   20.1776 C   0  0  0  0  0  0  0  0  0  0  0  0
    6.9192    9.1053   20.9073 O   0  0  0  0  0  0  0  0  0  0  0  0
   14.3979    6.0729   18.7784 C   0  0  0  0  0  0  0  0  0  0  0  0
    8.6811    9.5354   16.9998 C   0  0  0  0  0  0  0  0  0  0  0  0
    9.2512    4.2713   13.7653 O   0  0  0  0  0  0  0  0  0  0  0  0
    9.6495    8.6317   16.8332 N   0  0  0  0  0  0  0  0  0  0  0  0
    6.2934    8.6988   23.1988 O   0  0  0  0  0  0  0  0  0  0  0  0
    7.9806    8.6543   20.5437 C   0  0  0  0  0  0  0  0  0  0  0  0
   13.7270    5.7144   19.8610 O   0  0  0  0  0  0  0  0  0  0  0  0
    8.3351    5.5235   15.4478 C   0  0  0  0  0  0  0  0  0  0  0  0
    8.7700    7.8434   21.3915 C   0  0  0  0  0  0  0  0  0  0  0  0
   11.7856    6.8851   19.2401 C   0  0  0  0  0  0  0  0  0  0  0  0
   10.5281    7.4276   19.5649 C   0  0  0  0  0  0  0  0  0  0  0  0
   10.0256    7.2907   20.8484 C   0  0  0  0  0  0  0  0  0  0  0  0
    9.3113    5.3049   14.4911 C   0  0  0  0  0  0  0  0  0  0  0  0
    9.4607    7.5646   16.0139 C   0  0  0  0  0  0  0  0  0  0  0  0
   10.4192    7.3157   15.0955 C   0  0  0  0  0  0  0  0  0  0  0  0
   10.2489    6.4227   23.0218 N   0  0  0  0  0  0  0  0  0  0  0  0
    7.2472    8.0746   23.5050 C   0  0  0  0  0  0  0  0  0  0  0  0
    9.2051    6.9101   23.4604 C   0  0  0  0  0  0  0  0  0  0  0  0
   11.9646    6.0299   21.4251 C   0  0  0  0  0  0  0  0  0  0  0  0
  1  5  1  0
  1 13  1  0
  2 20  2  0
  2 28  1  0
  2 29  1  0
  3 19  4  0
  3 25  4  0
  4 23  4  0
  4 27  1  0
  4 30  4  0
  5 17  1  0
  6  8  1  0
  6 29  1  0
  7 24  4  0
  7 26  4  0
  8 28  1  0
  9 13  2  0
 10 18  1  0
 10 21  4  0
 10 30  4  0
 11 17  2  0
 12 18  1  0
 13 15  1  0
 14 24  1  0
 15 25  1  0
 16 28  2  0
 17 20  1  0
 19 24  4  0
 20 23  1  0
 21 22  4  0
 22 23  4  0
 25 26  4  0
 27 29  2  0
M  END
$$$$

 Created by Python create_sdf_string function

 30 33  0  0  0  0  0  0  0  0999 V2000
    8.3036    9.8571   18.4133 C   0  0  0  0  0  0  0  0  0  0  0  0
    8.3694    7.6612   22.6703 C   0  0  0  0  0  0  0  0  0  0  0  0
    8.4143    6.6863   16.2273 C   0  0  0  0  0  0  0  0  0  0  0  0
   10.7581    6.5674   21.7636 C   0  0  0  0  0  0  0  0  0  0  0  0
    8.4452    8.7960   19.2958 O   0  0  0  0  0  0  0  0  0  0  0  0
    8.7122    6.7842   24.8569 C   0  0  0  0  0  0  0  0  0  0  0  0
   10.3400    6.1726   14.3081 C   0  0  0  0  0  0  0  0  0  0  0  0
    7.4297    7.5873   24.8962 C   0  0  0  0  0  0  0  0  0  0  0  0
    8.1566   10.0536   16.0516 O   0  0  0  0  0  0  0  0  0  0  0  0
   12.4989    6.2074   20.1776 C   0  0  0  0  0  0  0  0  0  0  0  0
    6.9192    9.1053   20.9073 O   0  0  0  0  0  0  0  0  0  0  0  0
   14.3979    6.0729   18.7784 C   0  0  0  0  0  0  0  0  0  0  0  0
    8.6811    9.5354   16.9998 C   0  0  0  0  0  0  0  0  0  0  0  0
    9.2512    4.2713   13.7653 O   0  0  0  0  0  0  0  0  0  0  0  0
    9.6495    8.6317   16.8332 N   0  0  0  0  0  0  0  0  0  0  0  0
    6.2934    8.6988   23.1988 O   0  0  0  0  0  0  0  0  0  0  0  0
    7.9806    8.6543   20.5437 C   0  0  0  0  0  0  0  0  0  0  0  0
   13.7270    5.7144   19.8610 O   0  0  0  0  0  0  0  0  0  0  0  0
    8.3351    5.5235   15.4478 C   0  0  0  0  0  0  0  0  0  0  0  0
    8.7700    7.8434   21.3915 C   0  0  0  0  0  0  0  0  0  0  0  0
   11.7856    6.8851   19.2401 C   0  0  0  0  0  0  0  0  0  0  0  0
   10.5281    7.4276   19.5649 C   0  0  0  0  0  0  0  0  0  0  0  0
   10.0256    7.2907   20.8484 C   0  0  0  0  0  0  0  0  0  0  0  0
    9.3113    5.3049   14.4911 C   0  0  0  0  0  0  0  0  0  0  0  0
    9.4607    7.5646   16.0139 C   0  0  0  0  0  0  0  0  0  0  0  0
   10.4192    7.3157   15.0955 C   0  0  0  0  0  0  0  0  0  0  0  0
   10.2489    6.4227   23.0218 N   0  0  0  0  0  0  0  0  0  0  0  0
    7.2472    8.0746   23.5050 C   0  0  0  0  0  0  0  0  0  0  0  0
    9.2051    6.9101   23.4604 C   0  0  0  0  0  0  0  0  0  0  0  0
   11.9646    6.0299   21.4251 C   0  0  0  0  0  0  0  0  0  0  0  0
  1  5  1  0
  1 13  1  0
  2 20  2  0
  2 28  1  0
  2 29  1  0
  3 19  4  0
  3 25  4  0
  4 23  4  0
  4 27  1  0
  4 30  4  0
  5 17  1  0
  6  8  1  0
  6 29  1  0
  7 24  4  0
  7 26  4  0
  8 28  1  0
  9 13  2  0
 10 18  1  0
 10 21  4  0
 10 30  4  0
 11 17  2  0
 12 18  1  0
 13 15  1  0
 14 24  1  0
 15 25  1  0
 16 28  2  0
 17 20  1  0
 19 24  4  0
 20 23  1  0
 21 22  4  0
 22 23  4  0
 25 26  4  0
 27 29  2  0
M  END
$$$$

 Created by Python create_sdf_string function

 30 33  0  0  0  0  0  0  0  0999 V2000
    8.3036    9.8571   18.4133 C   0  0  0  0  0  0  0  0  0  0  0  0
    8.3694    7.6612   22.6703 C   0  0  0  0  0  0  0  0  0  0  0  0
    8.4143    6.6863   16.2273 C   0  0  0  0  0  0  0  0  0  0  0  0
   10.7581    6.5674   21.7636 C   0  0  0  0  0  0  0  0  0  0  0  0
    8.4452    8.7960   19.2958 O   0  0  0  0  0  0  0  0  0  0  0  0
    8.7122    6.7842   24.8569 C   0  0  0  0  0  0  0  0  0  0  0  0
   10.3400    6.1726   14.3081 C   0  0  0  0  0  0  0  0  0  0  0  0
    7.4297    7.5873   24.8962 C   0  0  0  0  0  0  0  0  0  0  0  0
    8.1566   10.0536   16.0516 O   0  0  0  0  0  0  0  0  0  0  0  0
   12.4989    6.2074   20.1776 C   0  0  0  0  0  0  0  0  0  0  0  0
    6.9192    9.1053   20.9073 O   0  0  0  0  0  0  0  0  0  0  0  0
   14.3979    6.0729   18.7784 C   0  0  0  0  0  0  0  0  0  0  0  0
    8.6811    9.5354   16.9998 C   0  0  0  0  0  0  0  0  0  0  0  0
    9.2512    4.2713   13.7653 O   0  0  0  0  0  0  0  0  0  0  0  0
    9.6495    8.6317   16.8332 N   0  0  0  0  0  0  0  0  0  0  0  0
    6.2934    8.6988   23.1988 O   0  0  0  0  0  0  0  0  0  0  0  0
    7.9806    8.6543   20.5437 C   0  0  0  0  0  0  0  0  0  0  0  0
   13.7270    5.7144   19.8610 O   0  0  0  0  0  0  0  0  0  0  0  0
    8.3351    5.5235   15.4478 C   0  0  0  0  0  0  0  0  0  0  0  0
    8.7700    7.8434   21.3915 C   0  0  0  0  0  0  0  0  0  0  0  0
   11.7856    6.8851   19.2401 C   0  0  0  0  0  0  0  0  0  0  0  0
   10.5281    7.4276   19.5649 C   0  0  0  0  0  0  0  0  0  0  0  0
   10.0256    7.2907   20.8484 C   0  0  0  0  0  0  0  0  0  0  0  0
    9.3113    5.3049   14.4911 C   0  0  0  0  0  0  0  0  0  0  0  0
    9.4607    7.5646   16.0139 C   0  0  0  0  0  0  0  0  0  0  0  0
   10.4192    7.3157   15.0955 C   0  0  0  0  0  0  0  0  0  0  0  0
   10.2489    6.4227   23.0218 N   0  0  0  0  0  0  0  0  0  0  0  0
    7.2472    8.0746   23.5050 C   0  0  0  0  0  0  0  0  0  0  0  0
    9.2051    6.9101   23.4604 C   0  0  0  0  0  0  0  0  0  0  0  0
   11.9646    6.0299   21.4251 C   0  0  0  0  0  0  0  0  0  0  0  0
  1  5  1  0
  1 13  1  0
  2 20  2  0
  2 28  1  0
  2 29  1  0
  3 19  4  0
  3 25  4  0
  4 23  4  0
  4 27  1  0
  4 30  4  0
  5 17  1  0
  6  8  1  0
  6 29  1  0
  7 24  4  0
  7 26  4  0
  8 28  1  0
  9 13  2  0
 10 18  1  0
 10 21  4  0
 10 30  4  0
 11 17  2  0
 12 18  1  0
 13 15  1  0
 14 24  1  0
 15 25  1  0
 16 28  2  0
 17 20  1  0
 19 24  4  0
 20 23  1  0
 21 22  4  0
 22 23  4  0
 25 26  4  0
 27 29  2  0
M  END
$$$$

 Created by Python create_sdf_string function

 30 33  0  0  0  0  0  0  0  0999 V2000
    8.3036    9.8571   18.4133 C   0  0  0  0  0  0  0  0  0  0  0  0
    8.3694    7.6612   22.6703 C   0  0  0  0  0  0  0  0  0  0  0  0
    8.4143    6.6863   16.2273 C   0  0  0  0  0  0  0  0  0  0  0  0
   10.7581    6.5674   21.7636 C   0  0  0  0  0  0  0  0  0  0  0  0
    8.4452    8.7960   19.2958 O   0  0  0  0  0  0  0  0  0  0  0  0
    8.7122    6.7842   24.8569 C   0  0  0  0  0  0  0  0  0  0  0  0
   10.3400    6.1726   14.3081 C   0  0  0  0  0  0  0  0  0  0  0  0
    7.4297    7.5873   24.8962 C   0  0  0  0  0  0  0  0  0  0  0  0
    8.1566   10.0536   16.0516 O   0  0  0  0  0  0  0  0  0  0  0  0
   12.4989    6.2074   20.1776 C   0  0  0  0  0  0  0  0  0  0  0  0
    6.9192    9.1053   20.9073 O   0  0  0  0  0  0  0  0  0  0  0  0
   14.3979    6.0729   18.7784 C   0  0  0  0  0  0  0  0  0  0  0  0
    8.6811    9.5354   16.9998 C   0  0  0  0  0  0  0  0  0  0  0  0
    9.2512    4.2713   13.7653 O   0  0  0  0  0  0  0  0  0  0  0  0
    9.6495    8.6317   16.8332 N   0  0  0  0  0  0  0  0  0  0  0  0
    6.2934    8.6988   23.1988 O   0  0  0  0  0  0  0  0  0  0  0  0
    7.9806    8.6543   20.5437 C   0  0  0  0  0  0  0  0  0  0  0  0
   13.7270    5.7144   19.8610 O   0  0  0  0  0  0  0  0  0  0  0  0
    8.3351    5.5235   15.4478 C   0  0  0  0  0  0  0  0  0  0  0  0
    8.7700    7.8434   21.3915 C   0  0  0  0  0  0  0  0  0  0  0  0
   11.7856    6.8851   19.2401 C   0  0  0  0  0  0  0  0  0  0  0  0
   10.5281    7.4276   19.5649 C   0  0  0  0  0  0  0  0  0  0  0  0
   10.0256    7.2907   20.8484 C   0  0  0  0  0  0  0  0  0  0  0  0
    9.3113    5.3049   14.4911 C   0  0  0  0  0  0  0  0  0  0  0  0
    9.4607    7.5646   16.0139 C   0  0  0  0  0  0  0  0  0  0  0  0
   10.4192    7.3157   15.0955 C   0  0  0  0  0  0  0  0  0  0  0  0
   10.2489    6.4227   23.0218 N   0  0  0  0  0  0  0  0  0  0  0  0
    7.2472    8.0746   23.5050 C   0  0  0  0  0  0  0  0  0  0  0  0
    9.2051    6.9101   23.4604 C   0  0  0  0  0  0  0  0  0  0  0  0
   11.9646    6.0299   21.4251 C   0  0  0  0  0  0  0  0  0  0  0  0
  1  5  1  0
  1 13  1  0
  2 20  2  0
  2 28  1  0
  2 29  1  0
  3 19  4  0
  3 25  4  0
  4 23  4  0
  4 27  1  0
  4 30  4  0
  5 17  1  0
  6  8  1  0
  6 29  1  0
  7 24  4  0
  7 26  4  0
  8 28  1  0
  9 13  2  0
 10 18  1  0
 10 21  4  0
 10 30  4  0
 11 17  2  0
 12 18  1  0
 13 15  1  0
 14 24  1  0
 15 25  1  0
 16 28  2  0
 17 20  1  0
 19 24  4  0
 20 23  1  0
 21 22  4  0
 22 23  4  0
 25 26  4  0
 27 29  2  0
M  END
$$$$

 Created by Python create_sdf_string function

 30 33  0  0  0  0  0  0  0  0999 V2000
    8.3036    9.8571   18.4133 C   0  0  0  0  0  0  0  0  0  0  0  0
    8.3694    7.6612   22.6703 C   0  0  0  0  0  0  0  0  0  0  0  0
    8.4143    6.6863   16.2273 C   0  0  0  0  0  0  0  0  0  0  0  0
   10.7581    6.5674   21.7636 C   0  0  0  0  0  0  0  0  0  0  0  0
    8.4452    8.7960   19.2958 O   0  0  0  0  0  0  0  0  0  0  0  0
    8.7122    6.7842   24.8569 C   0  0  0  0  0  0  0  0  0  0  0  0
   10.3400    6.1726   14.3081 C   0  0  0  0  0  0  0  0  0  0  0  0
    7.4297    7.5873   24.8962 C   0  0  0  0  0  0  0  0  0  0  0  0
    8.1566   10.0536   16.0516 O   0  0  0  0  0  0  0  0  0  0  0  0
   12.4989    6.2074   20.1776 C   0  0  0  0  0  0  0  0  0  0  0  0
    6.9192    9.1053   20.9073 O   0  0  0  0  0  0  0  0  0  0  0  0
   14.3979    6.0729   18.7784 C   0  0  0  0  0  0  0  0  0  0  0  0
    8.6811    9.5354   16.9998 C   0  0  0  0  0  0  0  0  0  0  0  0
    9.2512    4.2713   13.7653 O   0  0  0  0  0  0  0  0  0  0  0  0
    9.6495    8.6317   16.8332 N   0  0  0  0  0  0  0  0  0  0  0  0
    6.2934    8.6988   23.1988 O   0  0  0  0  0  0  0  0  0  0  0  0
    7.9806    8.6543   20.5437 C   0  0  0  0  0  0  0  0  0  0  0  0
   13.7270    5.7144   19.8610 O   0  0  0  0  0  0  0  0  0  0  0  0
    8.3351    5.5235   15.4478 C   0  0  0  0  0  0  0  0  0  0  0  0
    8.7700    7.8434   21.3915 C   0  0  0  0  0  0  0  0  0  0  0  0
   11.7856    6.8851   19.2401 C   0  0  0  0  0  0  0  0  0  0  0  0
   10.5281    7.4276   19.5649 C   0  0  0  0  0  0  0  0  0  0  0  0
   10.0256    7.2907   20.8484 C   0  0  0  0  0  0  0  0  0  0  0  0
    9.3113    5.3049   14.4911 C   0  0  0  0  0  0  0  0  0  0  0  0
    9.4607    7.5646   16.0139 C   0  0  0  0  0  0  0  0  0  0  0  0
   10.4192    7.3157   15.0955 C   0  0  0  0  0  0  0  0  0  0  0  0
   10.2489    6.4227   23.0218 N   0  0  0  0  0  0  0  0  0  0  0  0
    7.2472    8.0746   23.5050 C   0  0  0  0  0  0  0  0  0  0  0  0
    9.2051    6.9101   23.4604 C   0  0  0  0  0  0  0  0  0  0  0  0
   11.9646    6.0299   21.4251 C   0  0  0  0  0  0  0  0  0  0  0  0
  1  5  1  0
  1 13  1  0
  2 20  2  0
  2 28  1  0
  2 29  1  0
  3 19  4  0
  3 25  4  0
  4 23  4  0
  4 27  1  0
  4 30  4  0
  5 17  1  0
  6  8  1  0
  6 29  1  0
  7 24  4  0
  7 26  4  0
  8 28  1  0
  9 13  2  0
 10 18  1  0
 10 21  4  0
 10 30  4  0
 11 17  2  0
 12 18  1  0
 13 15  1  0
 14 24  1  0
 15 25  1  0
 16 28  2  0
 17 20  1  0
 19 24  4  0
 20 23  1  0
 21 22  4  0
 22 23  4  0
 25 26  4  0
 27 29  2  0
M  END
$$$$

 Created by Python create_sdf_string function

 30 33  0  0  0  0  0  0  0  0999 V2000
    8.3036    9.8571   18.4133 C   0  0  0  0  0  0  0  0  0  0  0  0
    8.3694    7.6612   22.6703 C   0  0  0  0  0  0  0  0  0  0  0  0
    8.4143    6.6863   16.2273 C   0  0  0  0  0  0  0  0  0  0  0  0
   10.7581    6.5674   21.7636 C   0  0  0  0  0  0  0  0  0  0  0  0
    8.4452    8.7960   19.2958 O   0  0  0  0  0  0  0  0  0  0  0  0
    8.7122    6.7842   24.8569 C   0  0  0  0  0  0  0  0  0  0  0  0
   10.3400    6.1726   14.3081 C   0  0  0  0  0  0  0  0  0  0  0  0
    7.4297    7.5873   24.8962 C   0  0  0  0  0  0  0  0  0  0  0  0
    8.1566   10.0536   16.0516 O   0  0  0  0  0  0  0  0  0  0  0  0
   12.4989    6.2074   20.1776 C   0  0  0  0  0  0  0  0  0  0  0  0
    6.9192    9.1053   20.9073 O   0  0  0  0  0  0  0  0  0  0  0  0
   14.3979    6.0729   18.7784 C   0  0  0  0  0  0  0  0  0  0  0  0
    8.6811    9.5354   16.9998 C   0  0  0  0  0  0  0  0  0  0  0  0
    9.2512    4.2713   13.7653 O   0  0  0  0  0  0  0  0  0  0  0  0
    9.6495    8.6317   16.8332 N   0  0  0  0  0  0  0  0  0  0  0  0
    6.2934    8.6988   23.1988 O   0  0  0  0  0  0  0  0  0  0  0  0
    7.9806    8.6543   20.5437 C   0  0  0  0  0  0  0  0  0  0  0  0
   13.7270    5.7144   19.8610 O   0  0  0  0  0  0  0  0  0  0  0  0
    8.3351    5.5235   15.4478 C   0  0  0  0  0  0  0  0  0  0  0  0
    8.7700    7.8434   21.3915 C   0  0  0  0  0  0  0  0  0  0  0  0
   11.7856    6.8851   19.2401 C   0  0  0  0  0  0  0  0  0  0  0  0
   10.5281    7.4276   19.5649 C   0  0  0  0  0  0  0  0  0  0  0  0
   10.0256    7.2907   20.8484 C   0  0  0  0  0  0  0  0  0  0  0  0
    9.3113    5.3049   14.4911 C   0  0  0  0  0  0  0  0  0  0  0  0
    9.4607    7.5646   16.0139 C   0  0  0  0  0  0  0  0  0  0  0  0
   10.4192    7.3157   15.0955 C   0  0  0  0  0  0  0  0  0  0  0  0
   10.2489    6.4227   23.0218 N   0  0  0  0  0  0  0  0  0  0  0  0
    7.2472    8.0746   23.5050 C   0  0  0  0  0  0  0  0  0  0  0  0
    9.2051    6.9101   23.4604 C   0  0  0  0  0  0  0  0  0  0  0  0
   11.9646    6.0299   21.4251 C   0  0  0  0  0  0  0  0  0  0  0  0
  1  5  1  0
  1 13  1  0
  2 20  2  0
  2 28  1  0
  2 29  1  0
  3 19  4  0
  3 25  4  0
  4 23  4  0
  4 27  1  0
  4 30  4  0
  5 17  1  0
  6  8  1  0
  6 29  1  0
  7 24  4  0
  7 26  4  0
  8 28  1  0
  9 13  2  0
 10 18  1  0
 10 21  4  0
 10 30  4  0
 11 17  2  0
 12 18  1  0
 13 15  1  0
 14 24  1  0
 15 25  1  0
 16 28  2  0
 17 20  1  0
 19 24  4  0
 20 23  1  0
 21 22  4  0
 22 23  4  0
 25 26  4  0
 27 29  2  0
M  END
$$$$

 Created by Python create_sdf_string function

 30 33  0  0  0  0  0  0  0  0999 V2000
    8.3036    9.8571   18.4133 C   0  0  0  0  0  0  0  0  0  0  0  0
    8.3694    7.6612   22.6703 C   0  0  0  0  0  0  0  0  0  0  0  0
    8.4143    6.6863   16.2273 C   0  0  0  0  0  0  0  0  0  0  0  0
   10.7581    6.5674   21.7636 C   0  0  0  0  0  0  0  0  0  0  0  0
    8.4452    8.7960   19.2958 O   0  0  0  0  0  0  0  0  0  0  0  0
    8.7122    6.7842   24.8569 C   0  0  0  0  0  0  0  0  0  0  0  0
   10.3400    6.1726   14.3081 C   0  0  0  0  0  0  0  0  0  0  0  0
    7.4297    7.5873   24.8962 C   0  0  0  0  0  0  0  0  0  0  0  0
    8.1566   10.0536   16.0516 O   0  0  0  0  0  0  0  0  0  0  0  0
   12.4989    6.2074   20.1776 C   0  0  0  0  0  0  0  0  0  0  0  0
    6.9192    9.1053   20.9073 O   0  0  0  0  0  0  0  0  0  0  0  0
   14.3979    6.0729   18.7784 C   0  0  0  0  0  0  0  0  0  0  0  0
    8.6811    9.5354   16.9998 C   0  0  0  0  0  0  0  0  0  0  0  0
    9.2512    4.2713   13.7653 O   0  0  0  0  0  0  0  0  0  0  0  0
    9.6495    8.6317   16.8332 N   0  0  0  0  0  0  0  0  0  0  0  0
    6.2934    8.6988   23.1988 O   0  0  0  0  0  0  0  0  0  0  0  0
    7.9806    8.6543   20.5437 C   0  0  0  0  0  0  0  0  0  0  0  0
   13.7270    5.7144   19.8610 O   0  0  0  0  0  0  0  0  0  0  0  0
    8.3351    5.5235   15.4478 C   0  0  0  0  0  0  0  0  0  0  0  0
    8.7700    7.8434   21.3915 C   0  0  0  0  0  0  0  0  0  0  0  0
   11.7856    6.8851   19.2401 C   0  0  0  0  0  0  0  0  0  0  0  0
   10.5281    7.4276   19.5649 C   0  0  0  0  0  0  0  0  0  0  0  0
   10.0256    7.2907   20.8484 C   0  0  0  0  0  0  0  0  0  0  0  0
    9.3113    5.3049   14.4911 C   0  0  0  0  0  0  0  0  0  0  0  0
    9.4607    7.5646   16.0139 C   0  0  0  0  0  0  0  0  0  0  0  0
   10.4192    7.3157   15.0955 C   0  0  0  0  0  0  0  0  0  0  0  0
   10.2489    6.4227   23.0218 N   0  0  0  0  0  0  0  0  0  0  0  0
    7.2472    8.0746   23.5050 C   0  0  0  0  0  0  0  0  0  0  0  0
    9.2051    6.9101   23.4604 C   0  0  0  0  0  0  0  0  0  0  0  0
   11.9646    6.0299   21.4251 C   0  0  0  0  0  0  0  0  0  0  0  0
  1  5  1  0
  1 13  1  0
  2 20  2  0
  2 28  1  0
  2 29  1  0
  3 19  4  0
  3 25  4  0
  4 23  4  0
  4 27  1  0
  4 30  4  0
  5 17  1  0
  6  8  1  0
  6 29  1  0
  7 24  4  0
  7 26  4  0
  8 28  1  0
  9 13  2  0
 10 18  1  0
 10 21  4  0
 10 30  4  0
 11 17  2  0
 12 18  1  0
 13 15  1  0
 14 24  1  0
 15 25  1  0
 16 28  2  0
 17 20  1  0
 19 24  4  0
 20 23  1  0
 21 22  4  0
 22 23  4  0
 25 26  4  0
 27 29  2  0
M  END
$$$$

 Created by Python create_sdf_string function

 30 33  0  0  0  0  0  0  0  0999 V2000
    8.3036    9.8571   18.4133 C   0  0  0  0  0  0  0  0  0  0  0  0
    8.3694    7.6612   22.6703 C   0  0  0  0  0  0  0  0  0  0  0  0
    8.4143    6.6863   16.2273 C   0  0  0  0  0  0  0  0  0  0  0  0
   10.7581    6.5674   21.7636 C   0  0  0  0  0  0  0  0  0  0  0  0
    8.4452    8.7960   19.2958 O   0  0  0  0  0  0  0  0  0  0  0  0
    8.7122    6.7842   24.8569 C   0  0  0  0  0  0  0  0  0  0  0  0
   10.3400    6.1726   14.3081 C   0  0  0  0  0  0  0  0  0  0  0  0
    7.4297    7.5873   24.8962 C   0  0  0  0  0  0  0  0  0  0  0  0
    8.1566   10.0536   16.0516 O   0  0  0  0  0  0  0  0  0  0  0  0
   12.4989    6.2074   20.1776 C   0  0  0  0  0  0  0  0  0  0  0  0
    6.9192    9.1053   20.9073 O   0  0  0  0  0  0  0  0  0  0  0  0
   14.3979    6.0729   18.7784 C   0  0  0  0  0  0  0  0  0  0  0  0
    8.6811    9.5354   16.9998 C   0  0  0  0  0  0  0  0  0  0  0  0
    9.2512    4.2713   13.7653 O   0  0  0  0  0  0  0  0  0  0  0  0
    9.6495    8.6317   16.8332 N   0  0  0  0  0  0  0  0  0  0  0  0
    6.2934    8.6988   23.1988 O   0  0  0  0  0  0  0  0  0  0  0  0
    7.9806    8.6543   20.5437 C   0  0  0  0  0  0  0  0  0  0  0  0
   13.7270    5.7144   19.8610 O   0  0  0  0  0  0  0  0  0  0  0  0
    8.3351    5.5235   15.4478 C   0  0  0  0  0  0  0  0  0  0  0  0
    8.7700    7.8434   21.3915 C   0  0  0  0  0  0  0  0  0  0  0  0
   11.7856    6.8851   19.2401 C   0  0  0  0  0  0  0  0  0  0  0  0
   10.5281    7.4276   19.5649 C   0  0  0  0  0  0  0  0  0  0  0  0
   10.0256    7.2907   20.8484 C   0  0  0  0  0  0  0  0  0  0  0  0
    9.3113    5.3049   14.4911 C   0  0  0  0  0  0  0  0  0  0  0  0
    9.4607    7.5646   16.0139 C   0  0  0  0  0  0  0  0  0  0  0  0
   10.4192    7.3157   15.0955 C   0  0  0  0  0  0  0  0  0  0  0  0
   10.2489    6.4227   23.0218 N   0  0  0  0  0  0  0  0  0  0  0  0
    7.2472    8.0746   23.5050 C   0  0  0  0  0  0  0  0  0  0  0  0
    9.2051    6.9101   23.4604 C   0  0  0  0  0  0  0  0  0  0  0  0
   11.9646    6.0299   21.4251 C   0  0  0  0  0  0  0  0  0  0  0  0
  1  5  1  0
  1 13  1  0
  2 20  2  0
  2 28  1  0
  2 29  1  0
  3 19  4  0
  3 25  4  0
  4 23  4  0
  4 27  1  0
  4 30  4  0
  5 17  1  0
  6  8  1  0
  6 29  1  0
  7 24  4  0
  7 26  4  0
  8 28  1  0
  9 13  2  0
 10 18  1  0
 10 21  4  0
 10 30  4  0
 11 17  2  0
 12 18  1  0
 13 15  1  0
 14 24  1  0
 15 25  1  0
 16 28  2  0
 17 20  1  0
 19 24  4  0
 20 23  1  0
 21 22  4  0
 22 23  4  0
 25 26  4  0
 27 29  2  0
M  END
$$$$

 Created by Python create_sdf_string function

 30 33  0  0  0  0  0  0  0  0999 V2000
    8.3036    9.8571   18.4133 C   0  0  0  0  0  0  0  0  0  0  0  0
    8.3694    7.6612   22.6703 C   0  0  0  0  0  0  0  0  0  0  0  0
    8.4143    6.6863   16.2273 C   0  0  0  0  0  0  0  0  0  0  0  0
   10.7581    6.5674   21.7636 C   0  0  0  0  0  0  0  0  0  0  0  0
    8.4452    8.7960   19.2958 O   0  0  0  0  0  0  0  0  0  0  0  0
    8.7122    6.7842   24.8569 C   0  0  0  0  0  0  0  0  0  0  0  0
   10.3400    6.1726   14.3081 C   0  0  0  0  0  0  0  0  0  0  0  0
    7.4297    7.5873   24.8962 C   0  0  0  0  0  0  0  0  0  0  0  0
    8.1566   10.0536   16.0516 O   0  0  0  0  0  0  0  0  0  0  0  0
   12.4989    6.2074   20.1776 C   0  0  0  0  0  0  0  0  0  0  0  0
    6.9192    9.1053   20.9073 O   0  0  0  0  0  0  0  0  0  0  0  0
   14.3979    6.0729   18.7784 C   0  0  0  0  0  0  0  0  0  0  0  0
    8.6811    9.5354   16.9998 C   0  0  0  0  0  0  0  0  0  0  0  0
    9.2512    4.2713   13.7653 O   0  0  0  0  0  0  0  0  0  0  0  0
    9.6495    8.6317   16.8332 N   0  0  0  0  0  0  0  0  0  0  0  0
    6.2934    8.6988   23.1988 O   0  0  0  0  0  0  0  0  0  0  0  0
    7.9806    8.6543   20.5437 C   0  0  0  0  0  0  0  0  0  0  0  0
   13.7270    5.7144   19.8610 O   0  0  0  0  0  0  0  0  0  0  0  0
    8.3351    5.5235   15.4478 C   0  0  0  0  0  0  0  0  0  0  0  0
    8.7700    7.8434   21.3915 C   0  0  0  0  0  0  0  0  0  0  0  0
   11.7856    6.8851   19.2401 C   0  0  0  0  0  0  0  0  0  0  0  0
   10.5281    7.4276   19.5649 C   0  0  0  0  0  0  0  0  0  0  0  0
   10.0256    7.2907   20.8484 C   0  0  0  0  0  0  0  0  0  0  0  0
    9.3113    5.3049   14.4911 C   0  0  0  0  0  0  0  0  0  0  0  0
    9.4607    7.5646   16.0139 C   0  0  0  0  0  0  0  0  0  0  0  0
   10.4192    7.3157   15.0955 C   0  0  0  0  0  0  0  0  0  0  0  0
   10.2489    6.4227   23.0218 N   0  0  0  0  0  0  0  0  0  0  0  0
    7.2472    8.0746   23.5050 C   0  0  0  0  0  0  0  0  0  0  0  0
    9.2051    6.9101   23.4604 C   0  0  0  0  0  0  0  0  0  0  0  0
   11.9646    6.0299   21.4251 C   0  0  0  0  0  0  0  0  0  0  0  0
  1  5  1  0
  1 13  1  0
  2 20  2  0
  2 28  1  0
  2 29  1  0
  3 19  4  0
  3 25  4  0
  4 23  4  0
  4 27  1  0
  4 30  4  0
  5 17  1  0
  6  8  1  0
  6 29  1  0
  7 24  4  0
  7 26  4  0
  8 28  1  0
  9 13  2  0
 10 18  1  0
 10 21  4  0
 10 30  4  0
 11 17  2  0
 12 18  1  0
 13 15  1  0
 14 24  1  0
 15 25  1  0
 16 28  2  0
 17 20  1  0
 19 24  4  0
 20 23  1  0
 21 22  4  0
 22 23  4  0
 25 26  4  0
 27 29  2  0
M  END
$$$$

 Created by Python create_sdf_string function

 30 33  0  0  0  0  0  0  0  0999 V2000
    8.3036    9.8571   18.4133 C   0  0  0  0  0  0  0  0  0  0  0  0
    8.3694    7.6612   22.6703 C   0  0  0  0  0  0  0  0  0  0  0  0
    8.4143    6.6863   16.2273 C   0  0  0  0  0  0  0  0  0  0  0  0
   10.7581    6.5674   21.7636 C   0  0  0  0  0  0  0  0  0  0  0  0
    8.4452    8.7960   19.2958 O   0  0  0  0  0  0  0  0  0  0  0  0
    8.7122    6.7842   24.8569 C   0  0  0  0  0  0  0  0  0  0  0  0
   10.3400    6.1726   14.3081 C   0  0  0  0  0  0  0  0  0  0  0  0
    7.4297    7.5873   24.8962 C   0  0  0  0  0  0  0  0  0  0  0  0
    8.1566   10.0536   16.0516 O   0  0  0  0  0  0  0  0  0  0  0  0
   12.4989    6.2074   20.1776 C   0  0  0  0  0  0  0  0  0  0  0  0
    6.9192    9.1053   20.9073 O   0  0  0  0  0  0  0  0  0  0  0  0
   14.3979    6.0729   18.7784 C   0  0  0  0  0  0  0  0  0  0  0  0
    8.6811    9.5354   16.9998 C   0  0  0  0  0  0  0  0  0  0  0  0
    9.2512    4.2713   13.7653 O   0  0  0  0  0  0  0  0  0  0  0  0
    9.6495    8.6317   16.8332 N   0  0  0  0  0  0  0  0  0  0  0  0
    6.2934    8.6988   23.1988 O   0  0  0  0  0  0  0  0  0  0  0  0
    7.9806    8.6543   20.5437 C   0  0  0  0  0  0  0  0  0  0  0  0
   13.7270    5.7144   19.8610 O   0  0  0  0  0  0  0  0  0  0  0  0
    8.3351    5.5235   15.4478 C   0  0  0  0  0  0  0  0  0  0  0  0
    8.7700    7.8434   21.3915 C   0  0  0  0  0  0  0  0  0  0  0  0
   11.7856    6.8851   19.2401 C   0  0  0  0  0  0  0  0  0  0  0  0
   10.5281    7.4276   19.5649 C   0  0  0  0  0  0  0  0  0  0  0  0
   10.0256    7.2907   20.8484 C   0  0  0  0  0  0  0  0  0  0  0  0
    9.3113    5.3049   14.4911 C   0  0  0  0  0  0  0  0  0  0  0  0
    9.4607    7.5646   16.0139 C   0  0  0  0  0  0  0  0  0  0  0  0
   10.4192    7.3157   15.0955 C   0  0  0  0  0  0  0  0  0  0  0  0
   10.2489    6.4227   23.0218 N   0  0  0  0  0  0  0  0  0  0  0  0
    7.2472    8.0746   23.5050 C   0  0  0  0  0  0  0  0  0  0  0  0
    9.2051    6.9101   23.4604 C   0  0  0  0  0  0  0  0  0  0  0  0
   11.9646    6.0299   21.4251 C   0  0  0  0  0  0  0  0  0  0  0  0
  1  5  1  0
  1 13  1  0
  2 20  2  0
  2 28  1  0
  2 29  1  0
  3 19  4  0
  3 25  4  0
  4 23  4  0
  4 27  1  0
  4 30  4  0
  5 17  1  0
  6  8  1  0
  6 29  1  0
  7 24  4  0
  7 26  4  0
  8 28  1  0
  9 13  2  0
 10 18  1  0
 10 21  4  0
 10 30  4  0
 11 17  2  0
 12 18  1  0
 13 15  1  0
 14 24  1  0
 15 25  1  0
 16 28  2  0
 17 20  1  0
 19 24  4  0
 20 23  1  0
 21 22  4  0
 22 23  4  0
 25 26  4  0
 27 29  2  0
M  END
$$$$

 Created by Python create_sdf_string function

 30 33  0  0  0  0  0  0  0  0999 V2000
    8.3036    9.8571   18.4133 C   0  0  0  0  0  0  0  0  0  0  0  0
    8.3694    7.6612   22.6703 C   0  0  0  0  0  0  0  0  0  0  0  0
    8.4143    6.6863   16.2273 C   0  0  0  0  0  0  0  0  0  0  0  0
   10.7581    6.5674   21.7636 C   0  0  0  0  0  0  0  0  0  0  0  0
    8.4452    8.7960   19.2958 O   0  0  0  0  0  0  0  0  0  0  0  0
    8.7122    6.7842   24.8569 C   0  0  0  0  0  0  0  0  0  0  0  0
   10.3400    6.1726   14.3081 C   0  0  0  0  0  0  0  0  0  0  0  0
    7.4297    7.5873   24.8962 C   0  0  0  0  0  0  0  0  0  0  0  0
    8.1566   10.0536   16.0516 O   0  0  0  0  0  0  0  0  0  0  0  0
   12.4989    6.2074   20.1776 C   0  0  0  0  0  0  0  0  0  0  0  0
    6.9192    9.1053   20.9073 O   0  0  0  0  0  0  0  0  0  0  0  0
   14.3979    6.0729   18.7784 C   0  0  0  0  0  0  0  0  0  0  0  0
    8.6811    9.5354   16.9998 C   0  0  0  0  0  0  0  0  0  0  0  0
    9.2512    4.2713   13.7653 O   0  0  0  0  0  0  0  0  0  0  0  0
    9.6495    8.6317   16.8332 N   0  0  0  0  0  0  0  0  0  0  0  0
    6.2934    8.6988   23.1988 O   0  0  0  0  0  0  0  0  0  0  0  0
    7.9806    8.6543   20.5437 C   0  0  0  0  0  0  0  0  0  0  0  0
   13.7270    5.7144   19.8610 O   0  0  0  0  0  0  0  0  0  0  0  0
    8.3351    5.5235   15.4478 C   0  0  0  0  0  0  0  0  0  0  0  0
    8.7700    7.8434   21.3915 C   0  0  0  0  0  0  0  0  0  0  0  0
   11.7856    6.8851   19.2401 C   0  0  0  0  0  0  0  0  0  0  0  0
   10.5281    7.4276   19.5649 C   0  0  0  0  0  0  0  0  0  0  0  0
   10.0256    7.2907   20.8484 C   0  0  0  0  0  0  0  0  0  0  0  0
    9.3113    5.3049   14.4911 C   0  0  0  0  0  0  0  0  0  0  0  0
    9.4607    7.5646   16.0139 C   0  0  0  0  0  0  0  0  0  0  0  0
   10.4192    7.3157   15.0955 C   0  0  0  0  0  0  0  0  0  0  0  0
   10.2489    6.4227   23.0218 N   0  0  0  0  0  0  0  0  0  0  0  0
    7.2472    8.0746   23.5050 C   0  0  0  0  0  0  0  0  0  0  0  0
    9.2051    6.9101   23.4604 C   0  0  0  0  0  0  0  0  0  0  0  0
   11.9646    6.0299   21.4251 C   0  0  0  0  0  0  0  0  0  0  0  0
  1  5  1  0
  1 13  1  0
  2 20  2  0
  2 28  1  0
  2 29  1  0
  3 19  4  0
  3 25  4  0
  4 23  4  0
  4 27  1  0
  4 30  4  0
  5 17  1  0
  6  8  1  0
  6 29  1  0
  7 24  4  0
  7 26  4  0
  8 28  1  0
  9 13  2  0
 10 18  1  0
 10 21  4  0
 10 30  4  0
 11 17  2  0
 12 18  1  0
 13 15  1  0
 14 24  1  0
 15 25  1  0
 16 28  2  0
 17 20  1  0
 19 24  4  0
 20 23  1  0
 21 22  4  0
 22 23  4  0
 25 26  4  0
 27 29  2  0
M  END
$$$$

 Created by Python create_sdf_string function

 30 33  0  0  0  0  0  0  0  0999 V2000
    8.3036    9.8571   18.4133 C   0  0  0  0  0  0  0  0  0  0  0  0
    8.3694    7.6612   22.6703 C   0  0  0  0  0  0  0  0  0  0  0  0
    8.4143    6.6863   16.2273 C   0  0  0  0  0  0  0  0  0  0  0  0
   10.7581    6.5674   21.7636 C   0  0  0  0  0  0  0  0  0  0  0  0
    8.4452    8.7960   19.2958 O   0  0  0  0  0  0  0  0  0  0  0  0
    8.7122    6.7842   24.8569 C   0  0  0  0  0  0  0  0  0  0  0  0
   10.3400    6.1726   14.3081 C   0  0  0  0  0  0  0  0  0  0  0  0
    7.4297    7.5873   24.8962 C   0  0  0  0  0  0  0  0  0  0  0  0
    8.1566   10.0536   16.0516 O   0  0  0  0  0  0  0  0  0  0  0  0
   12.4989    6.2074   20.1776 C   0  0  0  0  0  0  0  0  0  0  0  0
    6.9192    9.1053   20.9073 O   0  0  0  0  0  0  0  0  0  0  0  0
   14.3979    6.0729   18.7784 C   0  0  0  0  0  0  0  0  0  0  0  0
    8.6811    9.5354   16.9998 C   0  0  0  0  0  0  0  0  0  0  0  0
    9.2512    4.2713   13.7653 O   0  0  0  0  0  0  0  0  0  0  0  0
    9.6495    8.6317   16.8332 N   0  0  0  0  0  0  0  0  0  0  0  0
    6.2934    8.6988   23.1988 O   0  0  0  0  0  0  0  0  0  0  0  0
    7.9806    8.6543   20.5437 C   0  0  0  0  0  0  0  0  0  0  0  0
   13.7270    5.7144   19.8610 O   0  0  0  0  0  0  0  0  0  0  0  0
    8.3351    5.5235   15.4478 C   0  0  0  0  0  0  0  0  0  0  0  0
    8.7700    7.8434   21.3915 C   0  0  0  0  0  0  0  0  0  0  0  0
   11.7856    6.8851   19.2401 C   0  0  0  0  0  0  0  0  0  0  0  0
   10.5281    7.4276   19.5649 C   0  0  0  0  0  0  0  0  0  0  0  0
   10.0256    7.2907   20.8484 C   0  0  0  0  0  0  0  0  0  0  0  0
    9.3113    5.3049   14.4911 C   0  0  0  0  0  0  0  0  0  0  0  0
    9.4607    7.5646   16.0139 C   0  0  0  0  0  0  0  0  0  0  0  0
   10.4192    7.3157   15.0955 C   0  0  0  0  0  0  0  0  0  0  0  0
   10.2489    6.4227   23.0218 N   0  0  0  0  0  0  0  0  0  0  0  0
    7.2472    8.0746   23.5050 C   0  0  0  0  0  0  0  0  0  0  0  0
    9.2051    6.9101   23.4604 C   0  0  0  0  0  0  0  0  0  0  0  0
   11.9646    6.0299   21.4251 C   0  0  0  0  0  0  0  0  0  0  0  0
  1  5  1  0
  1 13  1  0
  2 20  2  0
  2 28  1  0
  2 29  1  0
  3 19  4  0
  3 25  4  0
  4 23  4  0
  4 27  1  0
  4 30  4  0
  5 17  1  0
  6  8  1  0
  6 29  1  0
  7 24  4  0
  7 26  4  0
  8 28  1  0
  9 13  2  0
 10 18  1  0
 10 21  4  0
 10 30  4  0
 11 17  2  0
 12 18  1  0
 13 15  1  0
 14 24  1  0
 15 25  1  0
 16 28  2  0
 17 20  1  0
 19 24  4  0
 20 23  1  0
 21 22  4  0
 22 23  4  0
 25 26  4  0
 27 29  2  0
M  END
$$$$

 Created by Python create_sdf_string function

 30 33  0  0  0  0  0  0  0  0999 V2000
    8.3036    9.8571   18.4133 C   0  0  0  0  0  0  0  0  0  0  0  0
    8.3694    7.6612   22.6703 C   0  0  0  0  0  0  0  0  0  0  0  0
    8.4143    6.6863   16.2273 C   0  0  0  0  0  0  0  0  0  0  0  0
   10.7581    6.5674   21.7636 C   0  0  0  0  0  0  0  0  0  0  0  0
    8.4452    8.7960   19.2958 O   0  0  0  0  0  0  0  0  0  0  0  0
    8.7122    6.7842   24.8569 C   0  0  0  0  0  0  0  0  0  0  0  0
   10.3400    6.1726   14.3081 C   0  0  0  0  0  0  0  0  0  0  0  0
    7.4297    7.5873   24.8962 C   0  0  0  0  0  0  0  0  0  0  0  0
    8.1566   10.0536   16.0516 O   0  0  0  0  0  0  0  0  0  0  0  0
   12.4989    6.2074   20.1776 C   0  0  0  0  0  0  0  0  0  0  0  0
    6.9192    9.1053   20.9073 O   0  0  0  0  0  0  0  0  0  0  0  0
   14.3979    6.0729   18.7784 C   0  0  0  0  0  0  0  0  0  0  0  0
    8.6811    9.5354   16.9998 C   0  0  0  0  0  0  0  0  0  0  0  0
    9.2512    4.2713   13.7653 O   0  0  0  0  0  0  0  0  0  0  0  0
    9.6495    8.6317   16.8332 N   0  0  0  0  0  0  0  0  0  0  0  0
    6.2934    8.6988   23.1988 O   0  0  0  0  0  0  0  0  0  0  0  0
    7.9806    8.6543   20.5437 C   0  0  0  0  0  0  0  0  0  0  0  0
   13.7270    5.7144   19.8610 O   0  0  0  0  0  0  0  0  0  0  0  0
    8.3351    5.5235   15.4478 C   0  0  0  0  0  0  0  0  0  0  0  0
    8.7700    7.8434   21.3915 C   0  0  0  0  0  0  0  0  0  0  0  0
   11.7856    6.8851   19.2401 C   0  0  0  0  0  0  0  0  0  0  0  0
   10.5281    7.4276   19.5649 C   0  0  0  0  0  0  0  0  0  0  0  0
   10.0256    7.2907   20.8484 C   0  0  0  0  0  0  0  0  0  0  0  0
    9.3113    5.3049   14.4911 C   0  0  0  0  0  0  0  0  0  0  0  0
    9.4607    7.5646   16.0139 C   0  0  0  0  0  0  0  0  0  0  0  0
   10.4192    7.3157   15.0955 C   0  0  0  0  0  0  0  0  0  0  0  0
   10.2489    6.4227   23.0218 N   0  0  0  0  0  0  0  0  0  0  0  0
    7.2472    8.0746   23.5050 C   0  0  0  0  0  0  0  0  0  0  0  0
    9.2051    6.9101   23.4604 C   0  0  0  0  0  0  0  0  0  0  0  0
   11.9646    6.0299   21.4251 C   0  0  0  0  0  0  0  0  0  0  0  0
  1  5  1  0
  1 13  1  0
  2 20  2  0
  2 28  1  0
  2 29  1  0
  3 19  4  0
  3 25  4  0
  4 23  4  0
  4 27  1  0
  4 30  4  0
  5 17  1  0
  6  8  1  0
  6 29  1  0
  7 24  4  0
  7 26  4  0
  8 28  1  0
  9 13  2  0
 10 18  1  0
 10 21  4  0
 10 30  4  0
 11 17  2  0
 12 18  1  0
 13 15  1  0
 14 24  1  0
 15 25  1  0
 16 28  2  0
 17 20  1  0
 19 24  4  0
 20 23  1  0
 21 22  4  0
 22 23  4  0
 25 26  4  0
 27 29  2  0
M  END
$$$$

 Created by Python create_sdf_string function

 30 33  0  0  0  0  0  0  0  0999 V2000
    8.3036    9.8571   18.4133 C   0  0  0  0  0  0  0  0  0  0  0  0
    8.3694    7.6612   22.6703 C   0  0  0  0  0  0  0  0  0  0  0  0
    8.4143    6.6863   16.2273 C   0  0  0  0  0  0  0  0  0  0  0  0
   10.7581    6.5674   21.7636 C   0  0  0  0  0  0  0  0  0  0  0  0
    8.4452    8.7960   19.2958 O   0  0  0  0  0  0  0  0  0  0  0  0
    8.7122    6.7842   24.8569 C   0  0  0  0  0  0  0  0  0  0  0  0
   10.3400    6.1726   14.3081 C   0  0  0  0  0  0  0  0  0  0  0  0
    7.4297    7.5873   24.8962 C   0  0  0  0  0  0  0  0  0  0  0  0
    8.1566   10.0536   16.0516 O   0  0  0  0  0  0  0  0  0  0  0  0
   12.4989    6.2074   20.1776 C   0  0  0  0  0  0  0  0  0  0  0  0
    6.9192    9.1053   20.9073 O   0  0  0  0  0  0  0  0  0  0  0  0
   14.3979    6.0729   18.7784 C   0  0  0  0  0  0  0  0  0  0  0  0
    8.6811    9.5354   16.9998 C   0  0  0  0  0  0  0  0  0  0  0  0
    9.2512    4.2713   13.7653 O   0  0  0  0  0  0  0  0  0  0  0  0
    9.6495    8.6317   16.8332 N   0  0  0  0  0  0  0  0  0  0  0  0
    6.2934    8.6988   23.1988 O   0  0  0  0  0  0  0  0  0  0  0  0
    7.9806    8.6543   20.5437 C   0  0  0  0  0  0  0  0  0  0  0  0
   13.7270    5.7144   19.8610 O   0  0  0  0  0  0  0  0  0  0  0  0
    8.3351    5.5235   15.4478 C   0  0  0  0  0  0  0  0  0  0  0  0
    8.7700    7.8434   21.3915 C   0  0  0  0  0  0  0  0  0  0  0  0
   11.7856    6.8851   19.2401 C   0  0  0  0  0  0  0  0  0  0  0  0
   10.5281    7.4276   19.5649 C   0  0  0  0  0  0  0  0  0  0  0  0
   10.0256    7.2907   20.8484 C   0  0  0  0  0  0  0  0  0  0  0  0
    9.3113    5.3049   14.4911 C   0  0  0  0  0  0  0  0  0  0  0  0
    9.4607    7.5646   16.0139 C   0  0  0  0  0  0  0  0  0  0  0  0
   10.4192    7.3157   15.0955 C   0  0  0  0  0  0  0  0  0  0  0  0
   10.2489    6.4227   23.0218 N   0  0  0  0  0  0  0  0  0  0  0  0
    7.2472    8.0746   23.5050 C   0  0  0  0  0  0  0  0  0  0  0  0
    9.2051    6.9101   23.4604 C   0  0  0  0  0  0  0  0  0  0  0  0
   11.9646    6.0299   21.4251 C   0  0  0  0  0  0  0  0  0  0  0  0
  1  5  1  0
  1 13  1  0
  2 20  2  0
  2 28  1  0
  2 29  1  0
  3 19  4  0
  3 25  4  0
  4 23  4  0
  4 27  1  0
  4 30  4  0
  5 17  1  0
  6  8  1  0
  6 29  1  0
  7 24  4  0
  7 26  4  0
  8 28  1  0
  9 13  2  0
 10 18  1  0
 10 21  4  0
 10 30  4  0
 11 17  2  0
 12 18  1  0
 13 15  1  0
 14 24  1  0
 15 25  1  0
 16 28  2  0
 17 20  1  0
 19 24  4  0
 20 23  1  0
 21 22  4  0
 22 23  4  0
 25 26  4  0
 27 29  2  0
M  END
$$$$

 Created by Python create_sdf_string function

 30 33  0  0  0  0  0  0  0  0999 V2000
    8.3036    9.8571   18.4133 C   0  0  0  0  0  0  0  0  0  0  0  0
    8.3694    7.6612   22.6703 C   0  0  0  0  0  0  0  0  0  0  0  0
    8.4143    6.6863   16.2273 C   0  0  0  0  0  0  0  0  0  0  0  0
   10.7581    6.5674   21.7636 C   0  0  0  0  0  0  0  0  0  0  0  0
    8.4452    8.7960   19.2958 O   0  0  0  0  0  0  0  0  0  0  0  0
    8.7122    6.7842   24.8569 C   0  0  0  0  0  0  0  0  0  0  0  0
   10.3400    6.1726   14.3081 C   0  0  0  0  0  0  0  0  0  0  0  0
    7.4297    7.5873   24.8962 C   0  0  0  0  0  0  0  0  0  0  0  0
    8.1566   10.0536   16.0516 O   0  0  0  0  0  0  0  0  0  0  0  0
   12.4989    6.2074   20.1776 C   0  0  0  0  0  0  0  0  0  0  0  0
    6.9192    9.1053   20.9073 O   0  0  0  0  0  0  0  0  0  0  0  0
   14.3979    6.0729   18.7784 C   0  0  0  0  0  0  0  0  0  0  0  0
    8.6811    9.5354   16.9998 C   0  0  0  0  0  0  0  0  0  0  0  0
    9.2512    4.2713   13.7653 O   0  0  0  0  0  0  0  0  0  0  0  0
    9.6495    8.6317   16.8332 N   0  0  0  0  0  0  0  0  0  0  0  0
    6.2934    8.6988   23.1988 O   0  0  0  0  0  0  0  0  0  0  0  0
    7.9806    8.6543   20.5437 C   0  0  0  0  0  0  0  0  0  0  0  0
   13.7270    5.7144   19.8610 O   0  0  0  0  0  0  0  0  0  0  0  0
    8.3351    5.5235   15.4478 C   0  0  0  0  0  0  0  0  0  0  0  0
    8.7700    7.8434   21.3915 C   0  0  0  0  0  0  0  0  0  0  0  0
   11.7856    6.8851   19.2401 C   0  0  0  0  0  0  0  0  0  0  0  0
   10.5281    7.4276   19.5649 C   0  0  0  0  0  0  0  0  0  0  0  0
   10.0256    7.2907   20.8484 C   0  0  0  0  0  0  0  0  0  0  0  0
    9.3113    5.3049   14.4911 C   0  0  0  0  0  0  0  0  0  0  0  0
    9.4607    7.5646   16.0139 C   0  0  0  0  0  0  0  0  0  0  0  0
   10.4192    7.3157   15.0955 C   0  0  0  0  0  0  0  0  0  0  0  0
   10.2489    6.4227   23.0218 N   0  0  0  0  0  0  0  0  0  0  0  0
    7.2472    8.0746   23.5050 C   0  0  0  0  0  0  0  0  0  0  0  0
    9.2051    6.9101   23.4604 C   0  0  0  0  0  0  0  0  0  0  0  0
   11.9646    6.0299   21.4251 C   0  0  0  0  0  0  0  0  0  0  0  0
  1  5  1  0
  1 13  1  0
  2 20  2  0
  2 28  1  0
  2 29  1  0
  3 19  4  0
  3 25  4  0
  4 23  4  0
  4 27  1  0
  4 30  4  0
  5 17  1  0
  6  8  1  0
  6 29  1  0
  7 24  4  0
  7 26  4  0
  8 28  1  0
  9 13  2  0
 10 18  1  0
 10 21  4  0
 10 30  4  0
 11 17  2  0
 12 18  1  0
 13 15  1  0
 14 24  1  0
 15 25  1  0
 16 28  2  0
 17 20  1  0
 19 24  4  0
 20 23  1  0
 21 22  4  0
 22 23  4  0
 25 26  4  0
 27 29  2  0
M  END
$$$$

 Created by Python create_sdf_string function

 30 33  0  0  0  0  0  0  0  0999 V2000
    8.3036    9.8571   18.4133 C   0  0  0  0  0  0  0  0  0  0  0  0
    8.3694    7.6612   22.6703 C   0  0  0  0  0  0  0  0  0  0  0  0
    8.4143    6.6863   16.2273 C   0  0  0  0  0  0  0  0  0  0  0  0
   10.7581    6.5674   21.7636 C   0  0  0  0  0  0  0  0  0  0  0  0
    8.4452    8.7960   19.2958 O   0  0  0  0  0  0  0  0  0  0  0  0
    8.7122    6.7842   24.8569 C   0  0  0  0  0  0  0  0  0  0  0  0
   10.3400    6.1726   14.3081 C   0  0  0  0  0  0  0  0  0  0  0  0
    7.4297    7.5873   24.8962 C   0  0  0  0  0  0  0  0  0  0  0  0
    8.1566   10.0536   16.0516 O   0  0  0  0  0  0  0  0  0  0  0  0
   12.4989    6.2074   20.1776 C   0  0  0  0  0  0  0  0  0  0  0  0
    6.9192    9.1053   20.9073 O   0  0  0  0  0  0  0  0  0  0  0  0
   14.3979    6.0729   18.7784 C   0  0  0  0  0  0  0  0  0  0  0  0
    8.6811    9.5354   16.9998 C   0  0  0  0  0  0  0  0  0  0  0  0
    9.2512    4.2713   13.7653 O   0  0  0  0  0  0  0  0  0  0  0  0
    9.6495    8.6317   16.8332 N   0  0  0  0  0  0  0  0  0  0  0  0
    6.2934    8.6988   23.1988 O   0  0  0  0  0  0  0  0  0  0  0  0
    7.9806    8.6543   20.5437 C   0  0  0  0  0  0  0  0  0  0  0  0
   13.7270    5.7144   19.8610 O   0  0  0  0  0  0  0  0  0  0  0  0
    8.3351    5.5235   15.4478 C   0  0  0  0  0  0  0  0  0  0  0  0
    8.7700    7.8434   21.3915 C   0  0  0  0  0  0  0  0  0  0  0  0
   11.7856    6.8851   19.2401 C   0  0  0  0  0  0  0  0  0  0  0  0
   10.5281    7.4276   19.5649 C   0  0  0  0  0  0  0  0  0  0  0  0
   10.0256    7.2907   20.8484 C   0  0  0  0  0  0  0  0  0  0  0  0
    9.3113    5.3049   14.4911 C   0  0  0  0  0  0  0  0  0  0  0  0
    9.4607    7.5646   16.0139 C   0  0  0  0  0  0  0  0  0  0  0  0
   10.4192    7.3157   15.0955 C   0  0  0  0  0  0  0  0  0  0  0  0
   10.2489    6.4227   23.0218 N   0  0  0  0  0  0  0  0  0  0  0  0
    7.2472    8.0746   23.5050 C   0  0  0  0  0  0  0  0  0  0  0  0
    9.2051    6.9101   23.4604 C   0  0  0  0  0  0  0  0  0  0  0  0
   11.9646    6.0299   21.4251 C   0  0  0  0  0  0  0  0  0  0  0  0
  1  5  1  0
  1 13  1  0
  2 20  2  0
  2 28  1  0
  2 29  1  0
  3 19  4  0
  3 25  4  0
  4 23  4  0
  4 27  1  0
  4 30  4  0
  5 17  1  0
  6  8  1  0
  6 29  1  0
  7 24  4  0
  7 26  4  0
  8 28  1  0
  9 13  2  0
 10 18  1  0
 10 21  4  0
 10 30  4  0
 11 17  2  0
 12 18  1  0
 13 15  1  0
 14 24  1  0
 15 25  1  0
 16 28  2  0
 17 20  1  0
 19 24  4  0
 20 23  1  0
 21 22  4  0
 22 23  4  0
 25 26  4  0
 27 29  2  0
M  END
$$$$

 Created by Python create_sdf_string function

 30 33  0  0  0  0  0  0  0  0999 V2000
    8.3036    9.8571   18.4133 C   0  0  0  0  0  0  0  0  0  0  0  0
    8.3694    7.6612   22.6703 C   0  0  0  0  0  0  0  0  0  0  0  0
    8.4143    6.6863   16.2273 C   0  0  0  0  0  0  0  0  0  0  0  0
   10.7581    6.5674   21.7636 C   0  0  0  0  0  0  0  0  0  0  0  0
    8.4452    8.7960   19.2958 O   0  0  0  0  0  0  0  0  0  0  0  0
    8.7122    6.7842   24.8569 C   0  0  0  0  0  0  0  0  0  0  0  0
   10.3400    6.1726   14.3081 C   0  0  0  0  0  0  0  0  0  0  0  0
    7.4297    7.5873   24.8962 C   0  0  0  0  0  0  0  0  0  0  0  0
    8.1566   10.0536   16.0516 O   0  0  0  0  0  0  0  0  0  0  0  0
   12.4989    6.2074   20.1776 C   0  0  0  0  0  0  0  0  0  0  0  0
    6.9192    9.1053   20.9073 O   0  0  0  0  0  0  0  0  0  0  0  0
   14.3979    6.0729   18.7784 C   0  0  0  0  0  0  0  0  0  0  0  0
    8.6811    9.5354   16.9998 C   0  0  0  0  0  0  0  0  0  0  0  0
    9.2512    4.2713   13.7653 O   0  0  0  0  0  0  0  0  0  0  0  0
    9.6495    8.6317   16.8332 N   0  0  0  0  0  0  0  0  0  0  0  0
    6.2934    8.6988   23.1988 O   0  0  0  0  0  0  0  0  0  0  0  0
    7.9806    8.6543   20.5437 C   0  0  0  0  0  0  0  0  0  0  0  0
   13.7270    5.7144   19.8610 O   0  0  0  0  0  0  0  0  0  0  0  0
    8.3351    5.5235   15.4478 C   0  0  0  0  0  0  0  0  0  0  0  0
    8.7700    7.8434   21.3915 C   0  0  0  0  0  0  0  0  0  0  0  0
   11.7856    6.8851   19.2401 C   0  0  0  0  0  0  0  0  0  0  0  0
   10.5281    7.4276   19.5649 C   0  0  0  0  0  0  0  0  0  0  0  0
   10.0256    7.2907   20.8484 C   0  0  0  0  0  0  0  0  0  0  0  0
    9.3113    5.3049   14.4911 C   0  0  0  0  0  0  0  0  0  0  0  0
    9.4607    7.5646   16.0139 C   0  0  0  0  0  0  0  0  0  0  0  0
   10.4192    7.3157   15.0955 C   0  0  0  0  0  0  0  0  0  0  0  0
   10.2489    6.4227   23.0218 N   0  0  0  0  0  0  0  0  0  0  0  0
    7.2472    8.0746   23.5050 C   0  0  0  0  0  0  0  0  0  0  0  0
    9.2051    6.9101   23.4604 C   0  0  0  0  0  0  0  0  0  0  0  0
   11.9646    6.0299   21.4251 C   0  0  0  0  0  0  0  0  0  0  0  0
  1  5  1  0
  1 13  1  0
  2 20  2  0
  2 28  1  0
  2 29  1  0
  3 19  4  0
  3 25  4  0
  4 23  4  0
  4 27  1  0
  4 30  4  0
  5 17  1  0
  6  8  1  0
  6 29  1  0
  7 24  4  0
  7 26  4  0
  8 28  1  0
  9 13  2  0
 10 18  1  0
 10 21  4  0
 10 30  4  0
 11 17  2  0
 12 18  1  0
 13 15  1  0
 14 24  1  0
 15 25  1  0
 16 28  2  0
 17 20  1  0
 19 24  4  0
 20 23  1  0
 21 22  4  0
 22 23  4  0
 25 26  4  0
 27 29  2  0
M  END
$$$$

 Created by Python create_sdf_string function

 30 33  0  0  0  0  0  0  0  0999 V2000
    8.3036    9.8571   18.4133 C   0  0  0  0  0  0  0  0  0  0  0  0
    8.3694    7.6612   22.6703 C   0  0  0  0  0  0  0  0  0  0  0  0
    8.4143    6.6863   16.2273 C   0  0  0  0  0  0  0  0  0  0  0  0
   10.7581    6.5674   21.7636 C   0  0  0  0  0  0  0  0  0  0  0  0
    8.4452    8.7960   19.2958 O   0  0  0  0  0  0  0  0  0  0  0  0
    8.7122    6.7842   24.8569 C   0  0  0  0  0  0  0  0  0  0  0  0
   10.3400    6.1726   14.3081 C   0  0  0  0  0  0  0  0  0  0  0  0
    7.4297    7.5873   24.8962 C   0  0  0  0  0  0  0  0  0  0  0  0
    8.1566   10.0536   16.0516 O   0  0  0  0  0  0  0  0  0  0  0  0
   12.4989    6.2074   20.1776 C   0  0  0  0  0  0  0  0  0  0  0  0
    6.9192    9.1053   20.9073 O   0  0  0  0  0  0  0  0  0  0  0  0
   14.3979    6.0729   18.7784 C   0  0  0  0  0  0  0  0  0  0  0  0
    8.6811    9.5354   16.9998 C   0  0  0  0  0  0  0  0  0  0  0  0
    9.2512    4.2713   13.7653 O   0  0  0  0  0  0  0  0  0  0  0  0
    9.6495    8.6317   16.8332 N   0  0  0  0  0  0  0  0  0  0  0  0
    6.2934    8.6988   23.1988 O   0  0  0  0  0  0  0  0  0  0  0  0
    7.9806    8.6543   20.5437 C   0  0  0  0  0  0  0  0  0  0  0  0
   13.7270    5.7144   19.8610 O   0  0  0  0  0  0  0  0  0  0  0  0
    8.3351    5.5235   15.4478 C   0  0  0  0  0  0  0  0  0  0  0  0
    8.7700    7.8434   21.3915 C   0  0  0  0  0  0  0  0  0  0  0  0
   11.7856    6.8851   19.2401 C   0  0  0  0  0  0  0  0  0  0  0  0
   10.5281    7.4276   19.5649 C   0  0  0  0  0  0  0  0  0  0  0  0
   10.0256    7.2907   20.8484 C   0  0  0  0  0  0  0  0  0  0  0  0
    9.3113    5.3049   14.4911 C   0  0  0  0  0  0  0  0  0  0  0  0
    9.4607    7.5646   16.0139 C   0  0  0  0  0  0  0  0  0  0  0  0
   10.4192    7.3157   15.0955 C   0  0  0  0  0  0  0  0  0  0  0  0
   10.2489    6.4227   23.0218 N   0  0  0  0  0  0  0  0  0  0  0  0
    7.2472    8.0746   23.5050 C   0  0  0  0  0  0  0  0  0  0  0  0
    9.2051    6.9101   23.4604 C   0  0  0  0  0  0  0  0  0  0  0  0
   11.9646    6.0299   21.4251 C   0  0  0  0  0  0  0  0  0  0  0  0
  1  5  1  0
  1 13  1  0
  2 20  2  0
  2 28  1  0
  2 29  1  0
  3 19  4  0
  3 25  4  0
  4 23  4  0
  4 27  1  0
  4 30  4  0
  5 17  1  0
  6  8  1  0
  6 29  1  0
  7 24  4  0
  7 26  4  0
  8 28  1  0
  9 13  2  0
 10 18  1  0
 10 21  4  0
 10 30  4  0
 11 17  2  0
 12 18  1  0
 13 15  1  0
 14 24  1  0
 15 25  1  0
 16 28  2  0
 17 20  1  0
 19 24  4  0
 20 23  1  0
 21 22  4  0
 22 23  4  0
 25 26  4  0
 27 29  2  0
M  END
$$$$

 Created by Python create_sdf_string function

 30 33  0  0  0  0  0  0  0  0999 V2000
    8.3036    9.8571   18.4133 C   0  0  0  0  0  0  0  0  0  0  0  0
    8.3694    7.6612   22.6703 C   0  0  0  0  0  0  0  0  0  0  0  0
    8.4143    6.6863   16.2273 C   0  0  0  0  0  0  0  0  0  0  0  0
   10.7581    6.5674   21.7636 C   0  0  0  0  0  0  0  0  0  0  0  0
    8.4452    8.7960   19.2958 O   0  0  0  0  0  0  0  0  0  0  0  0
    8.7122    6.7842   24.8569 C   0  0  0  0  0  0  0  0  0  0  0  0
   10.3400    6.1726   14.3081 C   0  0  0  0  0  0  0  0  0  0  0  0
    7.4297    7.5873   24.8962 C   0  0  0  0  0  0  0  0  0  0  0  0
    8.1566   10.0536   16.0516 O   0  0  0  0  0  0  0  0  0  0  0  0
   12.4989    6.2074   20.1776 C   0  0  0  0  0  0  0  0  0  0  0  0
    6.9192    9.1053   20.9073 O   0  0  0  0  0  0  0  0  0  0  0  0
   14.3979    6.0729   18.7784 C   0  0  0  0  0  0  0  0  0  0  0  0
    8.6811    9.5354   16.9998 C   0  0  0  0  0  0  0  0  0  0  0  0
    9.2512    4.2713   13.7653 O   0  0  0  0  0  0  0  0  0  0  0  0
    9.6495    8.6317   16.8332 N   0  0  0  0  0  0  0  0  0  0  0  0
    6.2934    8.6988   23.1988 O   0  0  0  0  0  0  0  0  0  0  0  0
    7.9806    8.6543   20.5437 C   0  0  0  0  0  0  0  0  0  0  0  0
   13.7270    5.7144   19.8610 O   0  0  0  0  0  0  0  0  0  0  0  0
    8.3351    5.5235   15.4478 C   0  0  0  0  0  0  0  0  0  0  0  0
    8.7700    7.8434   21.3915 C   0  0  0  0  0  0  0  0  0  0  0  0
   11.7856    6.8851   19.2401 C   0  0  0  0  0  0  0  0  0  0  0  0
   10.5281    7.4276   19.5649 C   0  0  0  0  0  0  0  0  0  0  0  0
   10.0256    7.2907   20.8484 C   0  0  0  0  0  0  0  0  0  0  0  0
    9.3113    5.3049   14.4911 C   0  0  0  0  0  0  0  0  0  0  0  0
    9.4607    7.5646   16.0139 C   0  0  0  0  0  0  0  0  0  0  0  0
   10.4192    7.3157   15.0955 C   0  0  0  0  0  0  0  0  0  0  0  0
   10.2489    6.4227   23.0218 N   0  0  0  0  0  0  0  0  0  0  0  0
    7.2472    8.0746   23.5050 C   0  0  0  0  0  0  0  0  0  0  0  0
    9.2051    6.9101   23.4604 C   0  0  0  0  0  0  0  0  0  0  0  0
   11.9646    6.0299   21.4251 C   0  0  0  0  0  0  0  0  0  0  0  0
  1  5  1  0
  1 13  1  0
  2 20  2  0
  2 28  1  0
  2 29  1  0
  3 19  4  0
  3 25  4  0
  4 23  4  0
  4 27  1  0
  4 30  4  0
  5 17  1  0
  6  8  1  0
  6 29  1  0
  7 24  4  0
  7 26  4  0
  8 28  1  0
  9 13  2  0
 10 18  1  0
 10 21  4  0
 10 30  4  0
 11 17  2  0
 12 18  1  0
 13 15  1  0
 14 24  1  0
 15 25  1  0
 16 28  2  0
 17 20  1  0
 19 24  4  0
 20 23  1  0
 21 22  4  0
 22 23  4  0
 25 26  4  0
 27 29  2  0
M  END
$$$$

 Created by Python create_sdf_string function

 30 33  0  0  0  0  0  0  0  0999 V2000
    8.3036    9.8571   18.4133 C   0  0  0  0  0  0  0  0  0  0  0  0
    8.3694    7.6612   22.6703 C   0  0  0  0  0  0  0  0  0  0  0  0
    8.4143    6.6863   16.2273 C   0  0  0  0  0  0  0  0  0  0  0  0
   10.7581    6.5674   21.7636 C   0  0  0  0  0  0  0  0  0  0  0  0
    8.4452    8.7960   19.2958 O   0  0  0  0  0  0  0  0  0  0  0  0
    8.7122    6.7842   24.8569 C   0  0  0  0  0  0  0  0  0  0  0  0
   10.3400    6.1726   14.3081 C   0  0  0  0  0  0  0  0  0  0  0  0
    7.4297    7.5873   24.8962 C   0  0  0  0  0  0  0  0  0  0  0  0
    8.1566   10.0536   16.0516 O   0  0  0  0  0  0  0  0  0  0  0  0
   12.4989    6.2074   20.1776 C   0  0  0  0  0  0  0  0  0  0  0  0
    6.9192    9.1053   20.9073 O   0  0  0  0  0  0  0  0  0  0  0  0
   14.3979    6.0729   18.7784 C   0  0  0  0  0  0  0  0  0  0  0  0
    8.6811    9.5354   16.9998 C   0  0  0  0  0  0  0  0  0  0  0  0
    9.2512    4.2713   13.7653 O   0  0  0  0  0  0  0  0  0  0  0  0
    9.6495    8.6317   16.8332 N   0  0  0  0  0  0  0  0  0  0  0  0
    6.2934    8.6988   23.1988 O   0  0  0  0  0  0  0  0  0  0  0  0
    7.9806    8.6543   20.5437 C   0  0  0  0  0  0  0  0  0  0  0  0
   13.7270    5.7144   19.8610 O   0  0  0  0  0  0  0  0  0  0  0  0
    8.3351    5.5235   15.4478 C   0  0  0  0  0  0  0  0  0  0  0  0
    8.7700    7.8434   21.3915 C   0  0  0  0  0  0  0  0  0  0  0  0
   11.7856    6.8851   19.2401 C   0  0  0  0  0  0  0  0  0  0  0  0
   10.5281    7.4276   19.5649 C   0  0  0  0  0  0  0  0  0  0  0  0
   10.0256    7.2907   20.8484 C   0  0  0  0  0  0  0  0  0  0  0  0
    9.3113    5.3049   14.4911 C   0  0  0  0  0  0  0  0  0  0  0  0
    9.4607    7.5646   16.0139 C   0  0  0  0  0  0  0  0  0  0  0  0
   10.4192    7.3157   15.0955 C   0  0  0  0  0  0  0  0  0  0  0  0
   10.2489    6.4227   23.0218 N   0  0  0  0  0  0  0  0  0  0  0  0
    7.2472    8.0746   23.5050 C   0  0  0  0  0  0  0  0  0  0  0  0
    9.2051    6.9101   23.4604 C   0  0  0  0  0  0  0  0  0  0  0  0
   11.9646    6.0299   21.4251 C   0  0  0  0  0  0  0  0  0  0  0  0
  1  5  1  0
  1 13  1  0
  2 20  2  0
  2 28  1  0
  2 29  1  0
  3 19  4  0
  3 25  4  0
  4 23  4  0
  4 27  1  0
  4 30  4  0
  5 17  1  0
  6  8  1  0
  6 29  1  0
  7 24  4  0
  7 26  4  0
  8 28  1  0
  9 13  2  0
 10 18  1  0
 10 21  4  0
 10 30  4  0
 11 17  2  0
 12 18  1  0
 13 15  1  0
 14 24  1  0
 15 25  1  0
 16 28  2  0
 17 20  1  0
 19 24  4  0
 20 23  1  0
 21 22  4  0
 22 23  4  0
 25 26  4  0
 27 29  2  0
M  END
$$$$

 Created by Python create_sdf_string function

 30 33  0  0  0  0  0  0  0  0999 V2000
    8.3036    9.8571   18.4133 C   0  0  0  0  0  0  0  0  0  0  0  0
    8.3694    7.6612   22.6703 C   0  0  0  0  0  0  0  0  0  0  0  0
    8.4143    6.6863   16.2273 C   0  0  0  0  0  0  0  0  0  0  0  0
   10.7581    6.5674   21.7636 C   0  0  0  0  0  0  0  0  0  0  0  0
    8.4452    8.7960   19.2958 O   0  0  0  0  0  0  0  0  0  0  0  0
    8.7122    6.7842   24.8569 C   0  0  0  0  0  0  0  0  0  0  0  0
   10.3400    6.1726   14.3081 C   0  0  0  0  0  0  0  0  0  0  0  0
    7.4297    7.5873   24.8962 C   0  0  0  0  0  0  0  0  0  0  0  0
    8.1566   10.0536   16.0516 O   0  0  0  0  0  0  0  0  0  0  0  0
   12.4989    6.2074   20.1776 C   0  0  0  0  0  0  0  0  0  0  0  0
    6.9192    9.1053   20.9073 O   0  0  0  0  0  0  0  0  0  0  0  0
   14.3979    6.0729   18.7784 C   0  0  0  0  0  0  0  0  0  0  0  0
    8.6811    9.5354   16.9998 C   0  0  0  0  0  0  0  0  0  0  0  0
    9.2512    4.2713   13.7653 O   0  0  0  0  0  0  0  0  0  0  0  0
    9.6495    8.6317   16.8332 N   0  0  0  0  0  0  0  0  0  0  0  0
    6.2934    8.6988   23.1988 O   0  0  0  0  0  0  0  0  0  0  0  0
    7.9806    8.6543   20.5437 C   0  0  0  0  0  0  0  0  0  0  0  0
   13.7270    5.7144   19.8610 O   0  0  0  0  0  0  0  0  0  0  0  0
    8.3351    5.5235   15.4478 C   0  0  0  0  0  0  0  0  0  0  0  0
    8.7700    7.8434   21.3915 C   0  0  0  0  0  0  0  0  0  0  0  0
   11.7856    6.8851   19.2401 C   0  0  0  0  0  0  0  0  0  0  0  0
   10.5281    7.4276   19.5649 C   0  0  0  0  0  0  0  0  0  0  0  0
   10.0256    7.2907   20.8484 C   0  0  0  0  0  0  0  0  0  0  0  0
    9.3113    5.3049   14.4911 C   0  0  0  0  0  0  0  0  0  0  0  0
    9.4607    7.5646   16.0139 C   0  0  0  0  0  0  0  0  0  0  0  0
   10.4192    7.3157   15.0955 C   0  0  0  0  0  0  0  0  0  0  0  0
   10.2489    6.4227   23.0218 N   0  0  0  0  0  0  0  0  0  0  0  0
    7.2472    8.0746   23.5050 C   0  0  0  0  0  0  0  0  0  0  0  0
    9.2051    6.9101   23.4604 C   0  0  0  0  0  0  0  0  0  0  0  0
   11.9646    6.0299   21.4251 C   0  0  0  0  0  0  0  0  0  0  0  0
  1  5  1  0
  1 13  1  0
  2 20  2  0
  2 28  1  0
  2 29  1  0
  3 19  4  0
  3 25  4  0
  4 23  4  0
  4 27  1  0
  4 30  4  0
  5 17  1  0
  6  8  1  0
  6 29  1  0
  7 24  4  0
  7 26  4  0
  8 28  1  0
  9 13  2  0
 10 18  1  0
 10 21  4  0
 10 30  4  0
 11 17  2  0
 12 18  1  0
 13 15  1  0
 14 24  1  0
 15 25  1  0
 16 28  2  0
 17 20  1  0
 19 24  4  0
 20 23  1  0
 21 22  4  0
 22 23  4  0
 25 26  4  0
 27 29  2  0
M  END
$$$$

 Created by Python create_sdf_string function

 30 33  0  0  0  0  0  0  0  0999 V2000
    8.3036    9.8571   18.4133 C   0  0  0  0  0  0  0  0  0  0  0  0
    8.3694    7.6612   22.6703 C   0  0  0  0  0  0  0  0  0  0  0  0
    8.4143    6.6863   16.2273 C   0  0  0  0  0  0  0  0  0  0  0  0
   10.7581    6.5674   21.7636 C   0  0  0  0  0  0  0  0  0  0  0  0
    8.4452    8.7960   19.2958 O   0  0  0  0  0  0  0  0  0  0  0  0
    8.7122    6.7842   24.8569 C   0  0  0  0  0  0  0  0  0  0  0  0
   10.3400    6.1726   14.3081 C   0  0  0  0  0  0  0  0  0  0  0  0
    7.4297    7.5873   24.8962 C   0  0  0  0  0  0  0  0  0  0  0  0
    8.1566   10.0536   16.0516 O   0  0  0  0  0  0  0  0  0  0  0  0
   12.4989    6.2074   20.1776 C   0  0  0  0  0  0  0  0  0  0  0  0
    6.9192    9.1053   20.9073 O   0  0  0  0  0  0  0  0  0  0  0  0
   14.3979    6.0729   18.7784 C   0  0  0  0  0  0  0  0  0  0  0  0
    8.6811    9.5354   16.9998 C   0  0  0  0  0  0  0  0  0  0  0  0
    9.2512    4.2713   13.7653 O   0  0  0  0  0  0  0  0  0  0  0  0
    9.6495    8.6317   16.8332 N   0  0  0  0  0  0  0  0  0  0  0  0
    6.2934    8.6988   23.1988 O   0  0  0  0  0  0  0  0  0  0  0  0
    7.9806    8.6543   20.5437 C   0  0  0  0  0  0  0  0  0  0  0  0
   13.7270    5.7144   19.8610 O   0  0  0  0  0  0  0  0  0  0  0  0
    8.3351    5.5235   15.4478 C   0  0  0  0  0  0  0  0  0  0  0  0
    8.7700    7.8434   21.3915 C   0  0  0  0  0  0  0  0  0  0  0  0
   11.7856    6.8851   19.2401 C   0  0  0  0  0  0  0  0  0  0  0  0
   10.5281    7.4276   19.5649 C   0  0  0  0  0  0  0  0  0  0  0  0
   10.0256    7.2907   20.8484 C   0  0  0  0  0  0  0  0  0  0  0  0
    9.3113    5.3049   14.4911 C   0  0  0  0  0  0  0  0  0  0  0  0
    9.4607    7.5646   16.0139 C   0  0  0  0  0  0  0  0  0  0  0  0
   10.4192    7.3157   15.0955 C   0  0  0  0  0  0  0  0  0  0  0  0
   10.2489    6.4227   23.0218 N   0  0  0  0  0  0  0  0  0  0  0  0
    7.2472    8.0746   23.5050 C   0  0  0  0  0  0  0  0  0  0  0  0
    9.2051    6.9101   23.4604 C   0  0  0  0  0  0  0  0  0  0  0  0
   11.9646    6.0299   21.4251 C   0  0  0  0  0  0  0  0  0  0  0  0
  1  5  1  0
  1 13  1  0
  2 20  2  0
  2 28  1  0
  2 29  1  0
  3 19  4  0
  3 25  4  0
  4 23  4  0
  4 27  1  0
  4 30  4  0
  5 17  1  0
  6  8  1  0
  6 29  1  0
  7 24  4  0
  7 26  4  0
  8 28  1  0
  9 13  2  0
 10 18  1  0
 10 21  4  0
 10 30  4  0
 11 17  2  0
 12 18  1  0
 13 15  1  0
 14 24  1  0
 15 25  1  0
 16 28  2  0
 17 20  1  0
 19 24  4  0
 20 23  1  0
 21 22  4  0
 22 23  4  0
 25 26  4  0
 27 29  2  0
M  END
$$$$

 Created by Python create_sdf_string function

 30 33  0  0  0  0  0  0  0  0999 V2000
    8.3036    9.8571   18.4133 C   0  0  0  0  0  0  0  0  0  0  0  0
    8.3694    7.6612   22.6703 C   0  0  0  0  0  0  0  0  0  0  0  0
    8.4143    6.6863   16.2273 C   0  0  0  0  0  0  0  0  0  0  0  0
   10.7581    6.5674   21.7636 C   0  0  0  0  0  0  0  0  0  0  0  0
    8.4452    8.7960   19.2958 O   0  0  0  0  0  0  0  0  0  0  0  0
    8.7122    6.7842   24.8569 C   0  0  0  0  0  0  0  0  0  0  0  0
   10.3400    6.1726   14.3081 C   0  0  0  0  0  0  0  0  0  0  0  0
    7.4297    7.5873   24.8962 C   0  0  0  0  0  0  0  0  0  0  0  0
    8.1566   10.0536   16.0516 O   0  0  0  0  0  0  0  0  0  0  0  0
   12.4989    6.2074   20.1776 C   0  0  0  0  0  0  0  0  0  0  0  0
    6.9192    9.1053   20.9073 O   0  0  0  0  0  0  0  0  0  0  0  0
   14.3979    6.0729   18.7784 C   0  0  0  0  0  0  0  0  0  0  0  0
    8.6811    9.5354   16.9998 C   0  0  0  0  0  0  0  0  0  0  0  0
    9.2512    4.2713   13.7653 O   0  0  0  0  0  0  0  0  0  0  0  0
    9.6495    8.6317   16.8332 N   0  0  0  0  0  0  0  0  0  0  0  0
    6.2934    8.6988   23.1988 O   0  0  0  0  0  0  0  0  0  0  0  0
    7.9806    8.6543   20.5437 C   0  0  0  0  0  0  0  0  0  0  0  0
   13.7270    5.7144   19.8610 O   0  0  0  0  0  0  0  0  0  0  0  0
    8.3351    5.5235   15.4478 C   0  0  0  0  0  0  0  0  0  0  0  0
    8.7700    7.8434   21.3915 C   0  0  0  0  0  0  0  0  0  0  0  0
   11.7856    6.8851   19.2401 C   0  0  0  0  0  0  0  0  0  0  0  0
   10.5281    7.4276   19.5649 C   0  0  0  0  0  0  0  0  0  0  0  0
   10.0256    7.2907   20.8484 C   0  0  0  0  0  0  0  0  0  0  0  0
    9.3113    5.3049   14.4911 C   0  0  0  0  0  0  0  0  0  0  0  0
    9.4607    7.5646   16.0139 C   0  0  0  0  0  0  0  0  0  0  0  0
   10.4192    7.3157   15.0955 C   0  0  0  0  0  0  0  0  0  0  0  0
   10.2489    6.4227   23.0218 N   0  0  0  0  0  0  0  0  0  0  0  0
    7.2472    8.0746   23.5050 C   0  0  0  0  0  0  0  0  0  0  0  0
    9.2051    6.9101   23.4604 C   0  0  0  0  0  0  0  0  0  0  0  0
   11.9646    6.0299   21.4251 C   0  0  0  0  0  0  0  0  0  0  0  0
  1  5  1  0
  1 13  1  0
  2 20  2  0
  2 28  1  0
  2 29  1  0
  3 19  4  0
  3 25  4  0
  4 23  4  0
  4 27  1  0
  4 30  4  0
  5 17  1  0
  6  8  1  0
  6 29  1  0
  7 24  4  0
  7 26  4  0
  8 28  1  0
  9 13  2  0
 10 18  1  0
 10 21  4  0
 10 30  4  0
 11 17  2  0
 12 18  1  0
 13 15  1  0
 14 24  1  0
 15 25  1  0
 16 28  2  0
 17 20  1  0
 19 24  4  0
 20 23  1  0
 21 22  4  0
 22 23  4  0
 25 26  4  0
 27 29  2  0
M  END
$$$$

 Created by Python create_sdf_string function

 30 33  0  0  0  0  0  0  0  0999 V2000
    8.3036    9.8571   18.4133 C   0  0  0  0  0  0  0  0  0  0  0  0
    8.3694    7.6612   22.6703 C   0  0  0  0  0  0  0  0  0  0  0  0
    8.4143    6.6863   16.2273 C   0  0  0  0  0  0  0  0  0  0  0  0
   10.7581    6.5674   21.7636 C   0  0  0  0  0  0  0  0  0  0  0  0
    8.4452    8.7960   19.2958 O   0  0  0  0  0  0  0  0  0  0  0  0
    8.7122    6.7842   24.8569 C   0  0  0  0  0  0  0  0  0  0  0  0
   10.3400    6.1726   14.3081 C   0  0  0  0  0  0  0  0  0  0  0  0
    7.4297    7.5873   24.8962 C   0  0  0  0  0  0  0  0  0  0  0  0
    8.1566   10.0536   16.0516 O   0  0  0  0  0  0  0  0  0  0  0  0
   12.4989    6.2074   20.1776 C   0  0  0  0  0  0  0  0  0  0  0  0
    6.9192    9.1053   20.9073 O   0  0  0  0  0  0  0  0  0  0  0  0
   14.3979    6.0729   18.7784 C   0  0  0  0  0  0  0  0  0  0  0  0
    8.6811    9.5354   16.9998 C   0  0  0  0  0  0  0  0  0  0  0  0
    9.2512    4.2713   13.7653 O   0  0  0  0  0  0  0  0  0  0  0  0
    9.6495    8.6317   16.8332 N   0  0  0  0  0  0  0  0  0  0  0  0
    6.2934    8.6988   23.1988 O   0  0  0  0  0  0  0  0  0  0  0  0
    7.9806    8.6543   20.5437 C   0  0  0  0  0  0  0  0  0  0  0  0
   13.7270    5.7144   19.8610 O   0  0  0  0  0  0  0  0  0  0  0  0
    8.3351    5.5235   15.4478 C   0  0  0  0  0  0  0  0  0  0  0  0
    8.7700    7.8434   21.3915 C   0  0  0  0  0  0  0  0  0  0  0  0
   11.7856    6.8851   19.2401 C   0  0  0  0  0  0  0  0  0  0  0  0
   10.5281    7.4276   19.5649 C   0  0  0  0  0  0  0  0  0  0  0  0
   10.0256    7.2907   20.8484 C   0  0  0  0  0  0  0  0  0  0  0  0
    9.3113    5.3049   14.4911 C   0  0  0  0  0  0  0  0  0  0  0  0
    9.4607    7.5646   16.0139 C   0  0  0  0  0  0  0  0  0  0  0  0
   10.4192    7.3157   15.0955 C   0  0  0  0  0  0  0  0  0  0  0  0
   10.2489    6.4227   23.0218 N   0  0  0  0  0  0  0  0  0  0  0  0
    7.2472    8.0746   23.5050 C   0  0  0  0  0  0  0  0  0  0  0  0
    9.2051    6.9101   23.4604 C   0  0  0  0  0  0  0  0  0  0  0  0
   11.9646    6.0299   21.4251 C   0  0  0  0  0  0  0  0  0  0  0  0
  1  5  1  0
  1 13  1  0
  2 20  2  0
  2 28  1  0
  2 29  1  0
  3 19  4  0
  3 25  4  0
  4 23  4  0
  4 27  1  0
  4 30  4  0
  5 17  1  0
  6  8  1  0
  6 29  1  0
  7 24  4  0
  7 26  4  0
  8 28  1  0
  9 13  2  0
 10 18  1  0
 10 21  4  0
 10 30  4  0
 11 17  2  0
 12 18  1  0
 13 15  1  0
 14 24  1  0
 15 25  1  0
 16 28  2  0
 17 20  1  0
 19 24  4  0
 20 23  1  0
 21 22  4  0
 22 23  4  0
 25 26  4  0
 27 29  2  0
M  END
$$$$

 Created by Python create_sdf_string function

 30 33  0  0  0  0  0  0  0  0999 V2000
    8.3036    9.8571   18.4133 C   0  0  0  0  0  0  0  0  0  0  0  0
    8.3694    7.6612   22.6703 C   0  0  0  0  0  0  0  0  0  0  0  0
    8.4143    6.6863   16.2273 C   0  0  0  0  0  0  0  0  0  0  0  0
   10.7581    6.5674   21.7636 C   0  0  0  0  0  0  0  0  0  0  0  0
    8.4452    8.7960   19.2958 O   0  0  0  0  0  0  0  0  0  0  0  0
    8.7122    6.7842   24.8569 C   0  0  0  0  0  0  0  0  0  0  0  0
   10.3400    6.1726   14.3081 C   0  0  0  0  0  0  0  0  0  0  0  0
    7.4297    7.5873   24.8962 C   0  0  0  0  0  0  0  0  0  0  0  0
    8.1566   10.0536   16.0516 O   0  0  0  0  0  0  0  0  0  0  0  0
   12.4989    6.2074   20.1776 C   0  0  0  0  0  0  0  0  0  0  0  0
    6.9192    9.1053   20.9073 O   0  0  0  0  0  0  0  0  0  0  0  0
   14.3979    6.0729   18.7784 C   0  0  0  0  0  0  0  0  0  0  0  0
    8.6811    9.5354   16.9998 C   0  0  0  0  0  0  0  0  0  0  0  0
    9.2512    4.2713   13.7653 O   0  0  0  0  0  0  0  0  0  0  0  0
    9.6495    8.6317   16.8332 N   0  0  0  0  0  0  0  0  0  0  0  0
    6.2934    8.6988   23.1988 O   0  0  0  0  0  0  0  0  0  0  0  0
    7.9806    8.6543   20.5437 C   0  0  0  0  0  0  0  0  0  0  0  0
   13.7270    5.7144   19.8610 O   0  0  0  0  0  0  0  0  0  0  0  0
    8.3351    5.5235   15.4478 C   0  0  0  0  0  0  0  0  0  0  0  0
    8.7700    7.8434   21.3915 C   0  0  0  0  0  0  0  0  0  0  0  0
   11.7856    6.8851   19.2401 C   0  0  0  0  0  0  0  0  0  0  0  0
   10.5281    7.4276   19.5649 C   0  0  0  0  0  0  0  0  0  0  0  0
   10.0256    7.2907   20.8484 C   0  0  0  0  0  0  0  0  0  0  0  0
    9.3113    5.3049   14.4911 C   0  0  0  0  0  0  0  0  0  0  0  0
    9.4607    7.5646   16.0139 C   0  0  0  0  0  0  0  0  0  0  0  0
   10.4192    7.3157   15.0955 C   0  0  0  0  0  0  0  0  0  0  0  0
   10.2489    6.4227   23.0218 N   0  0  0  0  0  0  0  0  0  0  0  0
    7.2472    8.0746   23.5050 C   0  0  0  0  0  0  0  0  0  0  0  0
    9.2051    6.9101   23.4604 C   0  0  0  0  0  0  0  0  0  0  0  0
   11.9646    6.0299   21.4251 C   0  0  0  0  0  0  0  0  0  0  0  0
  1  5  1  0
  1 13  1  0
  2 20  2  0
  2 28  1  0
  2 29  1  0
  3 19  4  0
  3 25  4  0
  4 23  4  0
  4 27  1  0
  4 30  4  0
  5 17  1  0
  6  8  1  0
  6 29  1  0
  7 24  4  0
  7 26  4  0
  8 28  1  0
  9 13  2  0
 10 18  1  0
 10 21  4  0
 10 30  4  0
 11 17  2  0
 12 18  1  0
 13 15  1  0
 14 24  1  0
 15 25  1  0
 16 28  2  0
 17 20  1  0
 19 24  4  0
 20 23  1  0
 21 22  4  0
 22 23  4  0
 25 26  4  0
 27 29  2  0
M  END
$$$$

 Created by Python create_sdf_string function

 30 33  0  0  0  0  0  0  0  0999 V2000
    8.3036    9.8571   18.4133 C   0  0  0  0  0  0  0  0  0  0  0  0
    8.3694    7.6612   22.6703 C   0  0  0  0  0  0  0  0  0  0  0  0
    8.4143    6.6863   16.2273 C   0  0  0  0  0  0  0  0  0  0  0  0
   10.7581    6.5674   21.7636 C   0  0  0  0  0  0  0  0  0  0  0  0
    8.4452    8.7960   19.2958 O   0  0  0  0  0  0  0  0  0  0  0  0
    8.7122    6.7842   24.8569 C   0  0  0  0  0  0  0  0  0  0  0  0
   10.3400    6.1726   14.3081 C   0  0  0  0  0  0  0  0  0  0  0  0
    7.4297    7.5873   24.8962 C   0  0  0  0  0  0  0  0  0  0  0  0
    8.1566   10.0536   16.0516 O   0  0  0  0  0  0  0  0  0  0  0  0
   12.4989    6.2074   20.1776 C   0  0  0  0  0  0  0  0  0  0  0  0
    6.9192    9.1053   20.9073 O   0  0  0  0  0  0  0  0  0  0  0  0
   14.3979    6.0729   18.7784 C   0  0  0  0  0  0  0  0  0  0  0  0
    8.6811    9.5354   16.9998 C   0  0  0  0  0  0  0  0  0  0  0  0
    9.2512    4.2713   13.7653 O   0  0  0  0  0  0  0  0  0  0  0  0
    9.6495    8.6317   16.8332 N   0  0  0  0  0  0  0  0  0  0  0  0
    6.2934    8.6988   23.1988 O   0  0  0  0  0  0  0  0  0  0  0  0
    7.9806    8.6543   20.5437 C   0  0  0  0  0  0  0  0  0  0  0  0
   13.7270    5.7144   19.8610 O   0  0  0  0  0  0  0  0  0  0  0  0
    8.3351    5.5235   15.4478 C   0  0  0  0  0  0  0  0  0  0  0  0
    8.7700    7.8434   21.3915 C   0  0  0  0  0  0  0  0  0  0  0  0
   11.7856    6.8851   19.2401 C   0  0  0  0  0  0  0  0  0  0  0  0
   10.5281    7.4276   19.5649 C   0  0  0  0  0  0  0  0  0  0  0  0
   10.0256    7.2907   20.8484 C   0  0  0  0  0  0  0  0  0  0  0  0
    9.3113    5.3049   14.4911 C   0  0  0  0  0  0  0  0  0  0  0  0
    9.4607    7.5646   16.0139 C   0  0  0  0  0  0  0  0  0  0  0  0
   10.4192    7.3157   15.0955 C   0  0  0  0  0  0  0  0  0  0  0  0
   10.2489    6.4227   23.0218 N   0  0  0  0  0  0  0  0  0  0  0  0
    7.2472    8.0746   23.5050 C   0  0  0  0  0  0  0  0  0  0  0  0
    9.2051    6.9101   23.4604 C   0  0  0  0  0  0  0  0  0  0  0  0
   11.9646    6.0299   21.4251 C   0  0  0  0  0  0  0  0  0  0  0  0
  1  5  1  0
  1 13  1  0
  2 20  2  0
  2 28  1  0
  2 29  1  0
  3 19  4  0
  3 25  4  0
  4 23  4  0
  4 27  1  0
  4 30  4  0
  5 17  1  0
  6  8  1  0
  6 29  1  0
  7 24  4  0
  7 26  4  0
  8 28  1  0
  9 13  2  0
 10 18  1  0
 10 21  4  0
 10 30  4  0
 11 17  2  0
 12 18  1  0
 13 15  1  0
 14 24  1  0
 15 25  1  0
 16 28  2  0
 17 20  1  0
 19 24  4  0
 20 23  1  0
 21 22  4  0
 22 23  4  0
 25 26  4  0
 27 29  2  0
M  END
$$$$

 Created by Python create_sdf_string function

 30 33  0  0  0  0  0  0  0  0999 V2000
    8.3036    9.8571   18.4133 C   0  0  0  0  0  0  0  0  0  0  0  0
    8.3694    7.6612   22.6703 C   0  0  0  0  0  0  0  0  0  0  0  0
    8.4143    6.6863   16.2273 C   0  0  0  0  0  0  0  0  0  0  0  0
   10.7581    6.5674   21.7636 C   0  0  0  0  0  0  0  0  0  0  0  0
    8.4452    8.7960   19.2958 O   0  0  0  0  0  0  0  0  0  0  0  0
    8.7122    6.7842   24.8569 C   0  0  0  0  0  0  0  0  0  0  0  0
   10.3400    6.1726   14.3081 C   0  0  0  0  0  0  0  0  0  0  0  0
    7.4297    7.5873   24.8962 C   0  0  0  0  0  0  0  0  0  0  0  0
    8.1566   10.0536   16.0516 O   0  0  0  0  0  0  0  0  0  0  0  0
   12.4989    6.2074   20.1776 C   0  0  0  0  0  0  0  0  0  0  0  0
    6.9192    9.1053   20.9073 O   0  0  0  0  0  0  0  0  0  0  0  0
   14.3979    6.0729   18.7784 C   0  0  0  0  0  0  0  0  0  0  0  0
    8.6811    9.5354   16.9998 C   0  0  0  0  0  0  0  0  0  0  0  0
    9.2512    4.2713   13.7653 O   0  0  0  0  0  0  0  0  0  0  0  0
    9.6495    8.6317   16.8332 N   0  0  0  0  0  0  0  0  0  0  0  0
    6.2934    8.6988   23.1988 O   0  0  0  0  0  0  0  0  0  0  0  0
    7.9806    8.6543   20.5437 C   0  0  0  0  0  0  0  0  0  0  0  0
   13.7270    5.7144   19.8610 O   0  0  0  0  0  0  0  0  0  0  0  0
    8.3351    5.5235   15.4478 C   0  0  0  0  0  0  0  0  0  0  0  0
    8.7700    7.8434   21.3915 C   0  0  0  0  0  0  0  0  0  0  0  0
   11.7856    6.8851   19.2401 C   0  0  0  0  0  0  0  0  0  0  0  0
   10.5281    7.4276   19.5649 C   0  0  0  0  0  0  0  0  0  0  0  0
   10.0256    7.2907   20.8484 C   0  0  0  0  0  0  0  0  0  0  0  0
    9.3113    5.3049   14.4911 C   0  0  0  0  0  0  0  0  0  0  0  0
    9.4607    7.5646   16.0139 C   0  0  0  0  0  0  0  0  0  0  0  0
   10.4192    7.3157   15.0955 C   0  0  0  0  0  0  0  0  0  0  0  0
   10.2489    6.4227   23.0218 N   0  0  0  0  0  0  0  0  0  0  0  0
    7.2472    8.0746   23.5050 C   0  0  0  0  0  0  0  0  0  0  0  0
    9.2051    6.9101   23.4604 C   0  0  0  0  0  0  0  0  0  0  0  0
   11.9646    6.0299   21.4251 C   0  0  0  0  0  0  0  0  0  0  0  0
  1  5  1  0
  1 13  1  0
  2 20  2  0
  2 28  1  0
  2 29  1  0
  3 19  4  0
  3 25  4  0
  4 23  4  0
  4 27  1  0
  4 30  4  0
  5 17  1  0
  6  8  1  0
  6 29  1  0
  7 24  4  0
  7 26  4  0
  8 28  1  0
  9 13  2  0
 10 18  1  0
 10 21  4  0
 10 30  4  0
 11 17  2  0
 12 18  1  0
 13 15  1  0
 14 24  1  0
 15 25  1  0
 16 28  2  0
 17 20  1  0
 19 24  4  0
 20 23  1  0
 21 22  4  0
 22 23  4  0
 25 26  4  0
 27 29  2  0
M  END
$$$$

 Created by Python create_sdf_string function

 30 33  0  0  0  0  0  0  0  0999 V2000
    8.3036    9.8571   18.4133 C   0  0  0  0  0  0  0  0  0  0  0  0
    8.3694    7.6612   22.6703 C   0  0  0  0  0  0  0  0  0  0  0  0
    8.4143    6.6863   16.2273 C   0  0  0  0  0  0  0  0  0  0  0  0
   10.7581    6.5674   21.7636 C   0  0  0  0  0  0  0  0  0  0  0  0
    8.4452    8.7960   19.2958 O   0  0  0  0  0  0  0  0  0  0  0  0
    8.7122    6.7842   24.8569 C   0  0  0  0  0  0  0  0  0  0  0  0
   10.3400    6.1726   14.3081 C   0  0  0  0  0  0  0  0  0  0  0  0
    7.4297    7.5873   24.8962 C   0  0  0  0  0  0  0  0  0  0  0  0
    8.1566   10.0536   16.0516 O   0  0  0  0  0  0  0  0  0  0  0  0
   12.4989    6.2074   20.1776 C   0  0  0  0  0  0  0  0  0  0  0  0
    6.9192    9.1053   20.9073 O   0  0  0  0  0  0  0  0  0  0  0  0
   14.3979    6.0729   18.7784 C   0  0  0  0  0  0  0  0  0  0  0  0
    8.6811    9.5354   16.9998 C   0  0  0  0  0  0  0  0  0  0  0  0
    9.2512    4.2713   13.7653 O   0  0  0  0  0  0  0  0  0  0  0  0
    9.6495    8.6317   16.8332 N   0  0  0  0  0  0  0  0  0  0  0  0
    6.2934    8.6988   23.1988 O   0  0  0  0  0  0  0  0  0  0  0  0
    7.9806    8.6543   20.5437 C   0  0  0  0  0  0  0  0  0  0  0  0
   13.7270    5.7144   19.8610 O   0  0  0  0  0  0  0  0  0  0  0  0
    8.3351    5.5235   15.4478 C   0  0  0  0  0  0  0  0  0  0  0  0
    8.7700    7.8434   21.3915 C   0  0  0  0  0  0  0  0  0  0  0  0
   11.7856    6.8851   19.2401 C   0  0  0  0  0  0  0  0  0  0  0  0
   10.5281    7.4276   19.5649 C   0  0  0  0  0  0  0  0  0  0  0  0
   10.0256    7.2907   20.8484 C   0  0  0  0  0  0  0  0  0  0  0  0
    9.3113    5.3049   14.4911 C   0  0  0  0  0  0  0  0  0  0  0  0
    9.4607    7.5646   16.0139 C   0  0  0  0  0  0  0  0  0  0  0  0
   10.4192    7.3157   15.0955 C   0  0  0  0  0  0  0  0  0  0  0  0
   10.2489    6.4227   23.0218 N   0  0  0  0  0  0  0  0  0  0  0  0
    7.2472    8.0746   23.5050 C   0  0  0  0  0  0  0  0  0  0  0  0
    9.2051    6.9101   23.4604 C   0  0  0  0  0  0  0  0  0  0  0  0
   11.9646    6.0299   21.4251 C   0  0  0  0  0  0  0  0  0  0  0  0
  1  5  1  0
  1 13  1  0
  2 20  2  0
  2 28  1  0
  2 29  1  0
  3 19  4  0
  3 25  4  0
  4 23  4  0
  4 27  1  0
  4 30  4  0
  5 17  1  0
  6  8  1  0
  6 29  1  0
  7 24  4  0
  7 26  4  0
  8 28  1  0
  9 13  2  0
 10 18  1  0
 10 21  4  0
 10 30  4  0
 11 17  2  0
 12 18  1  0
 13 15  1  0
 14 24  1  0
 15 25  1  0
 16 28  2  0
 17 20  1  0
 19 24  4  0
 20 23  1  0
 21 22  4  0
 22 23  4  0
 25 26  4  0
 27 29  2  0
M  END
$$$$

 Created by Python create_sdf_string function

 30 33  0  0  0  0  0  0  0  0999 V2000
    8.3036    9.8571   18.4133 C   0  0  0  0  0  0  0  0  0  0  0  0
    8.3694    7.6612   22.6703 C   0  0  0  0  0  0  0  0  0  0  0  0
    8.4143    6.6863   16.2273 C   0  0  0  0  0  0  0  0  0  0  0  0
   10.7581    6.5674   21.7636 C   0  0  0  0  0  0  0  0  0  0  0  0
    8.4452    8.7960   19.2958 O   0  0  0  0  0  0  0  0  0  0  0  0
    8.7122    6.7842   24.8569 C   0  0  0  0  0  0  0  0  0  0  0  0
   10.3400    6.1726   14.3081 C   0  0  0  0  0  0  0  0  0  0  0  0
    7.4297    7.5873   24.8962 C   0  0  0  0  0  0  0  0  0  0  0  0
    8.1566   10.0536   16.0516 O   0  0  0  0  0  0  0  0  0  0  0  0
   12.4989    6.2074   20.1776 C   0  0  0  0  0  0  0  0  0  0  0  0
    6.9192    9.1053   20.9073 O   0  0  0  0  0  0  0  0  0  0  0  0
   14.3979    6.0729   18.7784 C   0  0  0  0  0  0  0  0  0  0  0  0
    8.6811    9.5354   16.9998 C   0  0  0  0  0  0  0  0  0  0  0  0
    9.2512    4.2713   13.7653 O   0  0  0  0  0  0  0  0  0  0  0  0
    9.6495    8.6317   16.8332 N   0  0  0  0  0  0  0  0  0  0  0  0
    6.2934    8.6988   23.1988 O   0  0  0  0  0  0  0  0  0  0  0  0
    7.9806    8.6543   20.5437 C   0  0  0  0  0  0  0  0  0  0  0  0
   13.7270    5.7144   19.8610 O   0  0  0  0  0  0  0  0  0  0  0  0
    8.3351    5.5235   15.4478 C   0  0  0  0  0  0  0  0  0  0  0  0
    8.7700    7.8434   21.3915 C   0  0  0  0  0  0  0  0  0  0  0  0
   11.7856    6.8851   19.2401 C   0  0  0  0  0  0  0  0  0  0  0  0
   10.5281    7.4276   19.5649 C   0  0  0  0  0  0  0  0  0  0  0  0
   10.0256    7.2907   20.8484 C   0  0  0  0  0  0  0  0  0  0  0  0
    9.3113    5.3049   14.4911 C   0  0  0  0  0  0  0  0  0  0  0  0
    9.4607    7.5646   16.0139 C   0  0  0  0  0  0  0  0  0  0  0  0
   10.4192    7.3157   15.0955 C   0  0  0  0  0  0  0  0  0  0  0  0
   10.2489    6.4227   23.0218 N   0  0  0  0  0  0  0  0  0  0  0  0
    7.2472    8.0746   23.5050 C   0  0  0  0  0  0  0  0  0  0  0  0
    9.2051    6.9101   23.4604 C   0  0  0  0  0  0  0  0  0  0  0  0
   11.9646    6.0299   21.4251 C   0  0  0  0  0  0  0  0  0  0  0  0
  1  5  1  0
  1 13  1  0
  2 20  2  0
  2 28  1  0
  2 29  1  0
  3 19  4  0
  3 25  4  0
  4 23  4  0
  4 27  1  0
  4 30  4  0
  5 17  1  0
  6  8  1  0
  6 29  1  0
  7 24  4  0
  7 26  4  0
  8 28  1  0
  9 13  2  0
 10 18  1  0
 10 21  4  0
 10 30  4  0
 11 17  2  0
 12 18  1  0
 13 15  1  0
 14 24  1  0
 15 25  1  0
 16 28  2  0
 17 20  1  0
 19 24  4  0
 20 23  1  0
 21 22  4  0
 22 23  4  0
 25 26  4  0
 27 29  2  0
M  END
$$$$

 Created by Python create_sdf_string function

 30 33  0  0  0  0  0  0  0  0999 V2000
    8.3036    9.8571   18.4133 C   0  0  0  0  0  0  0  0  0  0  0  0
    8.3694    7.6612   22.6703 C   0  0  0  0  0  0  0  0  0  0  0  0
    8.4143    6.6863   16.2273 C   0  0  0  0  0  0  0  0  0  0  0  0
   10.7581    6.5674   21.7636 C   0  0  0  0  0  0  0  0  0  0  0  0
    8.4452    8.7960   19.2958 O   0  0  0  0  0  0  0  0  0  0  0  0
    8.7122    6.7842   24.8569 C   0  0  0  0  0  0  0  0  0  0  0  0
   10.3400    6.1726   14.3081 C   0  0  0  0  0  0  0  0  0  0  0  0
    7.4297    7.5873   24.8962 C   0  0  0  0  0  0  0  0  0  0  0  0
    8.1566   10.0536   16.0516 O   0  0  0  0  0  0  0  0  0  0  0  0
   12.4989    6.2074   20.1776 C   0  0  0  0  0  0  0  0  0  0  0  0
    6.9192    9.1053   20.9073 O   0  0  0  0  0  0  0  0  0  0  0  0
   14.3979    6.0729   18.7784 C   0  0  0  0  0  0  0  0  0  0  0  0
    8.6811    9.5354   16.9998 C   0  0  0  0  0  0  0  0  0  0  0  0
    9.2512    4.2713   13.7653 O   0  0  0  0  0  0  0  0  0  0  0  0
    9.6495    8.6317   16.8332 N   0  0  0  0  0  0  0  0  0  0  0  0
    6.2934    8.6988   23.1988 O   0  0  0  0  0  0  0  0  0  0  0  0
    7.9806    8.6543   20.5437 C   0  0  0  0  0  0  0  0  0  0  0  0
   13.7270    5.7144   19.8610 O   0  0  0  0  0  0  0  0  0  0  0  0
    8.3351    5.5235   15.4478 C   0  0  0  0  0  0  0  0  0  0  0  0
    8.7700    7.8434   21.3915 C   0  0  0  0  0  0  0  0  0  0  0  0
   11.7856    6.8851   19.2401 C   0  0  0  0  0  0  0  0  0  0  0  0
   10.5281    7.4276   19.5649 C   0  0  0  0  0  0  0  0  0  0  0  0
   10.0256    7.2907   20.8484 C   0  0  0  0  0  0  0  0  0  0  0  0
    9.3113    5.3049   14.4911 C   0  0  0  0  0  0  0  0  0  0  0  0
    9.4607    7.5646   16.0139 C   0  0  0  0  0  0  0  0  0  0  0  0
   10.4192    7.3157   15.0955 C   0  0  0  0  0  0  0  0  0  0  0  0
   10.2489    6.4227   23.0218 N   0  0  0  0  0  0  0  0  0  0  0  0
    7.2472    8.0746   23.5050 C   0  0  0  0  0  0  0  0  0  0  0  0
    9.2051    6.9101   23.4604 C   0  0  0  0  0  0  0  0  0  0  0  0
   11.9646    6.0299   21.4251 C   0  0  0  0  0  0  0  0  0  0  0  0
  1  5  1  0
  1 13  1  0
  2 20  2  0
  2 28  1  0
  2 29  1  0
  3 19  4  0
  3 25  4  0
  4 23  4  0
  4 27  1  0
  4 30  4  0
  5 17  1  0
  6  8  1  0
  6 29  1  0
  7 24  4  0
  7 26  4  0
  8 28  1  0
  9 13  2  0
 10 18  1  0
 10 21  4  0
 10 30  4  0
 11 17  2  0
 12 18  1  0
 13 15  1  0
 14 24  1  0
 15 25  1  0
 16 28  2  0
 17 20  1  0
 19 24  4  0
 20 23  1  0
 21 22  4  0
 22 23  4  0
 25 26  4  0
 27 29  2  0
M  END
$$$$

 Created by Python create_sdf_string function

 30 33  0  0  0  0  0  0  0  0999 V2000
    8.3036    9.8571   18.4133 C   0  0  0  0  0  0  0  0  0  0  0  0
    8.3694    7.6612   22.6703 C   0  0  0  0  0  0  0  0  0  0  0  0
    8.4143    6.6863   16.2273 C   0  0  0  0  0  0  0  0  0  0  0  0
   10.7581    6.5674   21.7636 C   0  0  0  0  0  0  0  0  0  0  0  0
    8.4452    8.7960   19.2958 O   0  0  0  0  0  0  0  0  0  0  0  0
    8.7122    6.7842   24.8569 C   0  0  0  0  0  0  0  0  0  0  0  0
   10.3400    6.1726   14.3081 C   0  0  0  0  0  0  0  0  0  0  0  0
    7.4297    7.5873   24.8962 C   0  0  0  0  0  0  0  0  0  0  0  0
    8.1566   10.0536   16.0516 O   0  0  0  0  0  0  0  0  0  0  0  0
   12.4989    6.2074   20.1776 C   0  0  0  0  0  0  0  0  0  0  0  0
    6.9192    9.1053   20.9073 O   0  0  0  0  0  0  0  0  0  0  0  0
   14.3979    6.0729   18.7784 C   0  0  0  0  0  0  0  0  0  0  0  0
    8.6811    9.5354   16.9998 C   0  0  0  0  0  0  0  0  0  0  0  0
    9.2512    4.2713   13.7653 O   0  0  0  0  0  0  0  0  0  0  0  0
    9.6495    8.6317   16.8332 N   0  0  0  0  0  0  0  0  0  0  0  0
    6.2934    8.6988   23.1988 O   0  0  0  0  0  0  0  0  0  0  0  0
    7.9806    8.6543   20.5437 C   0  0  0  0  0  0  0  0  0  0  0  0
   13.7270    5.7144   19.8610 O   0  0  0  0  0  0  0  0  0  0  0  0
    8.3351    5.5235   15.4478 C   0  0  0  0  0  0  0  0  0  0  0  0
    8.7700    7.8434   21.3915 C   0  0  0  0  0  0  0  0  0  0  0  0
   11.7856    6.8851   19.2401 C   0  0  0  0  0  0  0  0  0  0  0  0
   10.5281    7.4276   19.5649 C   0  0  0  0  0  0  0  0  0  0  0  0
   10.0256    7.2907   20.8484 C   0  0  0  0  0  0  0  0  0  0  0  0
    9.3113    5.3049   14.4911 C   0  0  0  0  0  0  0  0  0  0  0  0
    9.4607    7.5646   16.0139 C   0  0  0  0  0  0  0  0  0  0  0  0
   10.4192    7.3157   15.0955 C   0  0  0  0  0  0  0  0  0  0  0  0
   10.2489    6.4227   23.0218 N   0  0  0  0  0  0  0  0  0  0  0  0
    7.2472    8.0746   23.5050 C   0  0  0  0  0  0  0  0  0  0  0  0
    9.2051    6.9101   23.4604 C   0  0  0  0  0  0  0  0  0  0  0  0
   11.9646    6.0299   21.4251 C   0  0  0  0  0  0  0  0  0  0  0  0
  1  5  1  0
  1 13  1  0
  2 20  2  0
  2 28  1  0
  2 29  1  0
  3 19  4  0
  3 25  4  0
  4 23  4  0
  4 27  1  0
  4 30  4  0
  5 17  1  0
  6  8  1  0
  6 29  1  0
  7 24  4  0
  7 26  4  0
  8 28  1  0
  9 13  2  0
 10 18  1  0
 10 21  4  0
 10 30  4  0
 11 17  2  0
 12 18  1  0
 13 15  1  0
 14 24  1  0
 15 25  1  0
 16 28  2  0
 17 20  1  0
 19 24  4  0
 20 23  1  0
 21 22  4  0
 22 23  4  0
 25 26  4  0
 27 29  2  0
M  END
$$$$

 Created by Python create_sdf_string function

 30 33  0  0  0  0  0  0  0  0999 V2000
    8.3036    9.8571   18.4133 C   0  0  0  0  0  0  0  0  0  0  0  0
    8.3694    7.6612   22.6703 C   0  0  0  0  0  0  0  0  0  0  0  0
    8.4143    6.6863   16.2273 C   0  0  0  0  0  0  0  0  0  0  0  0
   10.7581    6.5674   21.7636 C   0  0  0  0  0  0  0  0  0  0  0  0
    8.4452    8.7960   19.2958 O   0  0  0  0  0  0  0  0  0  0  0  0
    8.7122    6.7842   24.8569 C   0  0  0  0  0  0  0  0  0  0  0  0
   10.3400    6.1726   14.3081 C   0  0  0  0  0  0  0  0  0  0  0  0
    7.4297    7.5873   24.8962 C   0  0  0  0  0  0  0  0  0  0  0  0
    8.1566   10.0536   16.0516 O   0  0  0  0  0  0  0  0  0  0  0  0
   12.4989    6.2074   20.1776 C   0  0  0  0  0  0  0  0  0  0  0  0
    6.9192    9.1053   20.9073 O   0  0  0  0  0  0  0  0  0  0  0  0
   14.3979    6.0729   18.7784 C   0  0  0  0  0  0  0  0  0  0  0  0
    8.6811    9.5354   16.9998 C   0  0  0  0  0  0  0  0  0  0  0  0
    9.2512    4.2713   13.7653 O   0  0  0  0  0  0  0  0  0  0  0  0
    9.6495    8.6317   16.8332 N   0  0  0  0  0  0  0  0  0  0  0  0
    6.2934    8.6988   23.1988 O   0  0  0  0  0  0  0  0  0  0  0  0
    7.9806    8.6543   20.5437 C   0  0  0  0  0  0  0  0  0  0  0  0
   13.7270    5.7144   19.8610 O   0  0  0  0  0  0  0  0  0  0  0  0
    8.3351    5.5235   15.4478 C   0  0  0  0  0  0  0  0  0  0  0  0
    8.7700    7.8434   21.3915 C   0  0  0  0  0  0  0  0  0  0  0  0
   11.7856    6.8851   19.2401 C   0  0  0  0  0  0  0  0  0  0  0  0
   10.5281    7.4276   19.5649 C   0  0  0  0  0  0  0  0  0  0  0  0
   10.0256    7.2907   20.8484 C   0  0  0  0  0  0  0  0  0  0  0  0
    9.3113    5.3049   14.4911 C   0  0  0  0  0  0  0  0  0  0  0  0
    9.4607    7.5646   16.0139 C   0  0  0  0  0  0  0  0  0  0  0  0
   10.4192    7.3157   15.0955 C   0  0  0  0  0  0  0  0  0  0  0  0
   10.2489    6.4227   23.0218 N   0  0  0  0  0  0  0  0  0  0  0  0
    7.2472    8.0746   23.5050 C   0  0  0  0  0  0  0  0  0  0  0  0
    9.2051    6.9101   23.4604 C   0  0  0  0  0  0  0  0  0  0  0  0
   11.9646    6.0299   21.4251 C   0  0  0  0  0  0  0  0  0  0  0  0
  1  5  1  0
  1 13  1  0
  2 20  2  0
  2 28  1  0
  2 29  1  0
  3 19  4  0
  3 25  4  0
  4 23  4  0
  4 27  1  0
  4 30  4  0
  5 17  1  0
  6  8  1  0
  6 29  1  0
  7 24  4  0
  7 26  4  0
  8 28  1  0
  9 13  2  0
 10 18  1  0
 10 21  4  0
 10 30  4  0
 11 17  2  0
 12 18  1  0
 13 15  1  0
 14 24  1  0
 15 25  1  0
 16 28  2  0
 17 20  1  0
 19 24  4  0
 20 23  1  0
 21 22  4  0
 22 23  4  0
 25 26  4  0
 27 29  2  0
M  END
$$$$

 Created by Python create_sdf_string function

 30 33  0  0  0  0  0  0  0  0999 V2000
    8.3036    9.8571   18.4133 C   0  0  0  0  0  0  0  0  0  0  0  0
    8.3694    7.6612   22.6703 C   0  0  0  0  0  0  0  0  0  0  0  0
    8.4143    6.6863   16.2273 C   0  0  0  0  0  0  0  0  0  0  0  0
   10.7581    6.5674   21.7636 C   0  0  0  0  0  0  0  0  0  0  0  0
    8.4452    8.7960   19.2958 O   0  0  0  0  0  0  0  0  0  0  0  0
    8.7122    6.7842   24.8569 C   0  0  0  0  0  0  0  0  0  0  0  0
   10.3400    6.1726   14.3081 C   0  0  0  0  0  0  0  0  0  0  0  0
    7.4297    7.5873   24.8962 C   0  0  0  0  0  0  0  0  0  0  0  0
    8.1566   10.0536   16.0516 O   0  0  0  0  0  0  0  0  0  0  0  0
   12.4989    6.2074   20.1776 C   0  0  0  0  0  0  0  0  0  0  0  0
    6.9192    9.1053   20.9073 O   0  0  0  0  0  0  0  0  0  0  0  0
   14.3979    6.0729   18.7784 C   0  0  0  0  0  0  0  0  0  0  0  0
    8.6811    9.5354   16.9998 C   0  0  0  0  0  0  0  0  0  0  0  0
    9.2512    4.2713   13.7653 O   0  0  0  0  0  0  0  0  0  0  0  0
    9.6495    8.6317   16.8332 N   0  0  0  0  0  0  0  0  0  0  0  0
    6.2934    8.6988   23.1988 O   0  0  0  0  0  0  0  0  0  0  0  0
    7.9806    8.6543   20.5437 C   0  0  0  0  0  0  0  0  0  0  0  0
   13.7270    5.7144   19.8610 O   0  0  0  0  0  0  0  0  0  0  0  0
    8.3351    5.5235   15.4478 C   0  0  0  0  0  0  0  0  0  0  0  0
    8.7700    7.8434   21.3915 C   0  0  0  0  0  0  0  0  0  0  0  0
   11.7856    6.8851   19.2401 C   0  0  0  0  0  0  0  0  0  0  0  0
   10.5281    7.4276   19.5649 C   0  0  0  0  0  0  0  0  0  0  0  0
   10.0256    7.2907   20.8484 C   0  0  0  0  0  0  0  0  0  0  0  0
    9.3113    5.3049   14.4911 C   0  0  0  0  0  0  0  0  0  0  0  0
    9.4607    7.5646   16.0139 C   0  0  0  0  0  0  0  0  0  0  0  0
   10.4192    7.3157   15.0955 C   0  0  0  0  0  0  0  0  0  0  0  0
   10.2489    6.4227   23.0218 N   0  0  0  0  0  0  0  0  0  0  0  0
    7.2472    8.0746   23.5050 C   0  0  0  0  0  0  0  0  0  0  0  0
    9.2051    6.9101   23.4604 C   0  0  0  0  0  0  0  0  0  0  0  0
   11.9646    6.0299   21.4251 C   0  0  0  0  0  0  0  0  0  0  0  0
  1  5  1  0
  1 13  1  0
  2 20  2  0
  2 28  1  0
  2 29  1  0
  3 19  4  0
  3 25  4  0
  4 23  4  0
  4 27  1  0
  4 30  4  0
  5 17  1  0
  6  8  1  0
  6 29  1  0
  7 24  4  0
  7 26  4  0
  8 28  1  0
  9 13  2  0
 10 18  1  0
 10 21  4  0
 10 30  4  0
 11 17  2  0
 12 18  1  0
 13 15  1  0
 14 24  1  0
 15 25  1  0
 16 28  2  0
 17 20  1  0
 19 24  4  0
 20 23  1  0
 21 22  4  0
 22 23  4  0
 25 26  4  0
 27 29  2  0
M  END
$$$$

 Created by Python create_sdf_string function

 30 33  0  0  0  0  0  0  0  0999 V2000
    8.3036    9.8571   18.4133 C   0  0  0  0  0  0  0  0  0  0  0  0
    8.3694    7.6612   22.6703 C   0  0  0  0  0  0  0  0  0  0  0  0
    8.4143    6.6863   16.2273 C   0  0  0  0  0  0  0  0  0  0  0  0
   10.7581    6.5674   21.7636 C   0  0  0  0  0  0  0  0  0  0  0  0
    8.4452    8.7960   19.2958 O   0  0  0  0  0  0  0  0  0  0  0  0
    8.7122    6.7842   24.8569 C   0  0  0  0  0  0  0  0  0  0  0  0
   10.3400    6.1726   14.3081 C   0  0  0  0  0  0  0  0  0  0  0  0
    7.4297    7.5873   24.8962 C   0  0  0  0  0  0  0  0  0  0  0  0
    8.1566   10.0536   16.0516 O   0  0  0  0  0  0  0  0  0  0  0  0
   12.4989    6.2074   20.1776 C   0  0  0  0  0  0  0  0  0  0  0  0
    6.9192    9.1053   20.9073 O   0  0  0  0  0  0  0  0  0  0  0  0
   14.3979    6.0729   18.7784 C   0  0  0  0  0  0  0  0  0  0  0  0
    8.6811    9.5354   16.9998 C   0  0  0  0  0  0  0  0  0  0  0  0
    9.2512    4.2713   13.7653 O   0  0  0  0  0  0  0  0  0  0  0  0
    9.6495    8.6317   16.8332 N   0  0  0  0  0  0  0  0  0  0  0  0
    6.2934    8.6988   23.1988 O   0  0  0  0  0  0  0  0  0  0  0  0
    7.9806    8.6543   20.5437 C   0  0  0  0  0  0  0  0  0  0  0  0
   13.7270    5.7144   19.8610 O   0  0  0  0  0  0  0  0  0  0  0  0
    8.3351    5.5235   15.4478 C   0  0  0  0  0  0  0  0  0  0  0  0
    8.7700    7.8434   21.3915 C   0  0  0  0  0  0  0  0  0  0  0  0
   11.7856    6.8851   19.2401 C   0  0  0  0  0  0  0  0  0  0  0  0
   10.5281    7.4276   19.5649 C   0  0  0  0  0  0  0  0  0  0  0  0
   10.0256    7.2907   20.8484 C   0  0  0  0  0  0  0  0  0  0  0  0
    9.3113    5.3049   14.4911 C   0  0  0  0  0  0  0  0  0  0  0  0
    9.4607    7.5646   16.0139 C   0  0  0  0  0  0  0  0  0  0  0  0
   10.4192    7.3157   15.0955 C   0  0  0  0  0  0  0  0  0  0  0  0
   10.2489    6.4227   23.0218 N   0  0  0  0  0  0  0  0  0  0  0  0
    7.2472    8.0746   23.5050 C   0  0  0  0  0  0  0  0  0  0  0  0
    9.2051    6.9101   23.4604 C   0  0  0  0  0  0  0  0  0  0  0  0
   11.9646    6.0299   21.4251 C   0  0  0  0  0  0  0  0  0  0  0  0
  1  5  1  0
  1 13  1  0
  2 20  2  0
  2 28  1  0
  2 29  1  0
  3 19  4  0
  3 25  4  0
  4 23  4  0
  4 27  1  0
  4 30  4  0
  5 17  1  0
  6  8  1  0
  6 29  1  0
  7 24  4  0
  7 26  4  0
  8 28  1  0
  9 13  2  0
 10 18  1  0
 10 21  4  0
 10 30  4  0
 11 17  2  0
 12 18  1  0
 13 15  1  0
 14 24  1  0
 15 25  1  0
 16 28  2  0
 17 20  1  0
 19 24  4  0
 20 23  1  0
 21 22  4  0
 22 23  4  0
 25 26  4  0
 27 29  2  0
M  END
$$$$

 Created by Python create_sdf_string function

 30 33  0  0  0  0  0  0  0  0999 V2000
    8.3036    9.8571   18.4133 C   0  0  0  0  0  0  0  0  0  0  0  0
    8.3694    7.6612   22.6703 C   0  0  0  0  0  0  0  0  0  0  0  0
    8.4143    6.6863   16.2273 C   0  0  0  0  0  0  0  0  0  0  0  0
   10.7581    6.5674   21.7636 C   0  0  0  0  0  0  0  0  0  0  0  0
    8.4452    8.7960   19.2958 O   0  0  0  0  0  0  0  0  0  0  0  0
    8.7122    6.7842   24.8569 C   0  0  0  0  0  0  0  0  0  0  0  0
   10.3400    6.1726   14.3081 C   0  0  0  0  0  0  0  0  0  0  0  0
    7.4297    7.5873   24.8962 C   0  0  0  0  0  0  0  0  0  0  0  0
    8.1566   10.0536   16.0516 O   0  0  0  0  0  0  0  0  0  0  0  0
   12.4989    6.2074   20.1776 C   0  0  0  0  0  0  0  0  0  0  0  0
    6.9192    9.1053   20.9073 O   0  0  0  0  0  0  0  0  0  0  0  0
   14.3979    6.0729   18.7784 C   0  0  0  0  0  0  0  0  0  0  0  0
    8.6811    9.5354   16.9998 C   0  0  0  0  0  0  0  0  0  0  0  0
    9.2512    4.2713   13.7653 O   0  0  0  0  0  0  0  0  0  0  0  0
    9.6495    8.6317   16.8332 N   0  0  0  0  0  0  0  0  0  0  0  0
    6.2934    8.6988   23.1988 O   0  0  0  0  0  0  0  0  0  0  0  0
    7.9806    8.6543   20.5437 C   0  0  0  0  0  0  0  0  0  0  0  0
   13.7270    5.7144   19.8610 O   0  0  0  0  0  0  0  0  0  0  0  0
    8.3351    5.5235   15.4478 C   0  0  0  0  0  0  0  0  0  0  0  0
    8.7700    7.8434   21.3915 C   0  0  0  0  0  0  0  0  0  0  0  0
   11.7856    6.8851   19.2401 C   0  0  0  0  0  0  0  0  0  0  0  0
   10.5281    7.4276   19.5649 C   0  0  0  0  0  0  0  0  0  0  0  0
   10.0256    7.2907   20.8484 C   0  0  0  0  0  0  0  0  0  0  0  0
    9.3113    5.3049   14.4911 C   0  0  0  0  0  0  0  0  0  0  0  0
    9.4607    7.5646   16.0139 C   0  0  0  0  0  0  0  0  0  0  0  0
   10.4192    7.3157   15.0955 C   0  0  0  0  0  0  0  0  0  0  0  0
   10.2489    6.4227   23.0218 N   0  0  0  0  0  0  0  0  0  0  0  0
    7.2472    8.0746   23.5050 C   0  0  0  0  0  0  0  0  0  0  0  0
    9.2051    6.9101   23.4604 C   0  0  0  0  0  0  0  0  0  0  0  0
   11.9646    6.0299   21.4251 C   0  0  0  0  0  0  0  0  0  0  0  0
  1  5  1  0
  1 13  1  0
  2 20  2  0
  2 28  1  0
  2 29  1  0
  3 19  4  0
  3 25  4  0
  4 23  4  0
  4 27  1  0
  4 30  4  0
  5 17  1  0
  6  8  1  0
  6 29  1  0
  7 24  4  0
  7 26  4  0
  8 28  1  0
  9 13  2  0
 10 18  1  0
 10 21  4  0
 10 30  4  0
 11 17  2  0
 12 18  1  0
 13 15  1  0
 14 24  1  0
 15 25  1  0
 16 28  2  0
 17 20  1  0
 19 24  4  0
 20 23  1  0
 21 22  4  0
 22 23  4  0
 25 26  4  0
 27 29  2  0
M  END
$$$$

 Created by Python create_sdf_string function

 30 33  0  0  0  0  0  0  0  0999 V2000
    8.3036    9.8571   18.4133 C   0  0  0  0  0  0  0  0  0  0  0  0
    8.3694    7.6612   22.6703 C   0  0  0  0  0  0  0  0  0  0  0  0
    8.4143    6.6863   16.2273 C   0  0  0  0  0  0  0  0  0  0  0  0
   10.7581    6.5674   21.7636 C   0  0  0  0  0  0  0  0  0  0  0  0
    8.4452    8.7960   19.2958 O   0  0  0  0  0  0  0  0  0  0  0  0
    8.7122    6.7842   24.8569 C   0  0  0  0  0  0  0  0  0  0  0  0
   10.3400    6.1726   14.3081 C   0  0  0  0  0  0  0  0  0  0  0  0
    7.4297    7.5873   24.8962 C   0  0  0  0  0  0  0  0  0  0  0  0
    8.1566   10.0536   16.0516 O   0  0  0  0  0  0  0  0  0  0  0  0
   12.4989    6.2074   20.1776 C   0  0  0  0  0  0  0  0  0  0  0  0
    6.9192    9.1053   20.9073 O   0  0  0  0  0  0  0  0  0  0  0  0
   14.3979    6.0729   18.7784 C   0  0  0  0  0  0  0  0  0  0  0  0
    8.6811    9.5354   16.9998 C   0  0  0  0  0  0  0  0  0  0  0  0
    9.2512    4.2713   13.7653 O   0  0  0  0  0  0  0  0  0  0  0  0
    9.6495    8.6317   16.8332 N   0  0  0  0  0  0  0  0  0  0  0  0
    6.2934    8.6988   23.1988 O   0  0  0  0  0  0  0  0  0  0  0  0
    7.9806    8.6543   20.5437 C   0  0  0  0  0  0  0  0  0  0  0  0
   13.7270    5.7144   19.8610 O   0  0  0  0  0  0  0  0  0  0  0  0
    8.3351    5.5235   15.4478 C   0  0  0  0  0  0  0  0  0  0  0  0
    8.7700    7.8434   21.3915 C   0  0  0  0  0  0  0  0  0  0  0  0
   11.7856    6.8851   19.2401 C   0  0  0  0  0  0  0  0  0  0  0  0
   10.5281    7.4276   19.5649 C   0  0  0  0  0  0  0  0  0  0  0  0
   10.0256    7.2907   20.8484 C   0  0  0  0  0  0  0  0  0  0  0  0
    9.3113    5.3049   14.4911 C   0  0  0  0  0  0  0  0  0  0  0  0
    9.4607    7.5646   16.0139 C   0  0  0  0  0  0  0  0  0  0  0  0
   10.4192    7.3157   15.0955 C   0  0  0  0  0  0  0  0  0  0  0  0
   10.2489    6.4227   23.0218 N   0  0  0  0  0  0  0  0  0  0  0  0
    7.2472    8.0746   23.5050 C   0  0  0  0  0  0  0  0  0  0  0  0
    9.2051    6.9101   23.4604 C   0  0  0  0  0  0  0  0  0  0  0  0
   11.9646    6.0299   21.4251 C   0  0  0  0  0  0  0  0  0  0  0  0
  1  5  1  0
  1 13  1  0
  2 20  2  0
  2 28  1  0
  2 29  1  0
  3 19  4  0
  3 25  4  0
  4 23  4  0
  4 27  1  0
  4 30  4  0
  5 17  1  0
  6  8  1  0
  6 29  1  0
  7 24  4  0
  7 26  4  0
  8 28  1  0
  9 13  2  0
 10 18  1  0
 10 21  4  0
 10 30  4  0
 11 17  2  0
 12 18  1  0
 13 15  1  0
 14 24  1  0
 15 25  1  0
 16 28  2  0
 17 20  1  0
 19 24  4  0
 20 23  1  0
 21 22  4  0
 22 23  4  0
 25 26  4  0
 27 29  2  0
M  END
$$$$

 Created by Python create_sdf_string function

 30 33  0  0  0  0  0  0  0  0999 V2000
    8.3036    9.8571   18.4133 C   0  0  0  0  0  0  0  0  0  0  0  0
    8.3694    7.6612   22.6703 C   0  0  0  0  0  0  0  0  0  0  0  0
    8.4143    6.6863   16.2273 C   0  0  0  0  0  0  0  0  0  0  0  0
   10.7581    6.5674   21.7636 C   0  0  0  0  0  0  0  0  0  0  0  0
    8.4452    8.7960   19.2958 O   0  0  0  0  0  0  0  0  0  0  0  0
    8.7122    6.7842   24.8569 C   0  0  0  0  0  0  0  0  0  0  0  0
   10.3400    6.1726   14.3081 C   0  0  0  0  0  0  0  0  0  0  0  0
    7.4297    7.5873   24.8962 C   0  0  0  0  0  0  0  0  0  0  0  0
    8.1566   10.0536   16.0516 O   0  0  0  0  0  0  0  0  0  0  0  0
   12.4989    6.2074   20.1776 C   0  0  0  0  0  0  0  0  0  0  0  0
    6.9192    9.1053   20.9073 O   0  0  0  0  0  0  0  0  0  0  0  0
   14.3979    6.0729   18.7784 C   0  0  0  0  0  0  0  0  0  0  0  0
    8.6811    9.5354   16.9998 C   0  0  0  0  0  0  0  0  0  0  0  0
    9.2512    4.2713   13.7653 O   0  0  0  0  0  0  0  0  0  0  0  0
    9.6495    8.6317   16.8332 N   0  0  0  0  0  0  0  0  0  0  0  0
    6.2934    8.6988   23.1988 O   0  0  0  0  0  0  0  0  0  0  0  0
    7.9806    8.6543   20.5437 C   0  0  0  0  0  0  0  0  0  0  0  0
   13.7270    5.7144   19.8610 O   0  0  0  0  0  0  0  0  0  0  0  0
    8.3351    5.5235   15.4478 C   0  0  0  0  0  0  0  0  0  0  0  0
    8.7700    7.8434   21.3915 C   0  0  0  0  0  0  0  0  0  0  0  0
   11.7856    6.8851   19.2401 C   0  0  0  0  0  0  0  0  0  0  0  0
   10.5281    7.4276   19.5649 C   0  0  0  0  0  0  0  0  0  0  0  0
   10.0256    7.2907   20.8484 C   0  0  0  0  0  0  0  0  0  0  0  0
    9.3113    5.3049   14.4911 C   0  0  0  0  0  0  0  0  0  0  0  0
    9.4607    7.5646   16.0139 C   0  0  0  0  0  0  0  0  0  0  0  0
   10.4192    7.3157   15.0955 C   0  0  0  0  0  0  0  0  0  0  0  0
   10.2489    6.4227   23.0218 N   0  0  0  0  0  0  0  0  0  0  0  0
    7.2472    8.0746   23.5050 C   0  0  0  0  0  0  0  0  0  0  0  0
    9.2051    6.9101   23.4604 C   0  0  0  0  0  0  0  0  0  0  0  0
   11.9646    6.0299   21.4251 C   0  0  0  0  0  0  0  0  0  0  0  0
  1  5  1  0
  1 13  1  0
  2 20  2  0
  2 28  1  0
  2 29  1  0
  3 19  4  0
  3 25  4  0
  4 23  4  0
  4 27  1  0
  4 30  4  0
  5 17  1  0
  6  8  1  0
  6 29  1  0
  7 24  4  0
  7 26  4  0
  8 28  1  0
  9 13  2  0
 10 18  1  0
 10 21  4  0
 10 30  4  0
 11 17  2  0
 12 18  1  0
 13 15  1  0
 14 24  1  0
 15 25  1  0
 16 28  2  0
 17 20  1  0
 19 24  4  0
 20 23  1  0
 21 22  4  0
 22 23  4  0
 25 26  4  0
 27 29  2  0
M  END
$$$$

 Created by Python create_sdf_string function

 30 33  0  0  0  0  0  0  0  0999 V2000
    8.3036    9.8571   18.4133 C   0  0  0  0  0  0  0  0  0  0  0  0
    8.3694    7.6612   22.6703 C   0  0  0  0  0  0  0  0  0  0  0  0
    8.4143    6.6863   16.2273 C   0  0  0  0  0  0  0  0  0  0  0  0
   10.7581    6.5674   21.7636 C   0  0  0  0  0  0  0  0  0  0  0  0
    8.4452    8.7960   19.2958 O   0  0  0  0  0  0  0  0  0  0  0  0
    8.7122    6.7842   24.8569 C   0  0  0  0  0  0  0  0  0  0  0  0
   10.3400    6.1726   14.3081 C   0  0  0  0  0  0  0  0  0  0  0  0
    7.4297    7.5873   24.8962 C   0  0  0  0  0  0  0  0  0  0  0  0
    8.1566   10.0536   16.0516 O   0  0  0  0  0  0  0  0  0  0  0  0
   12.4989    6.2074   20.1776 C   0  0  0  0  0  0  0  0  0  0  0  0
    6.9192    9.1053   20.9073 O   0  0  0  0  0  0  0  0  0  0  0  0
   14.3979    6.0729   18.7784 C   0  0  0  0  0  0  0  0  0  0  0  0
    8.6811    9.5354   16.9998 C   0  0  0  0  0  0  0  0  0  0  0  0
    9.2512    4.2713   13.7653 O   0  0  0  0  0  0  0  0  0  0  0  0
    9.6495    8.6317   16.8332 N   0  0  0  0  0  0  0  0  0  0  0  0
    6.2934    8.6988   23.1988 O   0  0  0  0  0  0  0  0  0  0  0  0
    7.9806    8.6543   20.5437 C   0  0  0  0  0  0  0  0  0  0  0  0
   13.7270    5.7144   19.8610 O   0  0  0  0  0  0  0  0  0  0  0  0
    8.3351    5.5235   15.4478 C   0  0  0  0  0  0  0  0  0  0  0  0
    8.7700    7.8434   21.3915 C   0  0  0  0  0  0  0  0  0  0  0  0
   11.7856    6.8851   19.2401 C   0  0  0  0  0  0  0  0  0  0  0  0
   10.5281    7.4276   19.5649 C   0  0  0  0  0  0  0  0  0  0  0  0
   10.0256    7.2907   20.8484 C   0  0  0  0  0  0  0  0  0  0  0  0
    9.3113    5.3049   14.4911 C   0  0  0  0  0  0  0  0  0  0  0  0
    9.4607    7.5646   16.0139 C   0  0  0  0  0  0  0  0  0  0  0  0
   10.4192    7.3157   15.0955 C   0  0  0  0  0  0  0  0  0  0  0  0
   10.2489    6.4227   23.0218 N   0  0  0  0  0  0  0  0  0  0  0  0
    7.2472    8.0746   23.5050 C   0  0  0  0  0  0  0  0  0  0  0  0
    9.2051    6.9101   23.4604 C   0  0  0  0  0  0  0  0  0  0  0  0
   11.9646    6.0299   21.4251 C   0  0  0  0  0  0  0  0  0  0  0  0
  1  5  1  0
  1 13  1  0
  2 20  2  0
  2 28  1  0
  2 29  1  0
  3 19  4  0
  3 25  4  0
  4 23  4  0
  4 27  1  0
  4 30  4  0
  5 17  1  0
  6  8  1  0
  6 29  1  0
  7 24  4  0
  7 26  4  0
  8 28  1  0
  9 13  2  0
 10 18  1  0
 10 21  4  0
 10 30  4  0
 11 17  2  0
 12 18  1  0
 13 15  1  0
 14 24  1  0
 15 25  1  0
 16 28  2  0
 17 20  1  0
 19 24  4  0
 20 23  1  0
 21 22  4  0
 22 23  4  0
 25 26  4  0
 27 29  2  0
M  END
$$$$

 Created by Python create_sdf_string function

 30 33  0  0  0  0  0  0  0  0999 V2000
    8.3036    9.8571   18.4133 C   0  0  0  0  0  0  0  0  0  0  0  0
    8.3694    7.6612   22.6703 C   0  0  0  0  0  0  0  0  0  0  0  0
    8.4143    6.6863   16.2273 C   0  0  0  0  0  0  0  0  0  0  0  0
   10.7581    6.5674   21.7636 C   0  0  0  0  0  0  0  0  0  0  0  0
    8.4452    8.7960   19.2958 O   0  0  0  0  0  0  0  0  0  0  0  0
    8.7122    6.7842   24.8569 C   0  0  0  0  0  0  0  0  0  0  0  0
   10.3400    6.1726   14.3081 C   0  0  0  0  0  0  0  0  0  0  0  0
    7.4297    7.5873   24.8962 C   0  0  0  0  0  0  0  0  0  0  0  0
    8.1566   10.0536   16.0516 O   0  0  0  0  0  0  0  0  0  0  0  0
   12.4989    6.2074   20.1776 C   0  0  0  0  0  0  0  0  0  0  0  0
    6.9192    9.1053   20.9073 O   0  0  0  0  0  0  0  0  0  0  0  0
   14.3979    6.0729   18.7784 C   0  0  0  0  0  0  0  0  0  0  0  0
    8.6811    9.5354   16.9998 C   0  0  0  0  0  0  0  0  0  0  0  0
    9.2512    4.2713   13.7653 O   0  0  0  0  0  0  0  0  0  0  0  0
    9.6495    8.6317   16.8332 N   0  0  0  0  0  0  0  0  0  0  0  0
    6.2934    8.6988   23.1988 O   0  0  0  0  0  0  0  0  0  0  0  0
    7.9806    8.6543   20.5437 C   0  0  0  0  0  0  0  0  0  0  0  0
   13.7270    5.7144   19.8610 O   0  0  0  0  0  0  0  0  0  0  0  0
    8.3351    5.5235   15.4478 C   0  0  0  0  0  0  0  0  0  0  0  0
    8.7700    7.8434   21.3915 C   0  0  0  0  0  0  0  0  0  0  0  0
   11.7856    6.8851   19.2401 C   0  0  0  0  0  0  0  0  0  0  0  0
   10.5281    7.4276   19.5649 C   0  0  0  0  0  0  0  0  0  0  0  0
   10.0256    7.2907   20.8484 C   0  0  0  0  0  0  0  0  0  0  0  0
    9.3113    5.3049   14.4911 C   0  0  0  0  0  0  0  0  0  0  0  0
    9.4607    7.5646   16.0139 C   0  0  0  0  0  0  0  0  0  0  0  0
   10.4192    7.3157   15.0955 C   0  0  0  0  0  0  0  0  0  0  0  0
   10.2489    6.4227   23.0218 N   0  0  0  0  0  0  0  0  0  0  0  0
    7.2472    8.0746   23.5050 C   0  0  0  0  0  0  0  0  0  0  0  0
    9.2051    6.9101   23.4604 C   0  0  0  0  0  0  0  0  0  0  0  0
   11.9646    6.0299   21.4251 C   0  0  0  0  0  0  0  0  0  0  0  0
  1  5  1  0
  1 13  1  0
  2 20  2  0
  2 28  1  0
  2 29  1  0
  3 19  4  0
  3 25  4  0
  4 23  4  0
  4 27  1  0
  4 30  4  0
  5 17  1  0
  6  8  1  0
  6 29  1  0
  7 24  4  0
  7 26  4  0
  8 28  1  0
  9 13  2  0
 10 18  1  0
 10 21  4  0
 10 30  4  0
 11 17  2  0
 12 18  1  0
 13 15  1  0
 14 24  1  0
 15 25  1  0
 16 28  2  0
 17 20  1  0
 19 24  4  0
 20 23  1  0
 21 22  4  0
 22 23  4  0
 25 26  4  0
 27 29  2  0
M  END
$$$$

 Created by Python create_sdf_string function

 30 33  0  0  0  0  0  0  0  0999 V2000
    8.3036    9.8571   18.4133 C   0  0  0  0  0  0  0  0  0  0  0  0
    8.3694    7.6612   22.6703 C   0  0  0  0  0  0  0  0  0  0  0  0
    8.4143    6.6863   16.2273 C   0  0  0  0  0  0  0  0  0  0  0  0
   10.7581    6.5674   21.7636 C   0  0  0  0  0  0  0  0  0  0  0  0
    8.4452    8.7960   19.2958 O   0  0  0  0  0  0  0  0  0  0  0  0
    8.7122    6.7842   24.8569 C   0  0  0  0  0  0  0  0  0  0  0  0
   10.3400    6.1726   14.3081 C   0  0  0  0  0  0  0  0  0  0  0  0
    7.4297    7.5873   24.8962 C   0  0  0  0  0  0  0  0  0  0  0  0
    8.1566   10.0536   16.0516 O   0  0  0  0  0  0  0  0  0  0  0  0
   12.4989    6.2074   20.1776 C   0  0  0  0  0  0  0  0  0  0  0  0
    6.9192    9.1053   20.9073 O   0  0  0  0  0  0  0  0  0  0  0  0
   14.3979    6.0729   18.7784 C   0  0  0  0  0  0  0  0  0  0  0  0
    8.6811    9.5354   16.9998 C   0  0  0  0  0  0  0  0  0  0  0  0
    9.2512    4.2713   13.7653 O   0  0  0  0  0  0  0  0  0  0  0  0
    9.6495    8.6317   16.8332 N   0  0  0  0  0  0  0  0  0  0  0  0
    6.2934    8.6988   23.1988 O   0  0  0  0  0  0  0  0  0  0  0  0
    7.9806    8.6543   20.5437 C   0  0  0  0  0  0  0  0  0  0  0  0
   13.7270    5.7144   19.8610 O   0  0  0  0  0  0  0  0  0  0  0  0
    8.3351    5.5235   15.4478 C   0  0  0  0  0  0  0  0  0  0  0  0
    8.7700    7.8434   21.3915 C   0  0  0  0  0  0  0  0  0  0  0  0
   11.7856    6.8851   19.2401 C   0  0  0  0  0  0  0  0  0  0  0  0
   10.5281    7.4276   19.5649 C   0  0  0  0  0  0  0  0  0  0  0  0
   10.0256    7.2907   20.8484 C   0  0  0  0  0  0  0  0  0  0  0  0
    9.3113    5.3049   14.4911 C   0  0  0  0  0  0  0  0  0  0  0  0
    9.4607    7.5646   16.0139 C   0  0  0  0  0  0  0  0  0  0  0  0
   10.4192    7.3157   15.0955 C   0  0  0  0  0  0  0  0  0  0  0  0
   10.2489    6.4227   23.0218 N   0  0  0  0  0  0  0  0  0  0  0  0
    7.2472    8.0746   23.5050 C   0  0  0  0  0  0  0  0  0  0  0  0
    9.2051    6.9101   23.4604 C   0  0  0  0  0  0  0  0  0  0  0  0
   11.9646    6.0299   21.4251 C   0  0  0  0  0  0  0  0  0  0  0  0
  1  5  1  0
  1 13  1  0
  2 20  2  0
  2 28  1  0
  2 29  1  0
  3 19  4  0
  3 25  4  0
  4 23  4  0
  4 27  1  0
  4 30  4  0
  5 17  1  0
  6  8  1  0
  6 29  1  0
  7 24  4  0
  7 26  4  0
  8 28  1  0
  9 13  2  0
 10 18  1  0
 10 21  4  0
 10 30  4  0
 11 17  2  0
 12 18  1  0
 13 15  1  0
 14 24  1  0
 15 25  1  0
 16 28  2  0
 17 20  1  0
 19 24  4  0
 20 23  1  0
 21 22  4  0
 22 23  4  0
 25 26  4  0
 27 29  2  0
M  END
$$$$

 Created by Python create_sdf_string function

 30 33  0  0  0  0  0  0  0  0999 V2000
    8.3036    9.8571   18.4133 C   0  0  0  0  0  0  0  0  0  0  0  0
    8.3694    7.6612   22.6703 C   0  0  0  0  0  0  0  0  0  0  0  0
    8.4143    6.6863   16.2273 C   0  0  0  0  0  0  0  0  0  0  0  0
   10.7581    6.5674   21.7636 C   0  0  0  0  0  0  0  0  0  0  0  0
    8.4452    8.7960   19.2958 O   0  0  0  0  0  0  0  0  0  0  0  0
    8.7122    6.7842   24.8569 C   0  0  0  0  0  0  0  0  0  0  0  0
   10.3400    6.1726   14.3081 C   0  0  0  0  0  0  0  0  0  0  0  0
    7.4297    7.5873   24.8962 C   0  0  0  0  0  0  0  0  0  0  0  0
    8.1566   10.0536   16.0516 O   0  0  0  0  0  0  0  0  0  0  0  0
   12.4989    6.2074   20.1776 C   0  0  0  0  0  0  0  0  0  0  0  0
    6.9192    9.1053   20.9073 O   0  0  0  0  0  0  0  0  0  0  0  0
   14.3979    6.0729   18.7784 C   0  0  0  0  0  0  0  0  0  0  0  0
    8.6811    9.5354   16.9998 C   0  0  0  0  0  0  0  0  0  0  0  0
    9.2512    4.2713   13.7653 O   0  0  0  0  0  0  0  0  0  0  0  0
    9.6495    8.6317   16.8332 N   0  0  0  0  0  0  0  0  0  0  0  0
    6.2934    8.6988   23.1988 O   0  0  0  0  0  0  0  0  0  0  0  0
    7.9806    8.6543   20.5437 C   0  0  0  0  0  0  0  0  0  0  0  0
   13.7270    5.7144   19.8610 O   0  0  0  0  0  0  0  0  0  0  0  0
    8.3351    5.5235   15.4478 C   0  0  0  0  0  0  0  0  0  0  0  0
    8.7700    7.8434   21.3915 C   0  0  0  0  0  0  0  0  0  0  0  0
   11.7856    6.8851   19.2401 C   0  0  0  0  0  0  0  0  0  0  0  0
   10.5281    7.4276   19.5649 C   0  0  0  0  0  0  0  0  0  0  0  0
   10.0256    7.2907   20.8484 C   0  0  0  0  0  0  0  0  0  0  0  0
    9.3113    5.3049   14.4911 C   0  0  0  0  0  0  0  0  0  0  0  0
    9.4607    7.5646   16.0139 C   0  0  0  0  0  0  0  0  0  0  0  0
   10.4192    7.3157   15.0955 C   0  0  0  0  0  0  0  0  0  0  0  0
   10.2489    6.4227   23.0218 N   0  0  0  0  0  0  0  0  0  0  0  0
    7.2472    8.0746   23.5050 C   0  0  0  0  0  0  0  0  0  0  0  0
    9.2051    6.9101   23.4604 C   0  0  0  0  0  0  0  0  0  0  0  0
   11.9646    6.0299   21.4251 C   0  0  0  0  0  0  0  0  0  0  0  0
  1  5  1  0
  1 13  1  0
  2 20  2  0
  2 28  1  0
  2 29  1  0
  3 19  4  0
  3 25  4  0
  4 23  4  0
  4 27  1  0
  4 30  4  0
  5 17  1  0
  6  8  1  0
  6 29  1  0
  7 24  4  0
  7 26  4  0
  8 28  1  0
  9 13  2  0
 10 18  1  0
 10 21  4  0
 10 30  4  0
 11 17  2  0
 12 18  1  0
 13 15  1  0
 14 24  1  0
 15 25  1  0
 16 28  2  0
 17 20  1  0
 19 24  4  0
 20 23  1  0
 21 22  4  0
 22 23  4  0
 25 26  4  0
 27 29  2  0
M  END
$$$$

 Created by Python create_sdf_string function

 30 33  0  0  0  0  0  0  0  0999 V2000
    8.3036    9.8571   18.4133 C   0  0  0  0  0  0  0  0  0  0  0  0
    8.3694    7.6612   22.6703 C   0  0  0  0  0  0  0  0  0  0  0  0
    8.4143    6.6863   16.2273 C   0  0  0  0  0  0  0  0  0  0  0  0
   10.7581    6.5674   21.7636 C   0  0  0  0  0  0  0  0  0  0  0  0
    8.4452    8.7960   19.2958 O   0  0  0  0  0  0  0  0  0  0  0  0
    8.7122    6.7842   24.8569 C   0  0  0  0  0  0  0  0  0  0  0  0
   10.3400    6.1726   14.3081 C   0  0  0  0  0  0  0  0  0  0  0  0
    7.4297    7.5873   24.8962 C   0  0  0  0  0  0  0  0  0  0  0  0
    8.1566   10.0536   16.0516 O   0  0  0  0  0  0  0  0  0  0  0  0
   12.4989    6.2074   20.1776 C   0  0  0  0  0  0  0  0  0  0  0  0
    6.9192    9.1053   20.9073 O   0  0  0  0  0  0  0  0  0  0  0  0
   14.3979    6.0729   18.7784 C   0  0  0  0  0  0  0  0  0  0  0  0
    8.6811    9.5354   16.9998 C   0  0  0  0  0  0  0  0  0  0  0  0
    9.2512    4.2713   13.7653 O   0  0  0  0  0  0  0  0  0  0  0  0
    9.6495    8.6317   16.8332 N   0  0  0  0  0  0  0  0  0  0  0  0
    6.2934    8.6988   23.1988 O   0  0  0  0  0  0  0  0  0  0  0  0
    7.9806    8.6543   20.5437 C   0  0  0  0  0  0  0  0  0  0  0  0
   13.7270    5.7144   19.8610 O   0  0  0  0  0  0  0  0  0  0  0  0
    8.3351    5.5235   15.4478 C   0  0  0  0  0  0  0  0  0  0  0  0
    8.7700    7.8434   21.3915 C   0  0  0  0  0  0  0  0  0  0  0  0
   11.7856    6.8851   19.2401 C   0  0  0  0  0  0  0  0  0  0  0  0
   10.5281    7.4276   19.5649 C   0  0  0  0  0  0  0  0  0  0  0  0
   10.0256    7.2907   20.8484 C   0  0  0  0  0  0  0  0  0  0  0  0
    9.3113    5.3049   14.4911 C   0  0  0  0  0  0  0  0  0  0  0  0
    9.4607    7.5646   16.0139 C   0  0  0  0  0  0  0  0  0  0  0  0
   10.4192    7.3157   15.0955 C   0  0  0  0  0  0  0  0  0  0  0  0
   10.2489    6.4227   23.0218 N   0  0  0  0  0  0  0  0  0  0  0  0
    7.2472    8.0746   23.5050 C   0  0  0  0  0  0  0  0  0  0  0  0
    9.2051    6.9101   23.4604 C   0  0  0  0  0  0  0  0  0  0  0  0
   11.9646    6.0299   21.4251 C   0  0  0  0  0  0  0  0  0  0  0  0
  1  5  1  0
  1 13  1  0
  2 20  2  0
  2 28  1  0
  2 29  1  0
  3 19  4  0
  3 25  4  0
  4 23  4  0
  4 27  1  0
  4 30  4  0
  5 17  1  0
  6  8  1  0
  6 29  1  0
  7 24  4  0
  7 26  4  0
  8 28  1  0
  9 13  2  0
 10 18  1  0
 10 21  4  0
 10 30  4  0
 11 17  2  0
 12 18  1  0
 13 15  1  0
 14 24  1  0
 15 25  1  0
 16 28  2  0
 17 20  1  0
 19 24  4  0
 20 23  1  0
 21 22  4  0
 22 23  4  0
 25 26  4  0
 27 29  2  0
M  END
$$$$

 Created by Python create_sdf_string function

 30 33  0  0  0  0  0  0  0  0999 V2000
    8.3036    9.8571   18.4133 C   0  0  0  0  0  0  0  0  0  0  0  0
    8.3694    7.6612   22.6703 C   0  0  0  0  0  0  0  0  0  0  0  0
    8.4143    6.6863   16.2273 C   0  0  0  0  0  0  0  0  0  0  0  0
   10.7581    6.5674   21.7636 C   0  0  0  0  0  0  0  0  0  0  0  0
    8.4452    8.7960   19.2958 O   0  0  0  0  0  0  0  0  0  0  0  0
    8.7122    6.7842   24.8569 C   0  0  0  0  0  0  0  0  0  0  0  0
   10.3400    6.1726   14.3081 C   0  0  0  0  0  0  0  0  0  0  0  0
    7.4297    7.5873   24.8962 C   0  0  0  0  0  0  0  0  0  0  0  0
    8.1566   10.0536   16.0516 O   0  0  0  0  0  0  0  0  0  0  0  0
   12.4989    6.2074   20.1776 C   0  0  0  0  0  0  0  0  0  0  0  0
    6.9192    9.1053   20.9073 O   0  0  0  0  0  0  0  0  0  0  0  0
   14.3979    6.0729   18.7784 C   0  0  0  0  0  0  0  0  0  0  0  0
    8.6811    9.5354   16.9998 C   0  0  0  0  0  0  0  0  0  0  0  0
    9.2512    4.2713   13.7653 O   0  0  0  0  0  0  0  0  0  0  0  0
    9.6495    8.6317   16.8332 N   0  0  0  0  0  0  0  0  0  0  0  0
    6.2934    8.6988   23.1988 O   0  0  0  0  0  0  0  0  0  0  0  0
    7.9806    8.6543   20.5437 C   0  0  0  0  0  0  0  0  0  0  0  0
   13.7270    5.7144   19.8610 O   0  0  0  0  0  0  0  0  0  0  0  0
    8.3351    5.5235   15.4478 C   0  0  0  0  0  0  0  0  0  0  0  0
    8.7700    7.8434   21.3915 C   0  0  0  0  0  0  0  0  0  0  0  0
   11.7856    6.8851   19.2401 C   0  0  0  0  0  0  0  0  0  0  0  0
   10.5281    7.4276   19.5649 C   0  0  0  0  0  0  0  0  0  0  0  0
   10.0256    7.2907   20.8484 C   0  0  0  0  0  0  0  0  0  0  0  0
    9.3113    5.3049   14.4911 C   0  0  0  0  0  0  0  0  0  0  0  0
    9.4607    7.5646   16.0139 C   0  0  0  0  0  0  0  0  0  0  0  0
   10.4192    7.3157   15.0955 C   0  0  0  0  0  0  0  0  0  0  0  0
   10.2489    6.4227   23.0218 N   0  0  0  0  0  0  0  0  0  0  0  0
    7.2472    8.0746   23.5050 C   0  0  0  0  0  0  0  0  0  0  0  0
    9.2051    6.9101   23.4604 C   0  0  0  0  0  0  0  0  0  0  0  0
   11.9646    6.0299   21.4251 C   0  0  0  0  0  0  0  0  0  0  0  0
  1  5  1  0
  1 13  1  0
  2 20  2  0
  2 28  1  0
  2 29  1  0
  3 19  4  0
  3 25  4  0
  4 23  4  0
  4 27  1  0
  4 30  4  0
  5 17  1  0
  6  8  1  0
  6 29  1  0
  7 24  4  0
  7 26  4  0
  8 28  1  0
  9 13  2  0
 10 18  1  0
 10 21  4  0
 10 30  4  0
 11 17  2  0
 12 18  1  0
 13 15  1  0
 14 24  1  0
 15 25  1  0
 16 28  2  0
 17 20  1  0
 19 24  4  0
 20 23  1  0
 21 22  4  0
 22 23  4  0
 25 26  4  0
 27 29  2  0
M  END
$$$$

 Created by Python create_sdf_string function

 30 33  0  0  0  0  0  0  0  0999 V2000
    8.3036    9.8571   18.4133 C   0  0  0  0  0  0  0  0  0  0  0  0
    8.3694    7.6612   22.6703 C   0  0  0  0  0  0  0  0  0  0  0  0
    8.4143    6.6863   16.2273 C   0  0  0  0  0  0  0  0  0  0  0  0
   10.7581    6.5674   21.7636 C   0  0  0  0  0  0  0  0  0  0  0  0
    8.4452    8.7960   19.2958 O   0  0  0  0  0  0  0  0  0  0  0  0
    8.7122    6.7842   24.8569 C   0  0  0  0  0  0  0  0  0  0  0  0
   10.3400    6.1726   14.3081 C   0  0  0  0  0  0  0  0  0  0  0  0
    7.4297    7.5873   24.8962 C   0  0  0  0  0  0  0  0  0  0  0  0
    8.1566   10.0536   16.0516 O   0  0  0  0  0  0  0  0  0  0  0  0
   12.4989    6.2074   20.1776 C   0  0  0  0  0  0  0  0  0  0  0  0
    6.9192    9.1053   20.9073 O   0  0  0  0  0  0  0  0  0  0  0  0
   14.3979    6.0729   18.7784 C   0  0  0  0  0  0  0  0  0  0  0  0
    8.6811    9.5354   16.9998 C   0  0  0  0  0  0  0  0  0  0  0  0
    9.2512    4.2713   13.7653 O   0  0  0  0  0  0  0  0  0  0  0  0
    9.6495    8.6317   16.8332 N   0  0  0  0  0  0  0  0  0  0  0  0
    6.2934    8.6988   23.1988 O   0  0  0  0  0  0  0  0  0  0  0  0
    7.9806    8.6543   20.5437 C   0  0  0  0  0  0  0  0  0  0  0  0
   13.7270    5.7144   19.8610 O   0  0  0  0  0  0  0  0  0  0  0  0
    8.3351    5.5235   15.4478 C   0  0  0  0  0  0  0  0  0  0  0  0
    8.7700    7.8434   21.3915 C   0  0  0  0  0  0  0  0  0  0  0  0
   11.7856    6.8851   19.2401 C   0  0  0  0  0  0  0  0  0  0  0  0
   10.5281    7.4276   19.5649 C   0  0  0  0  0  0  0  0  0  0  0  0
   10.0256    7.2907   20.8484 C   0  0  0  0  0  0  0  0  0  0  0  0
    9.3113    5.3049   14.4911 C   0  0  0  0  0  0  0  0  0  0  0  0
    9.4607    7.5646   16.0139 C   0  0  0  0  0  0  0  0  0  0  0  0
   10.4192    7.3157   15.0955 C   0  0  0  0  0  0  0  0  0  0  0  0
   10.2489    6.4227   23.0218 N   0  0  0  0  0  0  0  0  0  0  0  0
    7.2472    8.0746   23.5050 C   0  0  0  0  0  0  0  0  0  0  0  0
    9.2051    6.9101   23.4604 C   0  0  0  0  0  0  0  0  0  0  0  0
   11.9646    6.0299   21.4251 C   0  0  0  0  0  0  0  0  0  0  0  0
  1  5  1  0
  1 13  1  0
  2 20  2  0
  2 28  1  0
  2 29  1  0
  3 19  4  0
  3 25  4  0
  4 23  4  0
  4 27  1  0
  4 30  4  0
  5 17  1  0
  6  8  1  0
  6 29  1  0
  7 24  4  0
  7 26  4  0
  8 28  1  0
  9 13  2  0
 10 18  1  0
 10 21  4  0
 10 30  4  0
 11 17  2  0
 12 18  1  0
 13 15  1  0
 14 24  1  0
 15 25  1  0
 16 28  2  0
 17 20  1  0
 19 24  4  0
 20 23  1  0
 21 22  4  0
 22 23  4  0
 25 26  4  0
 27 29  2  0
M  END
$$$$

 Created by Python create_sdf_string function

 30 33  0  0  0  0  0  0  0  0999 V2000
    8.3036    9.8571   18.4133 C   0  0  0  0  0  0  0  0  0  0  0  0
    8.3694    7.6612   22.6703 C   0  0  0  0  0  0  0  0  0  0  0  0
    8.4143    6.6863   16.2273 C   0  0  0  0  0  0  0  0  0  0  0  0
   10.7581    6.5674   21.7636 C   0  0  0  0  0  0  0  0  0  0  0  0
    8.4452    8.7960   19.2958 O   0  0  0  0  0  0  0  0  0  0  0  0
    8.7122    6.7842   24.8569 C   0  0  0  0  0  0  0  0  0  0  0  0
   10.3400    6.1726   14.3081 C   0  0  0  0  0  0  0  0  0  0  0  0
    7.4297    7.5873   24.8962 C   0  0  0  0  0  0  0  0  0  0  0  0
    8.1566   10.0536   16.0516 O   0  0  0  0  0  0  0  0  0  0  0  0
   12.4989    6.2074   20.1776 C   0  0  0  0  0  0  0  0  0  0  0  0
    6.9192    9.1053   20.9073 O   0  0  0  0  0  0  0  0  0  0  0  0
   14.3979    6.0729   18.7784 C   0  0  0  0  0  0  0  0  0  0  0  0
    8.6811    9.5354   16.9998 C   0  0  0  0  0  0  0  0  0  0  0  0
    9.2512    4.2713   13.7653 O   0  0  0  0  0  0  0  0  0  0  0  0
    9.6495    8.6317   16.8332 N   0  0  0  0  0  0  0  0  0  0  0  0
    6.2934    8.6988   23.1988 O   0  0  0  0  0  0  0  0  0  0  0  0
    7.9806    8.6543   20.5437 C   0  0  0  0  0  0  0  0  0  0  0  0
   13.7270    5.7144   19.8610 O   0  0  0  0  0  0  0  0  0  0  0  0
    8.3351    5.5235   15.4478 C   0  0  0  0  0  0  0  0  0  0  0  0
    8.7700    7.8434   21.3915 C   0  0  0  0  0  0  0  0  0  0  0  0
   11.7856    6.8851   19.2401 C   0  0  0  0  0  0  0  0  0  0  0  0
   10.5281    7.4276   19.5649 C   0  0  0  0  0  0  0  0  0  0  0  0
   10.0256    7.2907   20.8484 C   0  0  0  0  0  0  0  0  0  0  0  0
    9.3113    5.3049   14.4911 C   0  0  0  0  0  0  0  0  0  0  0  0
    9.4607    7.5646   16.0139 C   0  0  0  0  0  0  0  0  0  0  0  0
   10.4192    7.3157   15.0955 C   0  0  0  0  0  0  0  0  0  0  0  0
   10.2489    6.4227   23.0218 N   0  0  0  0  0  0  0  0  0  0  0  0
    7.2472    8.0746   23.5050 C   0  0  0  0  0  0  0  0  0  0  0  0
    9.2051    6.9101   23.4604 C   0  0  0  0  0  0  0  0  0  0  0  0
   11.9646    6.0299   21.4251 C   0  0  0  0  0  0  0  0  0  0  0  0
  1  5  1  0
  1 13  1  0
  2 20  2  0
  2 28  1  0
  2 29  1  0
  3 19  4  0
  3 25  4  0
  4 23  4  0
  4 27  1  0
  4 30  4  0
  5 17  1  0
  6  8  1  0
  6 29  1  0
  7 24  4  0
  7 26  4  0
  8 28  1  0
  9 13  2  0
 10 18  1  0
 10 21  4  0
 10 30  4  0
 11 17  2  0
 12 18  1  0
 13 15  1  0
 14 24  1  0
 15 25  1  0
 16 28  2  0
 17 20  1  0
 19 24  4  0
 20 23  1  0
 21 22  4  0
 22 23  4  0
 25 26  4  0
 27 29  2  0
M  END
$$$$

 Created by Python create_sdf_string function

 30 33  0  0  0  0  0  0  0  0999 V2000
    8.3036    9.8571   18.4133 C   0  0  0  0  0  0  0  0  0  0  0  0
    8.3694    7.6612   22.6703 C   0  0  0  0  0  0  0  0  0  0  0  0
    8.4143    6.6863   16.2273 C   0  0  0  0  0  0  0  0  0  0  0  0
   10.7581    6.5674   21.7636 C   0  0  0  0  0  0  0  0  0  0  0  0
    8.4452    8.7960   19.2958 O   0  0  0  0  0  0  0  0  0  0  0  0
    8.7122    6.7842   24.8569 C   0  0  0  0  0  0  0  0  0  0  0  0
   10.3400    6.1726   14.3081 C   0  0  0  0  0  0  0  0  0  0  0  0
    7.4297    7.5873   24.8962 C   0  0  0  0  0  0  0  0  0  0  0  0
    8.1566   10.0536   16.0516 O   0  0  0  0  0  0  0  0  0  0  0  0
   12.4989    6.2074   20.1776 C   0  0  0  0  0  0  0  0  0  0  0  0
    6.9192    9.1053   20.9073 O   0  0  0  0  0  0  0  0  0  0  0  0
   14.3979    6.0729   18.7784 C   0  0  0  0  0  0  0  0  0  0  0  0
    8.6811    9.5354   16.9998 C   0  0  0  0  0  0  0  0  0  0  0  0
    9.2512    4.2713   13.7653 O   0  0  0  0  0  0  0  0  0  0  0  0
    9.6495    8.6317   16.8332 N   0  0  0  0  0  0  0  0  0  0  0  0
    6.2934    8.6988   23.1988 O   0  0  0  0  0  0  0  0  0  0  0  0
    7.9806    8.6543   20.5437 C   0  0  0  0  0  0  0  0  0  0  0  0
   13.7270    5.7144   19.8610 O   0  0  0  0  0  0  0  0  0  0  0  0
    8.3351    5.5235   15.4478 C   0  0  0  0  0  0  0  0  0  0  0  0
    8.7700    7.8434   21.3915 C   0  0  0  0  0  0  0  0  0  0  0  0
   11.7856    6.8851   19.2401 C   0  0  0  0  0  0  0  0  0  0  0  0
   10.5281    7.4276   19.5649 C   0  0  0  0  0  0  0  0  0  0  0  0
   10.0256    7.2907   20.8484 C   0  0  0  0  0  0  0  0  0  0  0  0
    9.3113    5.3049   14.4911 C   0  0  0  0  0  0  0  0  0  0  0  0
    9.4607    7.5646   16.0139 C   0  0  0  0  0  0  0  0  0  0  0  0
   10.4192    7.3157   15.0955 C   0  0  0  0  0  0  0  0  0  0  0  0
   10.2489    6.4227   23.0218 N   0  0  0  0  0  0  0  0  0  0  0  0
    7.2472    8.0746   23.5050 C   0  0  0  0  0  0  0  0  0  0  0  0
    9.2051    6.9101   23.4604 C   0  0  0  0  0  0  0  0  0  0  0  0
   11.9646    6.0299   21.4251 C   0  0  0  0  0  0  0  0  0  0  0  0
  1  5  1  0
  1 13  1  0
  2 20  2  0
  2 28  1  0
  2 29  1  0
  3 19  4  0
  3 25  4  0
  4 23  4  0
  4 27  1  0
  4 30  4  0
  5 17  1  0
  6  8  1  0
  6 29  1  0
  7 24  4  0
  7 26  4  0
  8 28  1  0
  9 13  2  0
 10 18  1  0
 10 21  4  0
 10 30  4  0
 11 17  2  0
 12 18  1  0
 13 15  1  0
 14 24  1  0
 15 25  1  0
 16 28  2  0
 17 20  1  0
 19 24  4  0
 20 23  1  0
 21 22  4  0
 22 23  4  0
 25 26  4  0
 27 29  2  0
M  END
$$$$

 Created by Python create_sdf_string function

 30 33  0  0  0  0  0  0  0  0999 V2000
    8.3036    9.8571   18.4133 C   0  0  0  0  0  0  0  0  0  0  0  0
    8.3694    7.6612   22.6703 C   0  0  0  0  0  0  0  0  0  0  0  0
    8.4143    6.6863   16.2273 C   0  0  0  0  0  0  0  0  0  0  0  0
   10.7581    6.5674   21.7636 C   0  0  0  0  0  0  0  0  0  0  0  0
    8.4452    8.7960   19.2958 O   0  0  0  0  0  0  0  0  0  0  0  0
    8.7122    6.7842   24.8569 C   0  0  0  0  0  0  0  0  0  0  0  0
   10.3400    6.1726   14.3081 C   0  0  0  0  0  0  0  0  0  0  0  0
    7.4297    7.5873   24.8962 C   0  0  0  0  0  0  0  0  0  0  0  0
    8.1566   10.0536   16.0516 O   0  0  0  0  0  0  0  0  0  0  0  0
   12.4989    6.2074   20.1776 C   0  0  0  0  0  0  0  0  0  0  0  0
    6.9192    9.1053   20.9073 O   0  0  0  0  0  0  0  0  0  0  0  0
   14.3979    6.0729   18.7784 C   0  0  0  0  0  0  0  0  0  0  0  0
    8.6811    9.5354   16.9998 C   0  0  0  0  0  0  0  0  0  0  0  0
    9.2512    4.2713   13.7653 O   0  0  0  0  0  0  0  0  0  0  0  0
    9.6495    8.6317   16.8332 N   0  0  0  0  0  0  0  0  0  0  0  0
    6.2934    8.6988   23.1988 O   0  0  0  0  0  0  0  0  0  0  0  0
    7.9806    8.6543   20.5437 C   0  0  0  0  0  0  0  0  0  0  0  0
   13.7270    5.7144   19.8610 O   0  0  0  0  0  0  0  0  0  0  0  0
    8.3351    5.5235   15.4478 C   0  0  0  0  0  0  0  0  0  0  0  0
    8.7700    7.8434   21.3915 C   0  0  0  0  0  0  0  0  0  0  0  0
   11.7856    6.8851   19.2401 C   0  0  0  0  0  0  0  0  0  0  0  0
   10.5281    7.4276   19.5649 C   0  0  0  0  0  0  0  0  0  0  0  0
   10.0256    7.2907   20.8484 C   0  0  0  0  0  0  0  0  0  0  0  0
    9.3113    5.3049   14.4911 C   0  0  0  0  0  0  0  0  0  0  0  0
    9.4607    7.5646   16.0139 C   0  0  0  0  0  0  0  0  0  0  0  0
   10.4192    7.3157   15.0955 C   0  0  0  0  0  0  0  0  0  0  0  0
   10.2489    6.4227   23.0218 N   0  0  0  0  0  0  0  0  0  0  0  0
    7.2472    8.0746   23.5050 C   0  0  0  0  0  0  0  0  0  0  0  0
    9.2051    6.9101   23.4604 C   0  0  0  0  0  0  0  0  0  0  0  0
   11.9646    6.0299   21.4251 C   0  0  0  0  0  0  0  0  0  0  0  0
  1  5  1  0
  1 13  1  0
  2 20  2  0
  2 28  1  0
  2 29  1  0
  3 19  4  0
  3 25  4  0
  4 23  4  0
  4 27  1  0
  4 30  4  0
  5 17  1  0
  6  8  1  0
  6 29  1  0
  7 24  4  0
  7 26  4  0
  8 28  1  0
  9 13  2  0
 10 18  1  0
 10 21  4  0
 10 30  4  0
 11 17  2  0
 12 18  1  0
 13 15  1  0
 14 24  1  0
 15 25  1  0
 16 28  2  0
 17 20  1  0
 19 24  4  0
 20 23  1  0
 21 22  4  0
 22 23  4  0
 25 26  4  0
 27 29  2  0
M  END
$$$$

 Created by Python create_sdf_string function

 30 33  0  0  0  0  0  0  0  0999 V2000
    8.3036    9.8571   18.4133 C   0  0  0  0  0  0  0  0  0  0  0  0
    8.3694    7.6612   22.6703 C   0  0  0  0  0  0  0  0  0  0  0  0
    8.4143    6.6863   16.2273 C   0  0  0  0  0  0  0  0  0  0  0  0
   10.7581    6.5674   21.7636 C   0  0  0  0  0  0  0  0  0  0  0  0
    8.4452    8.7960   19.2958 O   0  0  0  0  0  0  0  0  0  0  0  0
    8.7122    6.7842   24.8569 C   0  0  0  0  0  0  0  0  0  0  0  0
   10.3400    6.1726   14.3081 C   0  0  0  0  0  0  0  0  0  0  0  0
    7.4297    7.5873   24.8962 C   0  0  0  0  0  0  0  0  0  0  0  0
    8.1566   10.0536   16.0516 O   0  0  0  0  0  0  0  0  0  0  0  0
   12.4989    6.2074   20.1776 C   0  0  0  0  0  0  0  0  0  0  0  0
    6.9192    9.1053   20.9073 O   0  0  0  0  0  0  0  0  0  0  0  0
   14.3979    6.0729   18.7784 C   0  0  0  0  0  0  0  0  0  0  0  0
    8.6811    9.5354   16.9998 C   0  0  0  0  0  0  0  0  0  0  0  0
    9.2512    4.2713   13.7653 O   0  0  0  0  0  0  0  0  0  0  0  0
    9.6495    8.6317   16.8332 N   0  0  0  0  0  0  0  0  0  0  0  0
    6.2934    8.6988   23.1988 O   0  0  0  0  0  0  0  0  0  0  0  0
    7.9806    8.6543   20.5437 C   0  0  0  0  0  0  0  0  0  0  0  0
   13.7270    5.7144   19.8610 O   0  0  0  0  0  0  0  0  0  0  0  0
    8.3351    5.5235   15.4478 C   0  0  0  0  0  0  0  0  0  0  0  0
    8.7700    7.8434   21.3915 C   0  0  0  0  0  0  0  0  0  0  0  0
   11.7856    6.8851   19.2401 C   0  0  0  0  0  0  0  0  0  0  0  0
   10.5281    7.4276   19.5649 C   0  0  0  0  0  0  0  0  0  0  0  0
   10.0256    7.2907   20.8484 C   0  0  0  0  0  0  0  0  0  0  0  0
    9.3113    5.3049   14.4911 C   0  0  0  0  0  0  0  0  0  0  0  0
    9.4607    7.5646   16.0139 C   0  0  0  0  0  0  0  0  0  0  0  0
   10.4192    7.3157   15.0955 C   0  0  0  0  0  0  0  0  0  0  0  0
   10.2489    6.4227   23.0218 N   0  0  0  0  0  0  0  0  0  0  0  0
    7.2472    8.0746   23.5050 C   0  0  0  0  0  0  0  0  0  0  0  0
    9.2051    6.9101   23.4604 C   0  0  0  0  0  0  0  0  0  0  0  0
   11.9646    6.0299   21.4251 C   0  0  0  0  0  0  0  0  0  0  0  0
  1  5  1  0
  1 13  1  0
  2 20  2  0
  2 28  1  0
  2 29  1  0
  3 19  4  0
  3 25  4  0
  4 23  4  0
  4 27  1  0
  4 30  4  0
  5 17  1  0
  6  8  1  0
  6 29  1  0
  7 24  4  0
  7 26  4  0
  8 28  1  0
  9 13  2  0
 10 18  1  0
 10 21  4  0
 10 30  4  0
 11 17  2  0
 12 18  1  0
 13 15  1  0
 14 24  1  0
 15 25  1  0
 16 28  2  0
 17 20  1  0
 19 24  4  0
 20 23  1  0
 21 22  4  0
 22 23  4  0
 25 26  4  0
 27 29  2  0
M  END
$$$$

 Created by Python create_sdf_string function

 30 33  0  0  0  0  0  0  0  0999 V2000
    8.3036    9.8571   18.4133 C   0  0  0  0  0  0  0  0  0  0  0  0
    8.3694    7.6612   22.6703 C   0  0  0  0  0  0  0  0  0  0  0  0
    8.4143    6.6863   16.2273 C   0  0  0  0  0  0  0  0  0  0  0  0
   10.7581    6.5674   21.7636 C   0  0  0  0  0  0  0  0  0  0  0  0
    8.4452    8.7960   19.2958 O   0  0  0  0  0  0  0  0  0  0  0  0
    8.7122    6.7842   24.8569 C   0  0  0  0  0  0  0  0  0  0  0  0
   10.3400    6.1726   14.3081 C   0  0  0  0  0  0  0  0  0  0  0  0
    7.4297    7.5873   24.8962 C   0  0  0  0  0  0  0  0  0  0  0  0
    8.1566   10.0536   16.0516 O   0  0  0  0  0  0  0  0  0  0  0  0
   12.4989    6.2074   20.1776 C   0  0  0  0  0  0  0  0  0  0  0  0
    6.9192    9.1053   20.9073 O   0  0  0  0  0  0  0  0  0  0  0  0
   14.3979    6.0729   18.7784 C   0  0  0  0  0  0  0  0  0  0  0  0
    8.6811    9.5354   16.9998 C   0  0  0  0  0  0  0  0  0  0  0  0
    9.2512    4.2713   13.7653 O   0  0  0  0  0  0  0  0  0  0  0  0
    9.6495    8.6317   16.8332 N   0  0  0  0  0  0  0  0  0  0  0  0
    6.2934    8.6988   23.1988 O   0  0  0  0  0  0  0  0  0  0  0  0
    7.9806    8.6543   20.5437 C   0  0  0  0  0  0  0  0  0  0  0  0
   13.7270    5.7144   19.8610 O   0  0  0  0  0  0  0  0  0  0  0  0
    8.3351    5.5235   15.4478 C   0  0  0  0  0  0  0  0  0  0  0  0
    8.7700    7.8434   21.3915 C   0  0  0  0  0  0  0  0  0  0  0  0
   11.7856    6.8851   19.2401 C   0  0  0  0  0  0  0  0  0  0  0  0
   10.5281    7.4276   19.5649 C   0  0  0  0  0  0  0  0  0  0  0  0
   10.0256    7.2907   20.8484 C   0  0  0  0  0  0  0  0  0  0  0  0
    9.3113    5.3049   14.4911 C   0  0  0  0  0  0  0  0  0  0  0  0
    9.4607    7.5646   16.0139 C   0  0  0  0  0  0  0  0  0  0  0  0
   10.4192    7.3157   15.0955 C   0  0  0  0  0  0  0  0  0  0  0  0
   10.2489    6.4227   23.0218 N   0  0  0  0  0  0  0  0  0  0  0  0
    7.2472    8.0746   23.5050 C   0  0  0  0  0  0  0  0  0  0  0  0
    9.2051    6.9101   23.4604 C   0  0  0  0  0  0  0  0  0  0  0  0
   11.9646    6.0299   21.4251 C   0  0  0  0  0  0  0  0  0  0  0  0
  1  5  1  0
  1 13  1  0
  2 20  2  0
  2 28  1  0
  2 29  1  0
  3 19  4  0
  3 25  4  0
  4 23  4  0
  4 27  1  0
  4 30  4  0
  5 17  1  0
  6  8  1  0
  6 29  1  0
  7 24  4  0
  7 26  4  0
  8 28  1  0
  9 13  2  0
 10 18  1  0
 10 21  4  0
 10 30  4  0
 11 17  2  0
 12 18  1  0
 13 15  1  0
 14 24  1  0
 15 25  1  0
 16 28  2  0
 17 20  1  0
 19 24  4  0
 20 23  1  0
 21 22  4  0
 22 23  4  0
 25 26  4  0
 27 29  2  0
M  END
$$$$

 Created by Python create_sdf_string function

 30 33  0  0  0  0  0  0  0  0999 V2000
    8.3036    9.8571   18.4133 C   0  0  0  0  0  0  0  0  0  0  0  0
    8.3694    7.6612   22.6703 C   0  0  0  0  0  0  0  0  0  0  0  0
    8.4143    6.6863   16.2273 C   0  0  0  0  0  0  0  0  0  0  0  0
   10.7581    6.5674   21.7636 C   0  0  0  0  0  0  0  0  0  0  0  0
    8.4452    8.7960   19.2958 O   0  0  0  0  0  0  0  0  0  0  0  0
    8.7122    6.7842   24.8569 C   0  0  0  0  0  0  0  0  0  0  0  0
   10.3400    6.1726   14.3081 C   0  0  0  0  0  0  0  0  0  0  0  0
    7.4297    7.5873   24.8962 C   0  0  0  0  0  0  0  0  0  0  0  0
    8.1566   10.0536   16.0516 O   0  0  0  0  0  0  0  0  0  0  0  0
   12.4989    6.2074   20.1776 C   0  0  0  0  0  0  0  0  0  0  0  0
    6.9192    9.1053   20.9073 O   0  0  0  0  0  0  0  0  0  0  0  0
   14.3979    6.0729   18.7784 C   0  0  0  0  0  0  0  0  0  0  0  0
    8.6811    9.5354   16.9998 C   0  0  0  0  0  0  0  0  0  0  0  0
    9.2512    4.2713   13.7653 O   0  0  0  0  0  0  0  0  0  0  0  0
    9.6495    8.6317   16.8332 N   0  0  0  0  0  0  0  0  0  0  0  0
    6.2934    8.6988   23.1988 O   0  0  0  0  0  0  0  0  0  0  0  0
    7.9806    8.6543   20.5437 C   0  0  0  0  0  0  0  0  0  0  0  0
   13.7270    5.7144   19.8610 O   0  0  0  0  0  0  0  0  0  0  0  0
    8.3351    5.5235   15.4478 C   0  0  0  0  0  0  0  0  0  0  0  0
    8.7700    7.8434   21.3915 C   0  0  0  0  0  0  0  0  0  0  0  0
   11.7856    6.8851   19.2401 C   0  0  0  0  0  0  0  0  0  0  0  0
   10.5281    7.4276   19.5649 C   0  0  0  0  0  0  0  0  0  0  0  0
   10.0256    7.2907   20.8484 C   0  0  0  0  0  0  0  0  0  0  0  0
    9.3113    5.3049   14.4911 C   0  0  0  0  0  0  0  0  0  0  0  0
    9.4607    7.5646   16.0139 C   0  0  0  0  0  0  0  0  0  0  0  0
   10.4192    7.3157   15.0955 C   0  0  0  0  0  0  0  0  0  0  0  0
   10.2489    6.4227   23.0218 N   0  0  0  0  0  0  0  0  0  0  0  0
    7.2472    8.0746   23.5050 C   0  0  0  0  0  0  0  0  0  0  0  0
    9.2051    6.9101   23.4604 C   0  0  0  0  0  0  0  0  0  0  0  0
   11.9646    6.0299   21.4251 C   0  0  0  0  0  0  0  0  0  0  0  0
  1  5  1  0
  1 13  1  0
  2 20  2  0
  2 28  1  0
  2 29  1  0
  3 19  4  0
  3 25  4  0
  4 23  4  0
  4 27  1  0
  4 30  4  0
  5 17  1  0
  6  8  1  0
  6 29  1  0
  7 24  4  0
  7 26  4  0
  8 28  1  0
  9 13  2  0
 10 18  1  0
 10 21  4  0
 10 30  4  0
 11 17  2  0
 12 18  1  0
 13 15  1  0
 14 24  1  0
 15 25  1  0
 16 28  2  0
 17 20  1  0
 19 24  4  0
 20 23  1  0
 21 22  4  0
 22 23  4  0
 25 26  4  0
 27 29  2  0
M  END
$$$$

 Created by Python create_sdf_string function

 30 33  0  0  0  0  0  0  0  0999 V2000
    8.3036    9.8571   18.4133 C   0  0  0  0  0  0  0  0  0  0  0  0
    8.3694    7.6612   22.6703 C   0  0  0  0  0  0  0  0  0  0  0  0
    8.4143    6.6863   16.2273 C   0  0  0  0  0  0  0  0  0  0  0  0
   10.7581    6.5674   21.7636 C   0  0  0  0  0  0  0  0  0  0  0  0
    8.4452    8.7960   19.2958 O   0  0  0  0  0  0  0  0  0  0  0  0
    8.7122    6.7842   24.8569 C   0  0  0  0  0  0  0  0  0  0  0  0
   10.3400    6.1726   14.3081 C   0  0  0  0  0  0  0  0  0  0  0  0
    7.4297    7.5873   24.8962 C   0  0  0  0  0  0  0  0  0  0  0  0
    8.1566   10.0536   16.0516 O   0  0  0  0  0  0  0  0  0  0  0  0
   12.4989    6.2074   20.1776 C   0  0  0  0  0  0  0  0  0  0  0  0
    6.9192    9.1053   20.9073 O   0  0  0  0  0  0  0  0  0  0  0  0
   14.3979    6.0729   18.7784 C   0  0  0  0  0  0  0  0  0  0  0  0
    8.6811    9.5354   16.9998 C   0  0  0  0  0  0  0  0  0  0  0  0
    9.2512    4.2713   13.7653 O   0  0  0  0  0  0  0  0  0  0  0  0
    9.6495    8.6317   16.8332 N   0  0  0  0  0  0  0  0  0  0  0  0
    6.2934    8.6988   23.1988 O   0  0  0  0  0  0  0  0  0  0  0  0
    7.9806    8.6543   20.5437 C   0  0  0  0  0  0  0  0  0  0  0  0
   13.7270    5.7144   19.8610 O   0  0  0  0  0  0  0  0  0  0  0  0
    8.3351    5.5235   15.4478 C   0  0  0  0  0  0  0  0  0  0  0  0
    8.7700    7.8434   21.3915 C   0  0  0  0  0  0  0  0  0  0  0  0
   11.7856    6.8851   19.2401 C   0  0  0  0  0  0  0  0  0  0  0  0
   10.5281    7.4276   19.5649 C   0  0  0  0  0  0  0  0  0  0  0  0
   10.0256    7.2907   20.8484 C   0  0  0  0  0  0  0  0  0  0  0  0
    9.3113    5.3049   14.4911 C   0  0  0  0  0  0  0  0  0  0  0  0
    9.4607    7.5646   16.0139 C   0  0  0  0  0  0  0  0  0  0  0  0
   10.4192    7.3157   15.0955 C   0  0  0  0  0  0  0  0  0  0  0  0
   10.2489    6.4227   23.0218 N   0  0  0  0  0  0  0  0  0  0  0  0
    7.2472    8.0746   23.5050 C   0  0  0  0  0  0  0  0  0  0  0  0
    9.2051    6.9101   23.4604 C   0  0  0  0  0  0  0  0  0  0  0  0
   11.9646    6.0299   21.4251 C   0  0  0  0  0  0  0  0  0  0  0  0
  1  5  1  0
  1 13  1  0
  2 20  2  0
  2 28  1  0
  2 29  1  0
  3 19  4  0
  3 25  4  0
  4 23  4  0
  4 27  1  0
  4 30  4  0
  5 17  1  0
  6  8  1  0
  6 29  1  0
  7 24  4  0
  7 26  4  0
  8 28  1  0
  9 13  2  0
 10 18  1  0
 10 21  4  0
 10 30  4  0
 11 17  2  0
 12 18  1  0
 13 15  1  0
 14 24  1  0
 15 25  1  0
 16 28  2  0
 17 20  1  0
 19 24  4  0
 20 23  1  0
 21 22  4  0
 22 23  4  0
 25 26  4  0
 27 29  2  0
M  END
$$$$

 Created by Python create_sdf_string function

 30 33  0  0  0  0  0  0  0  0999 V2000
    8.3036    9.8571   18.4133 C   0  0  0  0  0  0  0  0  0  0  0  0
    8.3694    7.6612   22.6703 C   0  0  0  0  0  0  0  0  0  0  0  0
    8.4143    6.6863   16.2273 C   0  0  0  0  0  0  0  0  0  0  0  0
   10.7581    6.5674   21.7636 C   0  0  0  0  0  0  0  0  0  0  0  0
    8.4452    8.7960   19.2958 O   0  0  0  0  0  0  0  0  0  0  0  0
    8.7122    6.7842   24.8569 C   0  0  0  0  0  0  0  0  0  0  0  0
   10.3400    6.1726   14.3081 C   0  0  0  0  0  0  0  0  0  0  0  0
    7.4297    7.5873   24.8962 C   0  0  0  0  0  0  0  0  0  0  0  0
    8.1566   10.0536   16.0516 O   0  0  0  0  0  0  0  0  0  0  0  0
   12.4989    6.2074   20.1776 C   0  0  0  0  0  0  0  0  0  0  0  0
    6.9192    9.1053   20.9073 O   0  0  0  0  0  0  0  0  0  0  0  0
   14.3979    6.0729   18.7784 C   0  0  0  0  0  0  0  0  0  0  0  0
    8.6811    9.5354   16.9998 C   0  0  0  0  0  0  0  0  0  0  0  0
    9.2512    4.2713   13.7653 O   0  0  0  0  0  0  0  0  0  0  0  0
    9.6495    8.6317   16.8332 N   0  0  0  0  0  0  0  0  0  0  0  0
    6.2934    8.6988   23.1988 O   0  0  0  0  0  0  0  0  0  0  0  0
    7.9806    8.6543   20.5437 C   0  0  0  0  0  0  0  0  0  0  0  0
   13.7270    5.7144   19.8610 O   0  0  0  0  0  0  0  0  0  0  0  0
    8.3351    5.5235   15.4478 C   0  0  0  0  0  0  0  0  0  0  0  0
    8.7700    7.8434   21.3915 C   0  0  0  0  0  0  0  0  0  0  0  0
   11.7856    6.8851   19.2401 C   0  0  0  0  0  0  0  0  0  0  0  0
   10.5281    7.4276   19.5649 C   0  0  0  0  0  0  0  0  0  0  0  0
   10.0256    7.2907   20.8484 C   0  0  0  0  0  0  0  0  0  0  0  0
    9.3113    5.3049   14.4911 C   0  0  0  0  0  0  0  0  0  0  0  0
    9.4607    7.5646   16.0139 C   0  0  0  0  0  0  0  0  0  0  0  0
   10.4192    7.3157   15.0955 C   0  0  0  0  0  0  0  0  0  0  0  0
   10.2489    6.4227   23.0218 N   0  0  0  0  0  0  0  0  0  0  0  0
    7.2472    8.0746   23.5050 C   0  0  0  0  0  0  0  0  0  0  0  0
    9.2051    6.9101   23.4604 C   0  0  0  0  0  0  0  0  0  0  0  0
   11.9646    6.0299   21.4251 C   0  0  0  0  0  0  0  0  0  0  0  0
  1  5  1  0
  1 13  1  0
  2 20  2  0
  2 28  1  0
  2 29  1  0
  3 19  4  0
  3 25  4  0
  4 23  4  0
  4 27  1  0
  4 30  4  0
  5 17  1  0
  6  8  1  0
  6 29  1  0
  7 24  4  0
  7 26  4  0
  8 28  1  0
  9 13  2  0
 10 18  1  0
 10 21  4  0
 10 30  4  0
 11 17  2  0
 12 18  1  0
 13 15  1  0
 14 24  1  0
 15 25  1  0
 16 28  2  0
 17 20  1  0
 19 24  4  0
 20 23  1  0
 21 22  4  0
 22 23  4  0
 25 26  4  0
 27 29  2  0
M  END
$$$$

 Created by Python create_sdf_string function

 30 33  0  0  0  0  0  0  0  0999 V2000
    8.3036    9.8571   18.4133 C   0  0  0  0  0  0  0  0  0  0  0  0
    8.3694    7.6612   22.6703 C   0  0  0  0  0  0  0  0  0  0  0  0
    8.4143    6.6863   16.2273 C   0  0  0  0  0  0  0  0  0  0  0  0
   10.7581    6.5674   21.7636 C   0  0  0  0  0  0  0  0  0  0  0  0
    8.4452    8.7960   19.2958 O   0  0  0  0  0  0  0  0  0  0  0  0
    8.7122    6.7842   24.8569 C   0  0  0  0  0  0  0  0  0  0  0  0
   10.3400    6.1726   14.3081 C   0  0  0  0  0  0  0  0  0  0  0  0
    7.4297    7.5873   24.8962 C   0  0  0  0  0  0  0  0  0  0  0  0
    8.1566   10.0536   16.0516 O   0  0  0  0  0  0  0  0  0  0  0  0
   12.4989    6.2074   20.1776 C   0  0  0  0  0  0  0  0  0  0  0  0
    6.9192    9.1053   20.9073 O   0  0  0  0  0  0  0  0  0  0  0  0
   14.3979    6.0729   18.7784 C   0  0  0  0  0  0  0  0  0  0  0  0
    8.6811    9.5354   16.9998 C   0  0  0  0  0  0  0  0  0  0  0  0
    9.2512    4.2713   13.7653 O   0  0  0  0  0  0  0  0  0  0  0  0
    9.6495    8.6317   16.8332 N   0  0  0  0  0  0  0  0  0  0  0  0
    6.2934    8.6988   23.1988 O   0  0  0  0  0  0  0  0  0  0  0  0
    7.9806    8.6543   20.5437 C   0  0  0  0  0  0  0  0  0  0  0  0
   13.7270    5.7144   19.8610 O   0  0  0  0  0  0  0  0  0  0  0  0
    8.3351    5.5235   15.4478 C   0  0  0  0  0  0  0  0  0  0  0  0
    8.7700    7.8434   21.3915 C   0  0  0  0  0  0  0  0  0  0  0  0
   11.7856    6.8851   19.2401 C   0  0  0  0  0  0  0  0  0  0  0  0
   10.5281    7.4276   19.5649 C   0  0  0  0  0  0  0  0  0  0  0  0
   10.0256    7.2907   20.8484 C   0  0  0  0  0  0  0  0  0  0  0  0
    9.3113    5.3049   14.4911 C   0  0  0  0  0  0  0  0  0  0  0  0
    9.4607    7.5646   16.0139 C   0  0  0  0  0  0  0  0  0  0  0  0
   10.4192    7.3157   15.0955 C   0  0  0  0  0  0  0  0  0  0  0  0
   10.2489    6.4227   23.0218 N   0  0  0  0  0  0  0  0  0  0  0  0
    7.2472    8.0746   23.5050 C   0  0  0  0  0  0  0  0  0  0  0  0
    9.2051    6.9101   23.4604 C   0  0  0  0  0  0  0  0  0  0  0  0
   11.9646    6.0299   21.4251 C   0  0  0  0  0  0  0  0  0  0  0  0
  1  5  1  0
  1 13  1  0
  2 20  2  0
  2 28  1  0
  2 29  1  0
  3 19  4  0
  3 25  4  0
  4 23  4  0
  4 27  1  0
  4 30  4  0
  5 17  1  0
  6  8  1  0
  6 29  1  0
  7 24  4  0
  7 26  4  0
  8 28  1  0
  9 13  2  0
 10 18  1  0
 10 21  4  0
 10 30  4  0
 11 17  2  0
 12 18  1  0
 13 15  1  0
 14 24  1  0
 15 25  1  0
 16 28  2  0
 17 20  1  0
 19 24  4  0
 20 23  1  0
 21 22  4  0
 22 23  4  0
 25 26  4  0
 27 29  2  0
M  END
$$$$

 Created by Python create_sdf_string function

 30 33  0  0  0  0  0  0  0  0999 V2000
    8.3036    9.8571   18.4133 C   0  0  0  0  0  0  0  0  0  0  0  0
    8.3694    7.6612   22.6703 C   0  0  0  0  0  0  0  0  0  0  0  0
    8.4143    6.6863   16.2273 C   0  0  0  0  0  0  0  0  0  0  0  0
   10.7581    6.5674   21.7636 C   0  0  0  0  0  0  0  0  0  0  0  0
    8.4452    8.7960   19.2958 O   0  0  0  0  0  0  0  0  0  0  0  0
    8.7122    6.7842   24.8569 C   0  0  0  0  0  0  0  0  0  0  0  0
   10.3400    6.1726   14.3081 C   0  0  0  0  0  0  0  0  0  0  0  0
    7.4297    7.5873   24.8962 C   0  0  0  0  0  0  0  0  0  0  0  0
    8.1566   10.0536   16.0516 O   0  0  0  0  0  0  0  0  0  0  0  0
   12.4989    6.2074   20.1776 C   0  0  0  0  0  0  0  0  0  0  0  0
    6.9192    9.1053   20.9073 O   0  0  0  0  0  0  0  0  0  0  0  0
   14.3979    6.0729   18.7784 C   0  0  0  0  0  0  0  0  0  0  0  0
    8.6811    9.5354   16.9998 C   0  0  0  0  0  0  0  0  0  0  0  0
    9.2512    4.2713   13.7653 O   0  0  0  0  0  0  0  0  0  0  0  0
    9.6495    8.6317   16.8332 N   0  0  0  0  0  0  0  0  0  0  0  0
    6.2934    8.6988   23.1988 O   0  0  0  0  0  0  0  0  0  0  0  0
    7.9806    8.6543   20.5437 C   0  0  0  0  0  0  0  0  0  0  0  0
   13.7270    5.7144   19.8610 O   0  0  0  0  0  0  0  0  0  0  0  0
    8.3351    5.5235   15.4478 C   0  0  0  0  0  0  0  0  0  0  0  0
    8.7700    7.8434   21.3915 C   0  0  0  0  0  0  0  0  0  0  0  0
   11.7856    6.8851   19.2401 C   0  0  0  0  0  0  0  0  0  0  0  0
   10.5281    7.4276   19.5649 C   0  0  0  0  0  0  0  0  0  0  0  0
   10.0256    7.2907   20.8484 C   0  0  0  0  0  0  0  0  0  0  0  0
    9.3113    5.3049   14.4911 C   0  0  0  0  0  0  0  0  0  0  0  0
    9.4607    7.5646   16.0139 C   0  0  0  0  0  0  0  0  0  0  0  0
   10.4192    7.3157   15.0955 C   0  0  0  0  0  0  0  0  0  0  0  0
   10.2489    6.4227   23.0218 N   0  0  0  0  0  0  0  0  0  0  0  0
    7.2472    8.0746   23.5050 C   0  0  0  0  0  0  0  0  0  0  0  0
    9.2051    6.9101   23.4604 C   0  0  0  0  0  0  0  0  0  0  0  0
   11.9646    6.0299   21.4251 C   0  0  0  0  0  0  0  0  0  0  0  0
  1  5  1  0
  1 13  1  0
  2 20  2  0
  2 28  1  0
  2 29  1  0
  3 19  4  0
  3 25  4  0
  4 23  4  0
  4 27  1  0
  4 30  4  0
  5 17  1  0
  6  8  1  0
  6 29  1  0
  7 24  4  0
  7 26  4  0
  8 28  1  0
  9 13  2  0
 10 18  1  0
 10 21  4  0
 10 30  4  0
 11 17  2  0
 12 18  1  0
 13 15  1  0
 14 24  1  0
 15 25  1  0
 16 28  2  0
 17 20  1  0
 19 24  4  0
 20 23  1  0
 21 22  4  0
 22 23  4  0
 25 26  4  0
 27 29  2  0
M  END
$$$$

 Created by Python create_sdf_string function

 30 33  0  0  0  0  0  0  0  0999 V2000
    8.3036    9.8571   18.4133 C   0  0  0  0  0  0  0  0  0  0  0  0
    8.3694    7.6612   22.6703 C   0  0  0  0  0  0  0  0  0  0  0  0
    8.4143    6.6863   16.2273 C   0  0  0  0  0  0  0  0  0  0  0  0
   10.7581    6.5674   21.7636 C   0  0  0  0  0  0  0  0  0  0  0  0
    8.4452    8.7960   19.2958 O   0  0  0  0  0  0  0  0  0  0  0  0
    8.7122    6.7842   24.8569 C   0  0  0  0  0  0  0  0  0  0  0  0
   10.3400    6.1726   14.3081 C   0  0  0  0  0  0  0  0  0  0  0  0
    7.4297    7.5873   24.8962 C   0  0  0  0  0  0  0  0  0  0  0  0
    8.1566   10.0536   16.0516 O   0  0  0  0  0  0  0  0  0  0  0  0
   12.4989    6.2074   20.1776 C   0  0  0  0  0  0  0  0  0  0  0  0
    6.9192    9.1053   20.9073 O   0  0  0  0  0  0  0  0  0  0  0  0
   14.3979    6.0729   18.7784 C   0  0  0  0  0  0  0  0  0  0  0  0
    8.6811    9.5354   16.9998 C   0  0  0  0  0  0  0  0  0  0  0  0
    9.2512    4.2713   13.7653 O   0  0  0  0  0  0  0  0  0  0  0  0
    9.6495    8.6317   16.8332 N   0  0  0  0  0  0  0  0  0  0  0  0
    6.2934    8.6988   23.1988 O   0  0  0  0  0  0  0  0  0  0  0  0
    7.9806    8.6543   20.5437 C   0  0  0  0  0  0  0  0  0  0  0  0
   13.7270    5.7144   19.8610 O   0  0  0  0  0  0  0  0  0  0  0  0
    8.3351    5.5235   15.4478 C   0  0  0  0  0  0  0  0  0  0  0  0
    8.7700    7.8434   21.3915 C   0  0  0  0  0  0  0  0  0  0  0  0
   11.7856    6.8851   19.2401 C   0  0  0  0  0  0  0  0  0  0  0  0
   10.5281    7.4276   19.5649 C   0  0  0  0  0  0  0  0  0  0  0  0
   10.0256    7.2907   20.8484 C   0  0  0  0  0  0  0  0  0  0  0  0
    9.3113    5.3049   14.4911 C   0  0  0  0  0  0  0  0  0  0  0  0
    9.4607    7.5646   16.0139 C   0  0  0  0  0  0  0  0  0  0  0  0
   10.4192    7.3157   15.0955 C   0  0  0  0  0  0  0  0  0  0  0  0
   10.2489    6.4227   23.0218 N   0  0  0  0  0  0  0  0  0  0  0  0
    7.2472    8.0746   23.5050 C   0  0  0  0  0  0  0  0  0  0  0  0
    9.2051    6.9101   23.4604 C   0  0  0  0  0  0  0  0  0  0  0  0
   11.9646    6.0299   21.4251 C   0  0  0  0  0  0  0  0  0  0  0  0
  1  5  1  0
  1 13  1  0
  2 20  2  0
  2 28  1  0
  2 29  1  0
  3 19  4  0
  3 25  4  0
  4 23  4  0
  4 27  1  0
  4 30  4  0
  5 17  1  0
  6  8  1  0
  6 29  1  0
  7 24  4  0
  7 26  4  0
  8 28  1  0
  9 13  2  0
 10 18  1  0
 10 21  4  0
 10 30  4  0
 11 17  2  0
 12 18  1  0
 13 15  1  0
 14 24  1  0
 15 25  1  0
 16 28  2  0
 17 20  1  0
 19 24  4  0
 20 23  1  0
 21 22  4  0
 22 23  4  0
 25 26  4  0
 27 29  2  0
M  END
$$$$

 Created by Python create_sdf_string function

 30 33  0  0  0  0  0  0  0  0999 V2000
    8.3036    9.8571   18.4133 C   0  0  0  0  0  0  0  0  0  0  0  0
    8.3694    7.6612   22.6703 C   0  0  0  0  0  0  0  0  0  0  0  0
    8.4143    6.6863   16.2273 C   0  0  0  0  0  0  0  0  0  0  0  0
   10.7581    6.5674   21.7636 C   0  0  0  0  0  0  0  0  0  0  0  0
    8.4452    8.7960   19.2958 O   0  0  0  0  0  0  0  0  0  0  0  0
    8.7122    6.7842   24.8569 C   0  0  0  0  0  0  0  0  0  0  0  0
   10.3400    6.1726   14.3081 C   0  0  0  0  0  0  0  0  0  0  0  0
    7.4297    7.5873   24.8962 C   0  0  0  0  0  0  0  0  0  0  0  0
    8.1566   10.0536   16.0516 O   0  0  0  0  0  0  0  0  0  0  0  0
   12.4989    6.2074   20.1776 C   0  0  0  0  0  0  0  0  0  0  0  0
    6.9192    9.1053   20.9073 O   0  0  0  0  0  0  0  0  0  0  0  0
   14.3979    6.0729   18.7784 C   0  0  0  0  0  0  0  0  0  0  0  0
    8.6811    9.5354   16.9998 C   0  0  0  0  0  0  0  0  0  0  0  0
    9.2512    4.2713   13.7653 O   0  0  0  0  0  0  0  0  0  0  0  0
    9.6495    8.6317   16.8332 N   0  0  0  0  0  0  0  0  0  0  0  0
    6.2934    8.6988   23.1988 O   0  0  0  0  0  0  0  0  0  0  0  0
    7.9806    8.6543   20.5437 C   0  0  0  0  0  0  0  0  0  0  0  0
   13.7270    5.7144   19.8610 O   0  0  0  0  0  0  0  0  0  0  0  0
    8.3351    5.5235   15.4478 C   0  0  0  0  0  0  0  0  0  0  0  0
    8.7700    7.8434   21.3915 C   0  0  0  0  0  0  0  0  0  0  0  0
   11.7856    6.8851   19.2401 C   0  0  0  0  0  0  0  0  0  0  0  0
   10.5281    7.4276   19.5649 C   0  0  0  0  0  0  0  0  0  0  0  0
   10.0256    7.2907   20.8484 C   0  0  0  0  0  0  0  0  0  0  0  0
    9.3113    5.3049   14.4911 C   0  0  0  0  0  0  0  0  0  0  0  0
    9.4607    7.5646   16.0139 C   0  0  0  0  0  0  0  0  0  0  0  0
   10.4192    7.3157   15.0955 C   0  0  0  0  0  0  0  0  0  0  0  0
   10.2489    6.4227   23.0218 N   0  0  0  0  0  0  0  0  0  0  0  0
    7.2472    8.0746   23.5050 C   0  0  0  0  0  0  0  0  0  0  0  0
    9.2051    6.9101   23.4604 C   0  0  0  0  0  0  0  0  0  0  0  0
   11.9646    6.0299   21.4251 C   0  0  0  0  0  0  0  0  0  0  0  0
  1  5  1  0
  1 13  1  0
  2 20  2  0
  2 28  1  0
  2 29  1  0
  3 19  4  0
  3 25  4  0
  4 23  4  0
  4 27  1  0
  4 30  4  0
  5 17  1  0
  6  8  1  0
  6 29  1  0
  7 24  4  0
  7 26  4  0
  8 28  1  0
  9 13  2  0
 10 18  1  0
 10 21  4  0
 10 30  4  0
 11 17  2  0
 12 18  1  0
 13 15  1  0
 14 24  1  0
 15 25  1  0
 16 28  2  0
 17 20  1  0
 19 24  4  0
 20 23  1  0
 21 22  4  0
 22 23  4  0
 25 26  4  0
 27 29  2  0
M  END
$$$$

 Created by Python create_sdf_string function

 30 33  0  0  0  0  0  0  0  0999 V2000
    8.3036    9.8571   18.4133 C   0  0  0  0  0  0  0  0  0  0  0  0
    8.3694    7.6612   22.6703 C   0  0  0  0  0  0  0  0  0  0  0  0
    8.4143    6.6863   16.2273 C   0  0  0  0  0  0  0  0  0  0  0  0
   10.7581    6.5674   21.7636 C   0  0  0  0  0  0  0  0  0  0  0  0
    8.4452    8.7960   19.2958 O   0  0  0  0  0  0  0  0  0  0  0  0
    8.7122    6.7842   24.8569 C   0  0  0  0  0  0  0  0  0  0  0  0
   10.3400    6.1726   14.3081 C   0  0  0  0  0  0  0  0  0  0  0  0
    7.4297    7.5873   24.8962 C   0  0  0  0  0  0  0  0  0  0  0  0
    8.1566   10.0536   16.0516 O   0  0  0  0  0  0  0  0  0  0  0  0
   12.4989    6.2074   20.1776 C   0  0  0  0  0  0  0  0  0  0  0  0
    6.9192    9.1053   20.9073 O   0  0  0  0  0  0  0  0  0  0  0  0
   14.3979    6.0729   18.7784 C   0  0  0  0  0  0  0  0  0  0  0  0
    8.6811    9.5354   16.9998 C   0  0  0  0  0  0  0  0  0  0  0  0
    9.2512    4.2713   13.7653 O   0  0  0  0  0  0  0  0  0  0  0  0
    9.6495    8.6317   16.8332 N   0  0  0  0  0  0  0  0  0  0  0  0
    6.2934    8.6988   23.1988 O   0  0  0  0  0  0  0  0  0  0  0  0
    7.9806    8.6543   20.5437 C   0  0  0  0  0  0  0  0  0  0  0  0
   13.7270    5.7144   19.8610 O   0  0  0  0  0  0  0  0  0  0  0  0
    8.3351    5.5235   15.4478 C   0  0  0  0  0  0  0  0  0  0  0  0
    8.7700    7.8434   21.3915 C   0  0  0  0  0  0  0  0  0  0  0  0
   11.7856    6.8851   19.2401 C   0  0  0  0  0  0  0  0  0  0  0  0
   10.5281    7.4276   19.5649 C   0  0  0  0  0  0  0  0  0  0  0  0
   10.0256    7.2907   20.8484 C   0  0  0  0  0  0  0  0  0  0  0  0
    9.3113    5.3049   14.4911 C   0  0  0  0  0  0  0  0  0  0  0  0
    9.4607    7.5646   16.0139 C   0  0  0  0  0  0  0  0  0  0  0  0
   10.4192    7.3157   15.0955 C   0  0  0  0  0  0  0  0  0  0  0  0
   10.2489    6.4227   23.0218 N   0  0  0  0  0  0  0  0  0  0  0  0
    7.2472    8.0746   23.5050 C   0  0  0  0  0  0  0  0  0  0  0  0
    9.2051    6.9101   23.4604 C   0  0  0  0  0  0  0  0  0  0  0  0
   11.9646    6.0299   21.4251 C   0  0  0  0  0  0  0  0  0  0  0  0
  1  5  1  0
  1 13  1  0
  2 20  2  0
  2 28  1  0
  2 29  1  0
  3 19  4  0
  3 25  4  0
  4 23  4  0
  4 27  1  0
  4 30  4  0
  5 17  1  0
  6  8  1  0
  6 29  1  0
  7 24  4  0
  7 26  4  0
  8 28  1  0
  9 13  2  0
 10 18  1  0
 10 21  4  0
 10 30  4  0
 11 17  2  0
 12 18  1  0
 13 15  1  0
 14 24  1  0
 15 25  1  0
 16 28  2  0
 17 20  1  0
 19 24  4  0
 20 23  1  0
 21 22  4  0
 22 23  4  0
 25 26  4  0
 27 29  2  0
M  END
$$$$

 Created by Python create_sdf_string function

 30 33  0  0  0  0  0  0  0  0999 V2000
    8.3036    9.8571   18.4133 C   0  0  0  0  0  0  0  0  0  0  0  0
    8.3694    7.6612   22.6703 C   0  0  0  0  0  0  0  0  0  0  0  0
    8.4143    6.6863   16.2273 C   0  0  0  0  0  0  0  0  0  0  0  0
   10.7581    6.5674   21.7636 C   0  0  0  0  0  0  0  0  0  0  0  0
    8.4452    8.7960   19.2958 O   0  0  0  0  0  0  0  0  0  0  0  0
    8.7122    6.7842   24.8569 C   0  0  0  0  0  0  0  0  0  0  0  0
   10.3400    6.1726   14.3081 C   0  0  0  0  0  0  0  0  0  0  0  0
    7.4297    7.5873   24.8962 C   0  0  0  0  0  0  0  0  0  0  0  0
    8.1566   10.0536   16.0516 O   0  0  0  0  0  0  0  0  0  0  0  0
   12.4989    6.2074   20.1776 C   0  0  0  0  0  0  0  0  0  0  0  0
    6.9192    9.1053   20.9073 O   0  0  0  0  0  0  0  0  0  0  0  0
   14.3979    6.0729   18.7784 C   0  0  0  0  0  0  0  0  0  0  0  0
    8.6811    9.5354   16.9998 C   0  0  0  0  0  0  0  0  0  0  0  0
    9.2512    4.2713   13.7653 O   0  0  0  0  0  0  0  0  0  0  0  0
    9.6495    8.6317   16.8332 N   0  0  0  0  0  0  0  0  0  0  0  0
    6.2934    8.6988   23.1988 O   0  0  0  0  0  0  0  0  0  0  0  0
    7.9806    8.6543   20.5437 C   0  0  0  0  0  0  0  0  0  0  0  0
   13.7270    5.7144   19.8610 O   0  0  0  0  0  0  0  0  0  0  0  0
    8.3351    5.5235   15.4478 C   0  0  0  0  0  0  0  0  0  0  0  0
    8.7700    7.8434   21.3915 C   0  0  0  0  0  0  0  0  0  0  0  0
   11.7856    6.8851   19.2401 C   0  0  0  0  0  0  0  0  0  0  0  0
   10.5281    7.4276   19.5649 C   0  0  0  0  0  0  0  0  0  0  0  0
   10.0256    7.2907   20.8484 C   0  0  0  0  0  0  0  0  0  0  0  0
    9.3113    5.3049   14.4911 C   0  0  0  0  0  0  0  0  0  0  0  0
    9.4607    7.5646   16.0139 C   0  0  0  0  0  0  0  0  0  0  0  0
   10.4192    7.3157   15.0955 C   0  0  0  0  0  0  0  0  0  0  0  0
   10.2489    6.4227   23.0218 N   0  0  0  0  0  0  0  0  0  0  0  0
    7.2472    8.0746   23.5050 C   0  0  0  0  0  0  0  0  0  0  0  0
    9.2051    6.9101   23.4604 C   0  0  0  0  0  0  0  0  0  0  0  0
   11.9646    6.0299   21.4251 C   0  0  0  0  0  0  0  0  0  0  0  0
  1  5  1  0
  1 13  1  0
  2 20  2  0
  2 28  1  0
  2 29  1  0
  3 19  4  0
  3 25  4  0
  4 23  4  0
  4 27  1  0
  4 30  4  0
  5 17  1  0
  6  8  1  0
  6 29  1  0
  7 24  4  0
  7 26  4  0
  8 28  1  0
  9 13  2  0
 10 18  1  0
 10 21  4  0
 10 30  4  0
 11 17  2  0
 12 18  1  0
 13 15  1  0
 14 24  1  0
 15 25  1  0
 16 28  2  0
 17 20  1  0
 19 24  4  0
 20 23  1  0
 21 22  4  0
 22 23  4  0
 25 26  4  0
 27 29  2  0
M  END
$$$$

 Created by Python create_sdf_string function

 30 33  0  0  0  0  0  0  0  0999 V2000
    8.3036    9.8571   18.4133 C   0  0  0  0  0  0  0  0  0  0  0  0
    8.3694    7.6612   22.6703 C   0  0  0  0  0  0  0  0  0  0  0  0
    8.4143    6.6863   16.2273 C   0  0  0  0  0  0  0  0  0  0  0  0
   10.7581    6.5674   21.7636 C   0  0  0  0  0  0  0  0  0  0  0  0
    8.4452    8.7960   19.2958 O   0  0  0  0  0  0  0  0  0  0  0  0
    8.7122    6.7842   24.8569 C   0  0  0  0  0  0  0  0  0  0  0  0
   10.3400    6.1726   14.3081 C   0  0  0  0  0  0  0  0  0  0  0  0
    7.4297    7.5873   24.8962 C   0  0  0  0  0  0  0  0  0  0  0  0
    8.1566   10.0536   16.0516 O   0  0  0  0  0  0  0  0  0  0  0  0
   12.4989    6.2074   20.1776 C   0  0  0  0  0  0  0  0  0  0  0  0
    6.9192    9.1053   20.9073 O   0  0  0  0  0  0  0  0  0  0  0  0
   14.3979    6.0729   18.7784 C   0  0  0  0  0  0  0  0  0  0  0  0
    8.6811    9.5354   16.9998 C   0  0  0  0  0  0  0  0  0  0  0  0
    9.2512    4.2713   13.7653 O   0  0  0  0  0  0  0  0  0  0  0  0
    9.6495    8.6317   16.8332 N   0  0  0  0  0  0  0  0  0  0  0  0
    6.2934    8.6988   23.1988 O   0  0  0  0  0  0  0  0  0  0  0  0
    7.9806    8.6543   20.5437 C   0  0  0  0  0  0  0  0  0  0  0  0
   13.7270    5.7144   19.8610 O   0  0  0  0  0  0  0  0  0  0  0  0
    8.3351    5.5235   15.4478 C   0  0  0  0  0  0  0  0  0  0  0  0
    8.7700    7.8434   21.3915 C   0  0  0  0  0  0  0  0  0  0  0  0
   11.7856    6.8851   19.2401 C   0  0  0  0  0  0  0  0  0  0  0  0
   10.5281    7.4276   19.5649 C   0  0  0  0  0  0  0  0  0  0  0  0
   10.0256    7.2907   20.8484 C   0  0  0  0  0  0  0  0  0  0  0  0
    9.3113    5.3049   14.4911 C   0  0  0  0  0  0  0  0  0  0  0  0
    9.4607    7.5646   16.0139 C   0  0  0  0  0  0  0  0  0  0  0  0
   10.4192    7.3157   15.0955 C   0  0  0  0  0  0  0  0  0  0  0  0
   10.2489    6.4227   23.0218 N   0  0  0  0  0  0  0  0  0  0  0  0
    7.2472    8.0746   23.5050 C   0  0  0  0  0  0  0  0  0  0  0  0
    9.2051    6.9101   23.4604 C   0  0  0  0  0  0  0  0  0  0  0  0
   11.9646    6.0299   21.4251 C   0  0  0  0  0  0  0  0  0  0  0  0
  1  5  1  0
  1 13  1  0
  2 20  2  0
  2 28  1  0
  2 29  1  0
  3 19  4  0
  3 25  4  0
  4 23  4  0
  4 27  1  0
  4 30  4  0
  5 17  1  0
  6  8  1  0
  6 29  1  0
  7 24  4  0
  7 26  4  0
  8 28  1  0
  9 13  2  0
 10 18  1  0
 10 21  4  0
 10 30  4  0
 11 17  2  0
 12 18  1  0
 13 15  1  0
 14 24  1  0
 15 25  1  0
 16 28  2  0
 17 20  1  0
 19 24  4  0
 20 23  1  0
 21 22  4  0
 22 23  4  0
 25 26  4  0
 27 29  2  0
M  END
$$$$

 Created by Python create_sdf_string function

 30 33  0  0  0  0  0  0  0  0999 V2000
    8.3036    9.8571   18.4133 C   0  0  0  0  0  0  0  0  0  0  0  0
    8.3694    7.6612   22.6703 C   0  0  0  0  0  0  0  0  0  0  0  0
    8.4143    6.6863   16.2273 C   0  0  0  0  0  0  0  0  0  0  0  0
   10.7581    6.5674   21.7636 C   0  0  0  0  0  0  0  0  0  0  0  0
    8.4452    8.7960   19.2958 O   0  0  0  0  0  0  0  0  0  0  0  0
    8.7122    6.7842   24.8569 C   0  0  0  0  0  0  0  0  0  0  0  0
   10.3400    6.1726   14.3081 C   0  0  0  0  0  0  0  0  0  0  0  0
    7.4297    7.5873   24.8962 C   0  0  0  0  0  0  0  0  0  0  0  0
    8.1566   10.0536   16.0516 O   0  0  0  0  0  0  0  0  0  0  0  0
   12.4989    6.2074   20.1776 C   0  0  0  0  0  0  0  0  0  0  0  0
    6.9192    9.1053   20.9073 O   0  0  0  0  0  0  0  0  0  0  0  0
   14.3979    6.0729   18.7784 C   0  0  0  0  0  0  0  0  0  0  0  0
    8.6811    9.5354   16.9998 C   0  0  0  0  0  0  0  0  0  0  0  0
    9.2512    4.2713   13.7653 O   0  0  0  0  0  0  0  0  0  0  0  0
    9.6495    8.6317   16.8332 N   0  0  0  0  0  0  0  0  0  0  0  0
    6.2934    8.6988   23.1988 O   0  0  0  0  0  0  0  0  0  0  0  0
    7.9806    8.6543   20.5437 C   0  0  0  0  0  0  0  0  0  0  0  0
   13.7270    5.7144   19.8610 O   0  0  0  0  0  0  0  0  0  0  0  0
    8.3351    5.5235   15.4478 C   0  0  0  0  0  0  0  0  0  0  0  0
    8.7700    7.8434   21.3915 C   0  0  0  0  0  0  0  0  0  0  0  0
   11.7856    6.8851   19.2401 C   0  0  0  0  0  0  0  0  0  0  0  0
   10.5281    7.4276   19.5649 C   0  0  0  0  0  0  0  0  0  0  0  0
   10.0256    7.2907   20.8484 C   0  0  0  0  0  0  0  0  0  0  0  0
    9.3113    5.3049   14.4911 C   0  0  0  0  0  0  0  0  0  0  0  0
    9.4607    7.5646   16.0139 C   0  0  0  0  0  0  0  0  0  0  0  0
   10.4192    7.3157   15.0955 C   0  0  0  0  0  0  0  0  0  0  0  0
   10.2489    6.4227   23.0218 N   0  0  0  0  0  0  0  0  0  0  0  0
    7.2472    8.0746   23.5050 C   0  0  0  0  0  0  0  0  0  0  0  0
    9.2051    6.9101   23.4604 C   0  0  0  0  0  0  0  0  0  0  0  0
   11.9646    6.0299   21.4251 C   0  0  0  0  0  0  0  0  0  0  0  0
  1  5  1  0
  1 13  1  0
  2 20  2  0
  2 28  1  0
  2 29  1  0
  3 19  4  0
  3 25  4  0
  4 23  4  0
  4 27  1  0
  4 30  4  0
  5 17  1  0
  6  8  1  0
  6 29  1  0
  7 24  4  0
  7 26  4  0
  8 28  1  0
  9 13  2  0
 10 18  1  0
 10 21  4  0
 10 30  4  0
 11 17  2  0
 12 18  1  0
 13 15  1  0
 14 24  1  0
 15 25  1  0
 16 28  2  0
 17 20  1  0
 19 24  4  0
 20 23  1  0
 21 22  4  0
 22 23  4  0
 25 26  4  0
 27 29  2  0
M  END
$$$$

 Created by Python create_sdf_string function

 30 33  0  0  0  0  0  0  0  0999 V2000
    8.3036    9.8571   18.4133 C   0  0  0  0  0  0  0  0  0  0  0  0
    8.3694    7.6612   22.6703 C   0  0  0  0  0  0  0  0  0  0  0  0
    8.4143    6.6863   16.2273 C   0  0  0  0  0  0  0  0  0  0  0  0
   10.7581    6.5674   21.7636 C   0  0  0  0  0  0  0  0  0  0  0  0
    8.4452    8.7960   19.2958 O   0  0  0  0  0  0  0  0  0  0  0  0
    8.7122    6.7842   24.8569 C   0  0  0  0  0  0  0  0  0  0  0  0
   10.3400    6.1726   14.3081 C   0  0  0  0  0  0  0  0  0  0  0  0
    7.4297    7.5873   24.8962 C   0  0  0  0  0  0  0  0  0  0  0  0
    8.1566   10.0536   16.0516 O   0  0  0  0  0  0  0  0  0  0  0  0
   12.4989    6.2074   20.1776 C   0  0  0  0  0  0  0  0  0  0  0  0
    6.9192    9.1053   20.9073 O   0  0  0  0  0  0  0  0  0  0  0  0
   14.3979    6.0729   18.7784 C   0  0  0  0  0  0  0  0  0  0  0  0
    8.6811    9.5354   16.9998 C   0  0  0  0  0  0  0  0  0  0  0  0
    9.2512    4.2713   13.7653 O   0  0  0  0  0  0  0  0  0  0  0  0
    9.6495    8.6317   16.8332 N   0  0  0  0  0  0  0  0  0  0  0  0
    6.2934    8.6988   23.1988 O   0  0  0  0  0  0  0  0  0  0  0  0
    7.9806    8.6543   20.5437 C   0  0  0  0  0  0  0  0  0  0  0  0
   13.7270    5.7144   19.8610 O   0  0  0  0  0  0  0  0  0  0  0  0
    8.3351    5.5235   15.4478 C   0  0  0  0  0  0  0  0  0  0  0  0
    8.7700    7.8434   21.3915 C   0  0  0  0  0  0  0  0  0  0  0  0
   11.7856    6.8851   19.2401 C   0  0  0  0  0  0  0  0  0  0  0  0
   10.5281    7.4276   19.5649 C   0  0  0  0  0  0  0  0  0  0  0  0
   10.0256    7.2907   20.8484 C   0  0  0  0  0  0  0  0  0  0  0  0
    9.3113    5.3049   14.4911 C   0  0  0  0  0  0  0  0  0  0  0  0
    9.4607    7.5646   16.0139 C   0  0  0  0  0  0  0  0  0  0  0  0
   10.4192    7.3157   15.0955 C   0  0  0  0  0  0  0  0  0  0  0  0
   10.2489    6.4227   23.0218 N   0  0  0  0  0  0  0  0  0  0  0  0
    7.2472    8.0746   23.5050 C   0  0  0  0  0  0  0  0  0  0  0  0
    9.2051    6.9101   23.4604 C   0  0  0  0  0  0  0  0  0  0  0  0
   11.9646    6.0299   21.4251 C   0  0  0  0  0  0  0  0  0  0  0  0
  1  5  1  0
  1 13  1  0
  2 20  2  0
  2 28  1  0
  2 29  1  0
  3 19  4  0
  3 25  4  0
  4 23  4  0
  4 27  1  0
  4 30  4  0
  5 17  1  0
  6  8  1  0
  6 29  1  0
  7 24  4  0
  7 26  4  0
  8 28  1  0
  9 13  2  0
 10 18  1  0
 10 21  4  0
 10 30  4  0
 11 17  2  0
 12 18  1  0
 13 15  1  0
 14 24  1  0
 15 25  1  0
 16 28  2  0
 17 20  1  0
 19 24  4  0
 20 23  1  0
 21 22  4  0
 22 23  4  0
 25 26  4  0
 27 29  2  0
M  END
$$$$

 Created by Python create_sdf_string function

 30 33  0  0  0  0  0  0  0  0999 V2000
    8.3036    9.8571   18.4133 C   0  0  0  0  0  0  0  0  0  0  0  0
    8.3694    7.6612   22.6703 C   0  0  0  0  0  0  0  0  0  0  0  0
    8.4143    6.6863   16.2273 C   0  0  0  0  0  0  0  0  0  0  0  0
   10.7581    6.5674   21.7636 C   0  0  0  0  0  0  0  0  0  0  0  0
    8.4452    8.7960   19.2958 O   0  0  0  0  0  0  0  0  0  0  0  0
    8.7122    6.7842   24.8569 C   0  0  0  0  0  0  0  0  0  0  0  0
   10.3400    6.1726   14.3081 C   0  0  0  0  0  0  0  0  0  0  0  0
    7.4297    7.5873   24.8962 C   0  0  0  0  0  0  0  0  0  0  0  0
    8.1566   10.0536   16.0516 O   0  0  0  0  0  0  0  0  0  0  0  0
   12.4989    6.2074   20.1776 C   0  0  0  0  0  0  0  0  0  0  0  0
    6.9192    9.1053   20.9073 O   0  0  0  0  0  0  0  0  0  0  0  0
   14.3979    6.0729   18.7784 C   0  0  0  0  0  0  0  0  0  0  0  0
    8.6811    9.5354   16.9998 C   0  0  0  0  0  0  0  0  0  0  0  0
    9.2512    4.2713   13.7653 O   0  0  0  0  0  0  0  0  0  0  0  0
    9.6495    8.6317   16.8332 N   0  0  0  0  0  0  0  0  0  0  0  0
    6.2934    8.6988   23.1988 O   0  0  0  0  0  0  0  0  0  0  0  0
    7.9806    8.6543   20.5437 C   0  0  0  0  0  0  0  0  0  0  0  0
   13.7270    5.7144   19.8610 O   0  0  0  0  0  0  0  0  0  0  0  0
    8.3351    5.5235   15.4478 C   0  0  0  0  0  0  0  0  0  0  0  0
    8.7700    7.8434   21.3915 C   0  0  0  0  0  0  0  0  0  0  0  0
   11.7856    6.8851   19.2401 C   0  0  0  0  0  0  0  0  0  0  0  0
   10.5281    7.4276   19.5649 C   0  0  0  0  0  0  0  0  0  0  0  0
   10.0256    7.2907   20.8484 C   0  0  0  0  0  0  0  0  0  0  0  0
    9.3113    5.3049   14.4911 C   0  0  0  0  0  0  0  0  0  0  0  0
    9.4607    7.5646   16.0139 C   0  0  0  0  0  0  0  0  0  0  0  0
   10.4192    7.3157   15.0955 C   0  0  0  0  0  0  0  0  0  0  0  0
   10.2489    6.4227   23.0218 N   0  0  0  0  0  0  0  0  0  0  0  0
    7.2472    8.0746   23.5050 C   0  0  0  0  0  0  0  0  0  0  0  0
    9.2051    6.9101   23.4604 C   0  0  0  0  0  0  0  0  0  0  0  0
   11.9646    6.0299   21.4251 C   0  0  0  0  0  0  0  0  0  0  0  0
  1  5  1  0
  1 13  1  0
  2 20  2  0
  2 28  1  0
  2 29  1  0
  3 19  4  0
  3 25  4  0
  4 23  4  0
  4 27  1  0
  4 30  4  0
  5 17  1  0
  6  8  1  0
  6 29  1  0
  7 24  4  0
  7 26  4  0
  8 28  1  0
  9 13  2  0
 10 18  1  0
 10 21  4  0
 10 30  4  0
 11 17  2  0
 12 18  1  0
 13 15  1  0
 14 24  1  0
 15 25  1  0
 16 28  2  0
 17 20  1  0
 19 24  4  0
 20 23  1  0
 21 22  4  0
 22 23  4  0
 25 26  4  0
 27 29  2  0
M  END
$$$$

 Created by Python create_sdf_string function

 30 33  0  0  0  0  0  0  0  0999 V2000
    8.3036    9.8571   18.4133 C   0  0  0  0  0  0  0  0  0  0  0  0
    8.3694    7.6612   22.6703 C   0  0  0  0  0  0  0  0  0  0  0  0
    8.4143    6.6863   16.2273 C   0  0  0  0  0  0  0  0  0  0  0  0
   10.7581    6.5674   21.7636 C   0  0  0  0  0  0  0  0  0  0  0  0
    8.4452    8.7960   19.2958 O   0  0  0  0  0  0  0  0  0  0  0  0
    8.7122    6.7842   24.8569 C   0  0  0  0  0  0  0  0  0  0  0  0
   10.3400    6.1726   14.3081 C   0  0  0  0  0  0  0  0  0  0  0  0
    7.4297    7.5873   24.8962 C   0  0  0  0  0  0  0  0  0  0  0  0
    8.1566   10.0536   16.0516 O   0  0  0  0  0  0  0  0  0  0  0  0
   12.4989    6.2074   20.1776 C   0  0  0  0  0  0  0  0  0  0  0  0
    6.9192    9.1053   20.9073 O   0  0  0  0  0  0  0  0  0  0  0  0
   14.3979    6.0729   18.7784 C   0  0  0  0  0  0  0  0  0  0  0  0
    8.6811    9.5354   16.9998 C   0  0  0  0  0  0  0  0  0  0  0  0
    9.2512    4.2713   13.7653 O   0  0  0  0  0  0  0  0  0  0  0  0
    9.6495    8.6317   16.8332 N   0  0  0  0  0  0  0  0  0  0  0  0
    6.2934    8.6988   23.1988 O   0  0  0  0  0  0  0  0  0  0  0  0
    7.9806    8.6543   20.5437 C   0  0  0  0  0  0  0  0  0  0  0  0
   13.7270    5.7144   19.8610 O   0  0  0  0  0  0  0  0  0  0  0  0
    8.3351    5.5235   15.4478 C   0  0  0  0  0  0  0  0  0  0  0  0
    8.7700    7.8434   21.3915 C   0  0  0  0  0  0  0  0  0  0  0  0
   11.7856    6.8851   19.2401 C   0  0  0  0  0  0  0  0  0  0  0  0
   10.5281    7.4276   19.5649 C   0  0  0  0  0  0  0  0  0  0  0  0
   10.0256    7.2907   20.8484 C   0  0  0  0  0  0  0  0  0  0  0  0
    9.3113    5.3049   14.4911 C   0  0  0  0  0  0  0  0  0  0  0  0
    9.4607    7.5646   16.0139 C   0  0  0  0  0  0  0  0  0  0  0  0
   10.4192    7.3157   15.0955 C   0  0  0  0  0  0  0  0  0  0  0  0
   10.2489    6.4227   23.0218 N   0  0  0  0  0  0  0  0  0  0  0  0
    7.2472    8.0746   23.5050 C   0  0  0  0  0  0  0  0  0  0  0  0
    9.2051    6.9101   23.4604 C   0  0  0  0  0  0  0  0  0  0  0  0
   11.9646    6.0299   21.4251 C   0  0  0  0  0  0  0  0  0  0  0  0
  1  5  1  0
  1 13  1  0
  2 20  2  0
  2 28  1  0
  2 29  1  0
  3 19  4  0
  3 25  4  0
  4 23  4  0
  4 27  1  0
  4 30  4  0
  5 17  1  0
  6  8  1  0
  6 29  1  0
  7 24  4  0
  7 26  4  0
  8 28  1  0
  9 13  2  0
 10 18  1  0
 10 21  4  0
 10 30  4  0
 11 17  2  0
 12 18  1  0
 13 15  1  0
 14 24  1  0
 15 25  1  0
 16 28  2  0
 17 20  1  0
 19 24  4  0
 20 23  1  0
 21 22  4  0
 22 23  4  0
 25 26  4  0
 27 29  2  0
M  END
$$$$

 Created by Python create_sdf_string function

 30 33  0  0  0  0  0  0  0  0999 V2000
    8.3036    9.8571   18.4133 C   0  0  0  0  0  0  0  0  0  0  0  0
    8.3694    7.6612   22.6703 C   0  0  0  0  0  0  0  0  0  0  0  0
    8.4143    6.6863   16.2273 C   0  0  0  0  0  0  0  0  0  0  0  0
   10.7581    6.5674   21.7636 C   0  0  0  0  0  0  0  0  0  0  0  0
    8.4452    8.7960   19.2958 O   0  0  0  0  0  0  0  0  0  0  0  0
    8.7122    6.7842   24.8569 C   0  0  0  0  0  0  0  0  0  0  0  0
   10.3400    6.1726   14.3081 C   0  0  0  0  0  0  0  0  0  0  0  0
    7.4297    7.5873   24.8962 C   0  0  0  0  0  0  0  0  0  0  0  0
    8.1566   10.0536   16.0516 O   0  0  0  0  0  0  0  0  0  0  0  0
   12.4989    6.2074   20.1776 C   0  0  0  0  0  0  0  0  0  0  0  0
    6.9192    9.1053   20.9073 O   0  0  0  0  0  0  0  0  0  0  0  0
   14.3979    6.0729   18.7784 C   0  0  0  0  0  0  0  0  0  0  0  0
    8.6811    9.5354   16.9998 C   0  0  0  0  0  0  0  0  0  0  0  0
    9.2512    4.2713   13.7653 O   0  0  0  0  0  0  0  0  0  0  0  0
    9.6495    8.6317   16.8332 N   0  0  0  0  0  0  0  0  0  0  0  0
    6.2934    8.6988   23.1988 O   0  0  0  0  0  0  0  0  0  0  0  0
    7.9806    8.6543   20.5437 C   0  0  0  0  0  0  0  0  0  0  0  0
   13.7270    5.7144   19.8610 O   0  0  0  0  0  0  0  0  0  0  0  0
    8.3351    5.5235   15.4478 C   0  0  0  0  0  0  0  0  0  0  0  0
    8.7700    7.8434   21.3915 C   0  0  0  0  0  0  0  0  0  0  0  0
   11.7856    6.8851   19.2401 C   0  0  0  0  0  0  0  0  0  0  0  0
   10.5281    7.4276   19.5649 C   0  0  0  0  0  0  0  0  0  0  0  0
   10.0256    7.2907   20.8484 C   0  0  0  0  0  0  0  0  0  0  0  0
    9.3113    5.3049   14.4911 C   0  0  0  0  0  0  0  0  0  0  0  0
    9.4607    7.5646   16.0139 C   0  0  0  0  0  0  0  0  0  0  0  0
   10.4192    7.3157   15.0955 C   0  0  0  0  0  0  0  0  0  0  0  0
   10.2489    6.4227   23.0218 N   0  0  0  0  0  0  0  0  0  0  0  0
    7.2472    8.0746   23.5050 C   0  0  0  0  0  0  0  0  0  0  0  0
    9.2051    6.9101   23.4604 C   0  0  0  0  0  0  0  0  0  0  0  0
   11.9646    6.0299   21.4251 C   0  0  0  0  0  0  0  0  0  0  0  0
  1  5  1  0
  1 13  1  0
  2 20  2  0
  2 28  1  0
  2 29  1  0
  3 19  4  0
  3 25  4  0
  4 23  4  0
  4 27  1  0
  4 30  4  0
  5 17  1  0
  6  8  1  0
  6 29  1  0
  7 24  4  0
  7 26  4  0
  8 28  1  0
  9 13  2  0
 10 18  1  0
 10 21  4  0
 10 30  4  0
 11 17  2  0
 12 18  1  0
 13 15  1  0
 14 24  1  0
 15 25  1  0
 16 28  2  0
 17 20  1  0
 19 24  4  0
 20 23  1  0
 21 22  4  0
 22 23  4  0
 25 26  4  0
 27 29  2  0
M  END
$$$$

 Created by Python create_sdf_string function

 30 33  0  0  0  0  0  0  0  0999 V2000
    8.3036    9.8571   18.4133 C   0  0  0  0  0  0  0  0  0  0  0  0
    8.3694    7.6612   22.6703 C   0  0  0  0  0  0  0  0  0  0  0  0
    8.4143    6.6863   16.2273 C   0  0  0  0  0  0  0  0  0  0  0  0
   10.7581    6.5674   21.7636 C   0  0  0  0  0  0  0  0  0  0  0  0
    8.4452    8.7960   19.2958 O   0  0  0  0  0  0  0  0  0  0  0  0
    8.7122    6.7842   24.8569 C   0  0  0  0  0  0  0  0  0  0  0  0
   10.3400    6.1726   14.3081 C   0  0  0  0  0  0  0  0  0  0  0  0
    7.4297    7.5873   24.8962 C   0  0  0  0  0  0  0  0  0  0  0  0
    8.1566   10.0536   16.0516 O   0  0  0  0  0  0  0  0  0  0  0  0
   12.4989    6.2074   20.1776 C   0  0  0  0  0  0  0  0  0  0  0  0
    6.9192    9.1053   20.9073 O   0  0  0  0  0  0  0  0  0  0  0  0
   14.3979    6.0729   18.7784 C   0  0  0  0  0  0  0  0  0  0  0  0
    8.6811    9.5354   16.9998 C   0  0  0  0  0  0  0  0  0  0  0  0
    9.2512    4.2713   13.7653 O   0  0  0  0  0  0  0  0  0  0  0  0
    9.6495    8.6317   16.8332 N   0  0  0  0  0  0  0  0  0  0  0  0
    6.2934    8.6988   23.1988 O   0  0  0  0  0  0  0  0  0  0  0  0
    7.9806    8.6543   20.5437 C   0  0  0  0  0  0  0  0  0  0  0  0
   13.7270    5.7144   19.8610 O   0  0  0  0  0  0  0  0  0  0  0  0
    8.3351    5.5235   15.4478 C   0  0  0  0  0  0  0  0  0  0  0  0
    8.7700    7.8434   21.3915 C   0  0  0  0  0  0  0  0  0  0  0  0
   11.7856    6.8851   19.2401 C   0  0  0  0  0  0  0  0  0  0  0  0
   10.5281    7.4276   19.5649 C   0  0  0  0  0  0  0  0  0  0  0  0
   10.0256    7.2907   20.8484 C   0  0  0  0  0  0  0  0  0  0  0  0
    9.3113    5.3049   14.4911 C   0  0  0  0  0  0  0  0  0  0  0  0
    9.4607    7.5646   16.0139 C   0  0  0  0  0  0  0  0  0  0  0  0
   10.4192    7.3157   15.0955 C   0  0  0  0  0  0  0  0  0  0  0  0
   10.2489    6.4227   23.0218 N   0  0  0  0  0  0  0  0  0  0  0  0
    7.2472    8.0746   23.5050 C   0  0  0  0  0  0  0  0  0  0  0  0
    9.2051    6.9101   23.4604 C   0  0  0  0  0  0  0  0  0  0  0  0
   11.9646    6.0299   21.4251 C   0  0  0  0  0  0  0  0  0  0  0  0
  1  5  1  0
  1 13  1  0
  2 20  2  0
  2 28  1  0
  2 29  1  0
  3 19  4  0
  3 25  4  0
  4 23  4  0
  4 27  1  0
  4 30  4  0
  5 17  1  0
  6  8  1  0
  6 29  1  0
  7 24  4  0
  7 26  4  0
  8 28  1  0
  9 13  2  0
 10 18  1  0
 10 21  4  0
 10 30  4  0
 11 17  2  0
 12 18  1  0
 13 15  1  0
 14 24  1  0
 15 25  1  0
 16 28  2  0
 17 20  1  0
 19 24  4  0
 20 23  1  0
 21 22  4  0
 22 23  4  0
 25 26  4  0
 27 29  2  0
M  END
$$$$

 Created by Python create_sdf_string function

 30 33  0  0  0  0  0  0  0  0999 V2000
    8.3036    9.8571   18.4133 C   0  0  0  0  0  0  0  0  0  0  0  0
    8.3694    7.6612   22.6703 C   0  0  0  0  0  0  0  0  0  0  0  0
    8.4143    6.6863   16.2273 C   0  0  0  0  0  0  0  0  0  0  0  0
   10.7581    6.5674   21.7636 C   0  0  0  0  0  0  0  0  0  0  0  0
    8.4452    8.7960   19.2958 O   0  0  0  0  0  0  0  0  0  0  0  0
    8.7122    6.7842   24.8569 C   0  0  0  0  0  0  0  0  0  0  0  0
   10.3400    6.1726   14.3081 C   0  0  0  0  0  0  0  0  0  0  0  0
    7.4297    7.5873   24.8962 C   0  0  0  0  0  0  0  0  0  0  0  0
    8.1566   10.0536   16.0516 O   0  0  0  0  0  0  0  0  0  0  0  0
   12.4989    6.2074   20.1776 C   0  0  0  0  0  0  0  0  0  0  0  0
    6.9192    9.1053   20.9073 O   0  0  0  0  0  0  0  0  0  0  0  0
   14.3979    6.0729   18.7784 C   0  0  0  0  0  0  0  0  0  0  0  0
    8.6811    9.5354   16.9998 C   0  0  0  0  0  0  0  0  0  0  0  0
    9.2512    4.2713   13.7653 O   0  0  0  0  0  0  0  0  0  0  0  0
    9.6495    8.6317   16.8332 N   0  0  0  0  0  0  0  0  0  0  0  0
    6.2934    8.6988   23.1988 O   0  0  0  0  0  0  0  0  0  0  0  0
    7.9806    8.6543   20.5437 C   0  0  0  0  0  0  0  0  0  0  0  0
   13.7270    5.7144   19.8610 O   0  0  0  0  0  0  0  0  0  0  0  0
    8.3351    5.5235   15.4478 C   0  0  0  0  0  0  0  0  0  0  0  0
    8.7700    7.8434   21.3915 C   0  0  0  0  0  0  0  0  0  0  0  0
   11.7856    6.8851   19.2401 C   0  0  0  0  0  0  0  0  0  0  0  0
   10.5281    7.4276   19.5649 C   0  0  0  0  0  0  0  0  0  0  0  0
   10.0256    7.2907   20.8484 C   0  0  0  0  0  0  0  0  0  0  0  0
    9.3113    5.3049   14.4911 C   0  0  0  0  0  0  0  0  0  0  0  0
    9.4607    7.5646   16.0139 C   0  0  0  0  0  0  0  0  0  0  0  0
   10.4192    7.3157   15.0955 C   0  0  0  0  0  0  0  0  0  0  0  0
   10.2489    6.4227   23.0218 N   0  0  0  0  0  0  0  0  0  0  0  0
    7.2472    8.0746   23.5050 C   0  0  0  0  0  0  0  0  0  0  0  0
    9.2051    6.9101   23.4604 C   0  0  0  0  0  0  0  0  0  0  0  0
   11.9646    6.0299   21.4251 C   0  0  0  0  0  0  0  0  0  0  0  0
  1  5  1  0
  1 13  1  0
  2 20  2  0
  2 28  1  0
  2 29  1  0
  3 19  4  0
  3 25  4  0
  4 23  4  0
  4 27  1  0
  4 30  4  0
  5 17  1  0
  6  8  1  0
  6 29  1  0
  7 24  4  0
  7 26  4  0
  8 28  1  0
  9 13  2  0
 10 18  1  0
 10 21  4  0
 10 30  4  0
 11 17  2  0
 12 18  1  0
 13 15  1  0
 14 24  1  0
 15 25  1  0
 16 28  2  0
 17 20  1  0
 19 24  4  0
 20 23  1  0
 21 22  4  0
 22 23  4  0
 25 26  4  0
 27 29  2  0
M  END
$$$$

 Created by Python create_sdf_string function

 30 33  0  0  0  0  0  0  0  0999 V2000
    8.3036    9.8571   18.4133 C   0  0  0  0  0  0  0  0  0  0  0  0
    8.3694    7.6612   22.6703 C   0  0  0  0  0  0  0  0  0  0  0  0
    8.4143    6.6863   16.2273 C   0  0  0  0  0  0  0  0  0  0  0  0
   10.7581    6.5674   21.7636 C   0  0  0  0  0  0  0  0  0  0  0  0
    8.4452    8.7960   19.2958 O   0  0  0  0  0  0  0  0  0  0  0  0
    8.7122    6.7842   24.8569 C   0  0  0  0  0  0  0  0  0  0  0  0
   10.3400    6.1726   14.3081 C   0  0  0  0  0  0  0  0  0  0  0  0
    7.4297    7.5873   24.8962 C   0  0  0  0  0  0  0  0  0  0  0  0
    8.1566   10.0536   16.0516 O   0  0  0  0  0  0  0  0  0  0  0  0
   12.4989    6.2074   20.1776 C   0  0  0  0  0  0  0  0  0  0  0  0
    6.9192    9.1053   20.9073 O   0  0  0  0  0  0  0  0  0  0  0  0
   14.3979    6.0729   18.7784 C   0  0  0  0  0  0  0  0  0  0  0  0
    8.6811    9.5354   16.9998 C   0  0  0  0  0  0  0  0  0  0  0  0
    9.2512    4.2713   13.7653 O   0  0  0  0  0  0  0  0  0  0  0  0
    9.6495    8.6317   16.8332 N   0  0  0  0  0  0  0  0  0  0  0  0
    6.2934    8.6988   23.1988 O   0  0  0  0  0  0  0  0  0  0  0  0
    7.9806    8.6543   20.5437 C   0  0  0  0  0  0  0  0  0  0  0  0
   13.7270    5.7144   19.8610 O   0  0  0  0  0  0  0  0  0  0  0  0
    8.3351    5.5235   15.4478 C   0  0  0  0  0  0  0  0  0  0  0  0
    8.7700    7.8434   21.3915 C   0  0  0  0  0  0  0  0  0  0  0  0
   11.7856    6.8851   19.2401 C   0  0  0  0  0  0  0  0  0  0  0  0
   10.5281    7.4276   19.5649 C   0  0  0  0  0  0  0  0  0  0  0  0
   10.0256    7.2907   20.8484 C   0  0  0  0  0  0  0  0  0  0  0  0
    9.3113    5.3049   14.4911 C   0  0  0  0  0  0  0  0  0  0  0  0
    9.4607    7.5646   16.0139 C   0  0  0  0  0  0  0  0  0  0  0  0
   10.4192    7.3157   15.0955 C   0  0  0  0  0  0  0  0  0  0  0  0
   10.2489    6.4227   23.0218 N   0  0  0  0  0  0  0  0  0  0  0  0
    7.2472    8.0746   23.5050 C   0  0  0  0  0  0  0  0  0  0  0  0
    9.2051    6.9101   23.4604 C   0  0  0  0  0  0  0  0  0  0  0  0
   11.9646    6.0299   21.4251 C   0  0  0  0  0  0  0  0  0  0  0  0
  1  5  1  0
  1 13  1  0
  2 20  2  0
  2 28  1  0
  2 29  1  0
  3 19  4  0
  3 25  4  0
  4 23  4  0
  4 27  1  0
  4 30  4  0
  5 17  1  0
  6  8  1  0
  6 29  1  0
  7 24  4  0
  7 26  4  0
  8 28  1  0
  9 13  2  0
 10 18  1  0
 10 21  4  0
 10 30  4  0
 11 17  2  0
 12 18  1  0
 13 15  1  0
 14 24  1  0
 15 25  1  0
 16 28  2  0
 17 20  1  0
 19 24  4  0
 20 23  1  0
 21 22  4  0
 22 23  4  0
 25 26  4  0
 27 29  2  0
M  END
$$$$

 Created by Python create_sdf_string function

 30 33  0  0  0  0  0  0  0  0999 V2000
    8.3036    9.8571   18.4133 C   0  0  0  0  0  0  0  0  0  0  0  0
    8.3694    7.6612   22.6703 C   0  0  0  0  0  0  0  0  0  0  0  0
    8.4143    6.6863   16.2273 C   0  0  0  0  0  0  0  0  0  0  0  0
   10.7581    6.5674   21.7636 C   0  0  0  0  0  0  0  0  0  0  0  0
    8.4452    8.7960   19.2958 O   0  0  0  0  0  0  0  0  0  0  0  0
    8.7122    6.7842   24.8569 C   0  0  0  0  0  0  0  0  0  0  0  0
   10.3400    6.1726   14.3081 C   0  0  0  0  0  0  0  0  0  0  0  0
    7.4297    7.5873   24.8962 C   0  0  0  0  0  0  0  0  0  0  0  0
    8.1566   10.0536   16.0516 O   0  0  0  0  0  0  0  0  0  0  0  0
   12.4989    6.2074   20.1776 C   0  0  0  0  0  0  0  0  0  0  0  0
    6.9192    9.1053   20.9073 O   0  0  0  0  0  0  0  0  0  0  0  0
   14.3979    6.0729   18.7784 C   0  0  0  0  0  0  0  0  0  0  0  0
    8.6811    9.5354   16.9998 C   0  0  0  0  0  0  0  0  0  0  0  0
    9.2512    4.2713   13.7653 O   0  0  0  0  0  0  0  0  0  0  0  0
    9.6495    8.6317   16.8332 N   0  0  0  0  0  0  0  0  0  0  0  0
    6.2934    8.6988   23.1988 O   0  0  0  0  0  0  0  0  0  0  0  0
    7.9806    8.6543   20.5437 C   0  0  0  0  0  0  0  0  0  0  0  0
   13.7270    5.7144   19.8610 O   0  0  0  0  0  0  0  0  0  0  0  0
    8.3351    5.5235   15.4478 C   0  0  0  0  0  0  0  0  0  0  0  0
    8.7700    7.8434   21.3915 C   0  0  0  0  0  0  0  0  0  0  0  0
   11.7856    6.8851   19.2401 C   0  0  0  0  0  0  0  0  0  0  0  0
   10.5281    7.4276   19.5649 C   0  0  0  0  0  0  0  0  0  0  0  0
   10.0256    7.2907   20.8484 C   0  0  0  0  0  0  0  0  0  0  0  0
    9.3113    5.3049   14.4911 C   0  0  0  0  0  0  0  0  0  0  0  0
    9.4607    7.5646   16.0139 C   0  0  0  0  0  0  0  0  0  0  0  0
   10.4192    7.3157   15.0955 C   0  0  0  0  0  0  0  0  0  0  0  0
   10.2489    6.4227   23.0218 N   0  0  0  0  0  0  0  0  0  0  0  0
    7.2472    8.0746   23.5050 C   0  0  0  0  0  0  0  0  0  0  0  0
    9.2051    6.9101   23.4604 C   0  0  0  0  0  0  0  0  0  0  0  0
   11.9646    6.0299   21.4251 C   0  0  0  0  0  0  0  0  0  0  0  0
  1  5  1  0
  1 13  1  0
  2 20  2  0
  2 28  1  0
  2 29  1  0
  3 19  4  0
  3 25  4  0
  4 23  4  0
  4 27  1  0
  4 30  4  0
  5 17  1  0
  6  8  1  0
  6 29  1  0
  7 24  4  0
  7 26  4  0
  8 28  1  0
  9 13  2  0
 10 18  1  0
 10 21  4  0
 10 30  4  0
 11 17  2  0
 12 18  1  0
 13 15  1  0
 14 24  1  0
 15 25  1  0
 16 28  2  0
 17 20  1  0
 19 24  4  0
 20 23  1  0
 21 22  4  0
 22 23  4  0
 25 26  4  0
 27 29  2  0
M  END
$$$$

 Created by Python create_sdf_string function

 30 33  0  0  0  0  0  0  0  0999 V2000
    8.3036    9.8571   18.4133 C   0  0  0  0  0  0  0  0  0  0  0  0
    8.3694    7.6612   22.6703 C   0  0  0  0  0  0  0  0  0  0  0  0
    8.4143    6.6863   16.2273 C   0  0  0  0  0  0  0  0  0  0  0  0
   10.7581    6.5674   21.7636 C   0  0  0  0  0  0  0  0  0  0  0  0
    8.4452    8.7960   19.2958 O   0  0  0  0  0  0  0  0  0  0  0  0
    8.7122    6.7842   24.8569 C   0  0  0  0  0  0  0  0  0  0  0  0
   10.3400    6.1726   14.3081 C   0  0  0  0  0  0  0  0  0  0  0  0
    7.4297    7.5873   24.8962 C   0  0  0  0  0  0  0  0  0  0  0  0
    8.1566   10.0536   16.0516 O   0  0  0  0  0  0  0  0  0  0  0  0
   12.4989    6.2074   20.1776 C   0  0  0  0  0  0  0  0  0  0  0  0
    6.9192    9.1053   20.9073 O   0  0  0  0  0  0  0  0  0  0  0  0
   14.3979    6.0729   18.7784 C   0  0  0  0  0  0  0  0  0  0  0  0
    8.6811    9.5354   16.9998 C   0  0  0  0  0  0  0  0  0  0  0  0
    9.2512    4.2713   13.7653 O   0  0  0  0  0  0  0  0  0  0  0  0
    9.6495    8.6317   16.8332 N   0  0  0  0  0  0  0  0  0  0  0  0
    6.2934    8.6988   23.1988 O   0  0  0  0  0  0  0  0  0  0  0  0
    7.9806    8.6543   20.5437 C   0  0  0  0  0  0  0  0  0  0  0  0
   13.7270    5.7144   19.8610 O   0  0  0  0  0  0  0  0  0  0  0  0
    8.3351    5.5235   15.4478 C   0  0  0  0  0  0  0  0  0  0  0  0
    8.7700    7.8434   21.3915 C   0  0  0  0  0  0  0  0  0  0  0  0
   11.7856    6.8851   19.2401 C   0  0  0  0  0  0  0  0  0  0  0  0
   10.5281    7.4276   19.5649 C   0  0  0  0  0  0  0  0  0  0  0  0
   10.0256    7.2907   20.8484 C   0  0  0  0  0  0  0  0  0  0  0  0
    9.3113    5.3049   14.4911 C   0  0  0  0  0  0  0  0  0  0  0  0
    9.4607    7.5646   16.0139 C   0  0  0  0  0  0  0  0  0  0  0  0
   10.4192    7.3157   15.0955 C   0  0  0  0  0  0  0  0  0  0  0  0
   10.2489    6.4227   23.0218 N   0  0  0  0  0  0  0  0  0  0  0  0
    7.2472    8.0746   23.5050 C   0  0  0  0  0  0  0  0  0  0  0  0
    9.2051    6.9101   23.4604 C   0  0  0  0  0  0  0  0  0  0  0  0
   11.9646    6.0299   21.4251 C   0  0  0  0  0  0  0  0  0  0  0  0
  1  5  1  0
  1 13  1  0
  2 20  2  0
  2 28  1  0
  2 29  1  0
  3 19  4  0
  3 25  4  0
  4 23  4  0
  4 27  1  0
  4 30  4  0
  5 17  1  0
  6  8  1  0
  6 29  1  0
  7 24  4  0
  7 26  4  0
  8 28  1  0
  9 13  2  0
 10 18  1  0
 10 21  4  0
 10 30  4  0
 11 17  2  0
 12 18  1  0
 13 15  1  0
 14 24  1  0
 15 25  1  0
 16 28  2  0
 17 20  1  0
 19 24  4  0
 20 23  1  0
 21 22  4  0
 22 23  4  0
 25 26  4  0
 27 29  2  0
M  END
$$$$

 Created by Python create_sdf_string function

 30 33  0  0  0  0  0  0  0  0999 V2000
    8.3036    9.8571   18.4133 C   0  0  0  0  0  0  0  0  0  0  0  0
    8.3694    7.6612   22.6703 C   0  0  0  0  0  0  0  0  0  0  0  0
    8.4143    6.6863   16.2273 C   0  0  0  0  0  0  0  0  0  0  0  0
   10.7581    6.5674   21.7636 C   0  0  0  0  0  0  0  0  0  0  0  0
    8.4452    8.7960   19.2958 O   0  0  0  0  0  0  0  0  0  0  0  0
    8.7122    6.7842   24.8569 C   0  0  0  0  0  0  0  0  0  0  0  0
   10.3400    6.1726   14.3081 C   0  0  0  0  0  0  0  0  0  0  0  0
    7.4297    7.5873   24.8962 C   0  0  0  0  0  0  0  0  0  0  0  0
    8.1566   10.0536   16.0516 O   0  0  0  0  0  0  0  0  0  0  0  0
   12.4989    6.2074   20.1776 C   0  0  0  0  0  0  0  0  0  0  0  0
    6.9192    9.1053   20.9073 O   0  0  0  0  0  0  0  0  0  0  0  0
   14.3979    6.0729   18.7784 C   0  0  0  0  0  0  0  0  0  0  0  0
    8.6811    9.5354   16.9998 C   0  0  0  0  0  0  0  0  0  0  0  0
    9.2512    4.2713   13.7653 O   0  0  0  0  0  0  0  0  0  0  0  0
    9.6495    8.6317   16.8332 N   0  0  0  0  0  0  0  0  0  0  0  0
    6.2934    8.6988   23.1988 O   0  0  0  0  0  0  0  0  0  0  0  0
    7.9806    8.6543   20.5437 C   0  0  0  0  0  0  0  0  0  0  0  0
   13.7270    5.7144   19.8610 O   0  0  0  0  0  0  0  0  0  0  0  0
    8.3351    5.5235   15.4478 C   0  0  0  0  0  0  0  0  0  0  0  0
    8.7700    7.8434   21.3915 C   0  0  0  0  0  0  0  0  0  0  0  0
   11.7856    6.8851   19.2401 C   0  0  0  0  0  0  0  0  0  0  0  0
   10.5281    7.4276   19.5649 C   0  0  0  0  0  0  0  0  0  0  0  0
   10.0256    7.2907   20.8484 C   0  0  0  0  0  0  0  0  0  0  0  0
    9.3113    5.3049   14.4911 C   0  0  0  0  0  0  0  0  0  0  0  0
    9.4607    7.5646   16.0139 C   0  0  0  0  0  0  0  0  0  0  0  0
   10.4192    7.3157   15.0955 C   0  0  0  0  0  0  0  0  0  0  0  0
   10.2489    6.4227   23.0218 N   0  0  0  0  0  0  0  0  0  0  0  0
    7.2472    8.0746   23.5050 C   0  0  0  0  0  0  0  0  0  0  0  0
    9.2051    6.9101   23.4604 C   0  0  0  0  0  0  0  0  0  0  0  0
   11.9646    6.0299   21.4251 C   0  0  0  0  0  0  0  0  0  0  0  0
  1  5  1  0
  1 13  1  0
  2 20  2  0
  2 28  1  0
  2 29  1  0
  3 19  4  0
  3 25  4  0
  4 23  4  0
  4 27  1  0
  4 30  4  0
  5 17  1  0
  6  8  1  0
  6 29  1  0
  7 24  4  0
  7 26  4  0
  8 28  1  0
  9 13  2  0
 10 18  1  0
 10 21  4  0
 10 30  4  0
 11 17  2  0
 12 18  1  0
 13 15  1  0
 14 24  1  0
 15 25  1  0
 16 28  2  0
 17 20  1  0
 19 24  4  0
 20 23  1  0
 21 22  4  0
 22 23  4  0
 25 26  4  0
 27 29  2  0
M  END
$$$$

 Created by Python create_sdf_string function

 30 33  0  0  0  0  0  0  0  0999 V2000
    8.3036    9.8571   18.4133 C   0  0  0  0  0  0  0  0  0  0  0  0
    8.3694    7.6612   22.6703 C   0  0  0  0  0  0  0  0  0  0  0  0
    8.4143    6.6863   16.2273 C   0  0  0  0  0  0  0  0  0  0  0  0
   10.7581    6.5674   21.7636 C   0  0  0  0  0  0  0  0  0  0  0  0
    8.4452    8.7960   19.2958 O   0  0  0  0  0  0  0  0  0  0  0  0
    8.7122    6.7842   24.8569 C   0  0  0  0  0  0  0  0  0  0  0  0
   10.3400    6.1726   14.3081 C   0  0  0  0  0  0  0  0  0  0  0  0
    7.4297    7.5873   24.8962 C   0  0  0  0  0  0  0  0  0  0  0  0
    8.1566   10.0536   16.0516 O   0  0  0  0  0  0  0  0  0  0  0  0
   12.4989    6.2074   20.1776 C   0  0  0  0  0  0  0  0  0  0  0  0
    6.9192    9.1053   20.9073 O   0  0  0  0  0  0  0  0  0  0  0  0
   14.3979    6.0729   18.7784 C   0  0  0  0  0  0  0  0  0  0  0  0
    8.6811    9.5354   16.9998 C   0  0  0  0  0  0  0  0  0  0  0  0
    9.2512    4.2713   13.7653 O   0  0  0  0  0  0  0  0  0  0  0  0
    9.6495    8.6317   16.8332 N   0  0  0  0  0  0  0  0  0  0  0  0
    6.2934    8.6988   23.1988 O   0  0  0  0  0  0  0  0  0  0  0  0
    7.9806    8.6543   20.5437 C   0  0  0  0  0  0  0  0  0  0  0  0
   13.7270    5.7144   19.8610 O   0  0  0  0  0  0  0  0  0  0  0  0
    8.3351    5.5235   15.4478 C   0  0  0  0  0  0  0  0  0  0  0  0
    8.7700    7.8434   21.3915 C   0  0  0  0  0  0  0  0  0  0  0  0
   11.7856    6.8851   19.2401 C   0  0  0  0  0  0  0  0  0  0  0  0
   10.5281    7.4276   19.5649 C   0  0  0  0  0  0  0  0  0  0  0  0
   10.0256    7.2907   20.8484 C   0  0  0  0  0  0  0  0  0  0  0  0
    9.3113    5.3049   14.4911 C   0  0  0  0  0  0  0  0  0  0  0  0
    9.4607    7.5646   16.0139 C   0  0  0  0  0  0  0  0  0  0  0  0
   10.4192    7.3157   15.0955 C   0  0  0  0  0  0  0  0  0  0  0  0
   10.2489    6.4227   23.0218 N   0  0  0  0  0  0  0  0  0  0  0  0
    7.2472    8.0746   23.5050 C   0  0  0  0  0  0  0  0  0  0  0  0
    9.2051    6.9101   23.4604 C   0  0  0  0  0  0  0  0  0  0  0  0
   11.9646    6.0299   21.4251 C   0  0  0  0  0  0  0  0  0  0  0  0
  1  5  1  0
  1 13  1  0
  2 20  2  0
  2 28  1  0
  2 29  1  0
  3 19  4  0
  3 25  4  0
  4 23  4  0
  4 27  1  0
  4 30  4  0
  5 17  1  0
  6  8  1  0
  6 29  1  0
  7 24  4  0
  7 26  4  0
  8 28  1  0
  9 13  2  0
 10 18  1  0
 10 21  4  0
 10 30  4  0
 11 17  2  0
 12 18  1  0
 13 15  1  0
 14 24  1  0
 15 25  1  0
 16 28  2  0
 17 20  1  0
 19 24  4  0
 20 23  1  0
 21 22  4  0
 22 23  4  0
 25 26  4  0
 27 29  2  0
M  END
$$$$

 Created by Python create_sdf_string function

 30 33  0  0  0  0  0  0  0  0999 V2000
    8.3036    9.8571   18.4133 C   0  0  0  0  0  0  0  0  0  0  0  0
    8.3694    7.6612   22.6703 C   0  0  0  0  0  0  0  0  0  0  0  0
    8.4143    6.6863   16.2273 C   0  0  0  0  0  0  0  0  0  0  0  0
   10.7581    6.5674   21.7636 C   0  0  0  0  0  0  0  0  0  0  0  0
    8.4452    8.7960   19.2958 O   0  0  0  0  0  0  0  0  0  0  0  0
    8.7122    6.7842   24.8569 C   0  0  0  0  0  0  0  0  0  0  0  0
   10.3400    6.1726   14.3081 C   0  0  0  0  0  0  0  0  0  0  0  0
    7.4297    7.5873   24.8962 C   0  0  0  0  0  0  0  0  0  0  0  0
    8.1566   10.0536   16.0516 O   0  0  0  0  0  0  0  0  0  0  0  0
   12.4989    6.2074   20.1776 C   0  0  0  0  0  0  0  0  0  0  0  0
    6.9192    9.1053   20.9073 O   0  0  0  0  0  0  0  0  0  0  0  0
   14.3979    6.0729   18.7784 C   0  0  0  0  0  0  0  0  0  0  0  0
    8.6811    9.5354   16.9998 C   0  0  0  0  0  0  0  0  0  0  0  0
    9.2512    4.2713   13.7653 O   0  0  0  0  0  0  0  0  0  0  0  0
    9.6495    8.6317   16.8332 N   0  0  0  0  0  0  0  0  0  0  0  0
    6.2934    8.6988   23.1988 O   0  0  0  0  0  0  0  0  0  0  0  0
    7.9806    8.6543   20.5437 C   0  0  0  0  0  0  0  0  0  0  0  0
   13.7270    5.7144   19.8610 O   0  0  0  0  0  0  0  0  0  0  0  0
    8.3351    5.5235   15.4478 C   0  0  0  0  0  0  0  0  0  0  0  0
    8.7700    7.8434   21.3915 C   0  0  0  0  0  0  0  0  0  0  0  0
   11.7856    6.8851   19.2401 C   0  0  0  0  0  0  0  0  0  0  0  0
   10.5281    7.4276   19.5649 C   0  0  0  0  0  0  0  0  0  0  0  0
   10.0256    7.2907   20.8484 C   0  0  0  0  0  0  0  0  0  0  0  0
    9.3113    5.3049   14.4911 C   0  0  0  0  0  0  0  0  0  0  0  0
    9.4607    7.5646   16.0139 C   0  0  0  0  0  0  0  0  0  0  0  0
   10.4192    7.3157   15.0955 C   0  0  0  0  0  0  0  0  0  0  0  0
   10.2489    6.4227   23.0218 N   0  0  0  0  0  0  0  0  0  0  0  0
    7.2472    8.0746   23.5050 C   0  0  0  0  0  0  0  0  0  0  0  0
    9.2051    6.9101   23.4604 C   0  0  0  0  0  0  0  0  0  0  0  0
   11.9646    6.0299   21.4251 C   0  0  0  0  0  0  0  0  0  0  0  0
  1  5  1  0
  1 13  1  0
  2 20  2  0
  2 28  1  0
  2 29  1  0
  3 19  4  0
  3 25  4  0
  4 23  4  0
  4 27  1  0
  4 30  4  0
  5 17  1  0
  6  8  1  0
  6 29  1  0
  7 24  4  0
  7 26  4  0
  8 28  1  0
  9 13  2  0
 10 18  1  0
 10 21  4  0
 10 30  4  0
 11 17  2  0
 12 18  1  0
 13 15  1  0
 14 24  1  0
 15 25  1  0
 16 28  2  0
 17 20  1  0
 19 24  4  0
 20 23  1  0
 21 22  4  0
 22 23  4  0
 25 26  4  0
 27 29  2  0
M  END
$$$$

 Created by Python create_sdf_string function

 30 33  0  0  0  0  0  0  0  0999 V2000
    8.3036    9.8571   18.4133 C   0  0  0  0  0  0  0  0  0  0  0  0
    8.3694    7.6612   22.6703 C   0  0  0  0  0  0  0  0  0  0  0  0
    8.4143    6.6863   16.2273 C   0  0  0  0  0  0  0  0  0  0  0  0
   10.7581    6.5674   21.7636 C   0  0  0  0  0  0  0  0  0  0  0  0
    8.4452    8.7960   19.2958 O   0  0  0  0  0  0  0  0  0  0  0  0
    8.7122    6.7842   24.8569 C   0  0  0  0  0  0  0  0  0  0  0  0
   10.3400    6.1726   14.3081 C   0  0  0  0  0  0  0  0  0  0  0  0
    7.4297    7.5873   24.8962 C   0  0  0  0  0  0  0  0  0  0  0  0
    8.1566   10.0536   16.0516 O   0  0  0  0  0  0  0  0  0  0  0  0
   12.4989    6.2074   20.1776 C   0  0  0  0  0  0  0  0  0  0  0  0
    6.9192    9.1053   20.9073 O   0  0  0  0  0  0  0  0  0  0  0  0
   14.3979    6.0729   18.7784 C   0  0  0  0  0  0  0  0  0  0  0  0
    8.6811    9.5354   16.9998 C   0  0  0  0  0  0  0  0  0  0  0  0
    9.2512    4.2713   13.7653 O   0  0  0  0  0  0  0  0  0  0  0  0
    9.6495    8.6317   16.8332 N   0  0  0  0  0  0  0  0  0  0  0  0
    6.2934    8.6988   23.1988 O   0  0  0  0  0  0  0  0  0  0  0  0
    7.9806    8.6543   20.5437 C   0  0  0  0  0  0  0  0  0  0  0  0
   13.7270    5.7144   19.8610 O   0  0  0  0  0  0  0  0  0  0  0  0
    8.3351    5.5235   15.4478 C   0  0  0  0  0  0  0  0  0  0  0  0
    8.7700    7.8434   21.3915 C   0  0  0  0  0  0  0  0  0  0  0  0
   11.7856    6.8851   19.2401 C   0  0  0  0  0  0  0  0  0  0  0  0
   10.5281    7.4276   19.5649 C   0  0  0  0  0  0  0  0  0  0  0  0
   10.0256    7.2907   20.8484 C   0  0  0  0  0  0  0  0  0  0  0  0
    9.3113    5.3049   14.4911 C   0  0  0  0  0  0  0  0  0  0  0  0
    9.4607    7.5646   16.0139 C   0  0  0  0  0  0  0  0  0  0  0  0
   10.4192    7.3157   15.0955 C   0  0  0  0  0  0  0  0  0  0  0  0
   10.2489    6.4227   23.0218 N   0  0  0  0  0  0  0  0  0  0  0  0
    7.2472    8.0746   23.5050 C   0  0  0  0  0  0  0  0  0  0  0  0
    9.2051    6.9101   23.4604 C   0  0  0  0  0  0  0  0  0  0  0  0
   11.9646    6.0299   21.4251 C   0  0  0  0  0  0  0  0  0  0  0  0
  1  5  1  0
  1 13  1  0
  2 20  2  0
  2 28  1  0
  2 29  1  0
  3 19  4  0
  3 25  4  0
  4 23  4  0
  4 27  1  0
  4 30  4  0
  5 17  1  0
  6  8  1  0
  6 29  1  0
  7 24  4  0
  7 26  4  0
  8 28  1  0
  9 13  2  0
 10 18  1  0
 10 21  4  0
 10 30  4  0
 11 17  2  0
 12 18  1  0
 13 15  1  0
 14 24  1  0
 15 25  1  0
 16 28  2  0
 17 20  1  0
 19 24  4  0
 20 23  1  0
 21 22  4  0
 22 23  4  0
 25 26  4  0
 27 29  2  0
M  END
$$$$

 Created by Python create_sdf_string function

 30 33  0  0  0  0  0  0  0  0999 V2000
    8.3036    9.8571   18.4133 C   0  0  0  0  0  0  0  0  0  0  0  0
    8.3694    7.6612   22.6703 C   0  0  0  0  0  0  0  0  0  0  0  0
    8.4143    6.6863   16.2273 C   0  0  0  0  0  0  0  0  0  0  0  0
   10.7581    6.5674   21.7636 C   0  0  0  0  0  0  0  0  0  0  0  0
    8.4452    8.7960   19.2958 O   0  0  0  0  0  0  0  0  0  0  0  0
    8.7122    6.7842   24.8569 C   0  0  0  0  0  0  0  0  0  0  0  0
   10.3400    6.1726   14.3081 C   0  0  0  0  0  0  0  0  0  0  0  0
    7.4297    7.5873   24.8962 C   0  0  0  0  0  0  0  0  0  0  0  0
    8.1566   10.0536   16.0516 O   0  0  0  0  0  0  0  0  0  0  0  0
   12.4989    6.2074   20.1776 C   0  0  0  0  0  0  0  0  0  0  0  0
    6.9192    9.1053   20.9073 O   0  0  0  0  0  0  0  0  0  0  0  0
   14.3979    6.0729   18.7784 C   0  0  0  0  0  0  0  0  0  0  0  0
    8.6811    9.5354   16.9998 C   0  0  0  0  0  0  0  0  0  0  0  0
    9.2512    4.2713   13.7653 O   0  0  0  0  0  0  0  0  0  0  0  0
    9.6495    8.6317   16.8332 N   0  0  0  0  0  0  0  0  0  0  0  0
    6.2934    8.6988   23.1988 O   0  0  0  0  0  0  0  0  0  0  0  0
    7.9806    8.6543   20.5437 C   0  0  0  0  0  0  0  0  0  0  0  0
   13.7270    5.7144   19.8610 O   0  0  0  0  0  0  0  0  0  0  0  0
    8.3351    5.5235   15.4478 C   0  0  0  0  0  0  0  0  0  0  0  0
    8.7700    7.8434   21.3915 C   0  0  0  0  0  0  0  0  0  0  0  0
   11.7856    6.8851   19.2401 C   0  0  0  0  0  0  0  0  0  0  0  0
   10.5281    7.4276   19.5649 C   0  0  0  0  0  0  0  0  0  0  0  0
   10.0256    7.2907   20.8484 C   0  0  0  0  0  0  0  0  0  0  0  0
    9.3113    5.3049   14.4911 C   0  0  0  0  0  0  0  0  0  0  0  0
    9.4607    7.5646   16.0139 C   0  0  0  0  0  0  0  0  0  0  0  0
   10.4192    7.3157   15.0955 C   0  0  0  0  0  0  0  0  0  0  0  0
   10.2489    6.4227   23.0218 N   0  0  0  0  0  0  0  0  0  0  0  0
    7.2472    8.0746   23.5050 C   0  0  0  0  0  0  0  0  0  0  0  0
    9.2051    6.9101   23.4604 C   0  0  0  0  0  0  0  0  0  0  0  0
   11.9646    6.0299   21.4251 C   0  0  0  0  0  0  0  0  0  0  0  0
  1  5  1  0
  1 13  1  0
  2 20  2  0
  2 28  1  0
  2 29  1  0
  3 19  4  0
  3 25  4  0
  4 23  4  0
  4 27  1  0
  4 30  4  0
  5 17  1  0
  6  8  1  0
  6 29  1  0
  7 24  4  0
  7 26  4  0
  8 28  1  0
  9 13  2  0
 10 18  1  0
 10 21  4  0
 10 30  4  0
 11 17  2  0
 12 18  1  0
 13 15  1  0
 14 24  1  0
 15 25  1  0
 16 28  2  0
 17 20  1  0
 19 24  4  0
 20 23  1  0
 21 22  4  0
 22 23  4  0
 25 26  4  0
 27 29  2  0
M  END
$$$$

 Created by Python create_sdf_string function

 30 33  0  0  0  0  0  0  0  0999 V2000
    8.3036    9.8571   18.4133 C   0  0  0  0  0  0  0  0  0  0  0  0
    8.3694    7.6612   22.6703 C   0  0  0  0  0  0  0  0  0  0  0  0
    8.4143    6.6863   16.2273 C   0  0  0  0  0  0  0  0  0  0  0  0
   10.7581    6.5674   21.7636 C   0  0  0  0  0  0  0  0  0  0  0  0
    8.4452    8.7960   19.2958 O   0  0  0  0  0  0  0  0  0  0  0  0
    8.7122    6.7842   24.8569 C   0  0  0  0  0  0  0  0  0  0  0  0
   10.3400    6.1726   14.3081 C   0  0  0  0  0  0  0  0  0  0  0  0
    7.4297    7.5873   24.8962 C   0  0  0  0  0  0  0  0  0  0  0  0
    8.1566   10.0536   16.0516 O   0  0  0  0  0  0  0  0  0  0  0  0
   12.4989    6.2074   20.1776 C   0  0  0  0  0  0  0  0  0  0  0  0
    6.9192    9.1053   20.9073 O   0  0  0  0  0  0  0  0  0  0  0  0
   14.3979    6.0729   18.7784 C   0  0  0  0  0  0  0  0  0  0  0  0
    8.6811    9.5354   16.9998 C   0  0  0  0  0  0  0  0  0  0  0  0
    9.2512    4.2713   13.7653 O   0  0  0  0  0  0  0  0  0  0  0  0
    9.6495    8.6317   16.8332 N   0  0  0  0  0  0  0  0  0  0  0  0
    6.2934    8.6988   23.1988 O   0  0  0  0  0  0  0  0  0  0  0  0
    7.9806    8.6543   20.5437 C   0  0  0  0  0  0  0  0  0  0  0  0
   13.7270    5.7144   19.8610 O   0  0  0  0  0  0  0  0  0  0  0  0
    8.3351    5.5235   15.4478 C   0  0  0  0  0  0  0  0  0  0  0  0
    8.7700    7.8434   21.3915 C   0  0  0  0  0  0  0  0  0  0  0  0
   11.7856    6.8851   19.2401 C   0  0  0  0  0  0  0  0  0  0  0  0
   10.5281    7.4276   19.5649 C   0  0  0  0  0  0  0  0  0  0  0  0
   10.0256    7.2907   20.8484 C   0  0  0  0  0  0  0  0  0  0  0  0
    9.3113    5.3049   14.4911 C   0  0  0  0  0  0  0  0  0  0  0  0
    9.4607    7.5646   16.0139 C   0  0  0  0  0  0  0  0  0  0  0  0
   10.4192    7.3157   15.0955 C   0  0  0  0  0  0  0  0  0  0  0  0
   10.2489    6.4227   23.0218 N   0  0  0  0  0  0  0  0  0  0  0  0
    7.2472    8.0746   23.5050 C   0  0  0  0  0  0  0  0  0  0  0  0
    9.2051    6.9101   23.4604 C   0  0  0  0  0  0  0  0  0  0  0  0
   11.9646    6.0299   21.4251 C   0  0  0  0  0  0  0  0  0  0  0  0
  1  5  1  0
  1 13  1  0
  2 20  2  0
  2 28  1  0
  2 29  1  0
  3 19  4  0
  3 25  4  0
  4 23  4  0
  4 27  1  0
  4 30  4  0
  5 17  1  0
  6  8  1  0
  6 29  1  0
  7 24  4  0
  7 26  4  0
  8 28  1  0
  9 13  2  0
 10 18  1  0
 10 21  4  0
 10 30  4  0
 11 17  2  0
 12 18  1  0
 13 15  1  0
 14 24  1  0
 15 25  1  0
 16 28  2  0
 17 20  1  0
 19 24  4  0
 20 23  1  0
 21 22  4  0
 22 23  4  0
 25 26  4  0
 27 29  2  0
M  END
$$$$

 Created by Python create_sdf_string function

 30 33  0  0  0  0  0  0  0  0999 V2000
    8.3036    9.8571   18.4133 C   0  0  0  0  0  0  0  0  0  0  0  0
    8.3694    7.6612   22.6703 C   0  0  0  0  0  0  0  0  0  0  0  0
    8.4143    6.6863   16.2273 C   0  0  0  0  0  0  0  0  0  0  0  0
   10.7581    6.5674   21.7636 C   0  0  0  0  0  0  0  0  0  0  0  0
    8.4452    8.7960   19.2958 O   0  0  0  0  0  0  0  0  0  0  0  0
    8.7122    6.7842   24.8569 C   0  0  0  0  0  0  0  0  0  0  0  0
   10.3400    6.1726   14.3081 C   0  0  0  0  0  0  0  0  0  0  0  0
    7.4297    7.5873   24.8962 C   0  0  0  0  0  0  0  0  0  0  0  0
    8.1566   10.0536   16.0516 O   0  0  0  0  0  0  0  0  0  0  0  0
   12.4989    6.2074   20.1776 C   0  0  0  0  0  0  0  0  0  0  0  0
    6.9192    9.1053   20.9073 O   0  0  0  0  0  0  0  0  0  0  0  0
   14.3979    6.0729   18.7784 C   0  0  0  0  0  0  0  0  0  0  0  0
    8.6811    9.5354   16.9998 C   0  0  0  0  0  0  0  0  0  0  0  0
    9.2512    4.2713   13.7653 O   0  0  0  0  0  0  0  0  0  0  0  0
    9.6495    8.6317   16.8332 N   0  0  0  0  0  0  0  0  0  0  0  0
    6.2934    8.6988   23.1988 O   0  0  0  0  0  0  0  0  0  0  0  0
    7.9806    8.6543   20.5437 C   0  0  0  0  0  0  0  0  0  0  0  0
   13.7270    5.7144   19.8610 O   0  0  0  0  0  0  0  0  0  0  0  0
    8.3351    5.5235   15.4478 C   0  0  0  0  0  0  0  0  0  0  0  0
    8.7700    7.8434   21.3915 C   0  0  0  0  0  0  0  0  0  0  0  0
   11.7856    6.8851   19.2401 C   0  0  0  0  0  0  0  0  0  0  0  0
   10.5281    7.4276   19.5649 C   0  0  0  0  0  0  0  0  0  0  0  0
   10.0256    7.2907   20.8484 C   0  0  0  0  0  0  0  0  0  0  0  0
    9.3113    5.3049   14.4911 C   0  0  0  0  0  0  0  0  0  0  0  0
    9.4607    7.5646   16.0139 C   0  0  0  0  0  0  0  0  0  0  0  0
   10.4192    7.3157   15.0955 C   0  0  0  0  0  0  0  0  0  0  0  0
   10.2489    6.4227   23.0218 N   0  0  0  0  0  0  0  0  0  0  0  0
    7.2472    8.0746   23.5050 C   0  0  0  0  0  0  0  0  0  0  0  0
    9.2051    6.9101   23.4604 C   0  0  0  0  0  0  0  0  0  0  0  0
   11.9646    6.0299   21.4251 C   0  0  0  0  0  0  0  0  0  0  0  0
  1  5  1  0
  1 13  1  0
  2 20  2  0
  2 28  1  0
  2 29  1  0
  3 19  4  0
  3 25  4  0
  4 23  4  0
  4 27  1  0
  4 30  4  0
  5 17  1  0
  6  8  1  0
  6 29  1  0
  7 24  4  0
  7 26  4  0
  8 28  1  0
  9 13  2  0
 10 18  1  0
 10 21  4  0
 10 30  4  0
 11 17  2  0
 12 18  1  0
 13 15  1  0
 14 24  1  0
 15 25  1  0
 16 28  2  0
 17 20  1  0
 19 24  4  0
 20 23  1  0
 21 22  4  0
 22 23  4  0
 25 26  4  0
 27 29  2  0
M  END
$$$$

 Created by Python create_sdf_string function

 30 33  0  0  0  0  0  0  0  0999 V2000
    8.3036    9.8571   18.4133 C   0  0  0  0  0  0  0  0  0  0  0  0
    8.3694    7.6612   22.6703 C   0  0  0  0  0  0  0  0  0  0  0  0
    8.4143    6.6863   16.2273 C   0  0  0  0  0  0  0  0  0  0  0  0
   10.7581    6.5674   21.7636 C   0  0  0  0  0  0  0  0  0  0  0  0
    8.4452    8.7960   19.2958 O   0  0  0  0  0  0  0  0  0  0  0  0
    8.7122    6.7842   24.8569 C   0  0  0  0  0  0  0  0  0  0  0  0
   10.3400    6.1726   14.3081 C   0  0  0  0  0  0  0  0  0  0  0  0
    7.4297    7.5873   24.8962 C   0  0  0  0  0  0  0  0  0  0  0  0
    8.1566   10.0536   16.0516 O   0  0  0  0  0  0  0  0  0  0  0  0
   12.4989    6.2074   20.1776 C   0  0  0  0  0  0  0  0  0  0  0  0
    6.9192    9.1053   20.9073 O   0  0  0  0  0  0  0  0  0  0  0  0
   14.3979    6.0729   18.7784 C   0  0  0  0  0  0  0  0  0  0  0  0
    8.6811    9.5354   16.9998 C   0  0  0  0  0  0  0  0  0  0  0  0
    9.2512    4.2713   13.7653 O   0  0  0  0  0  0  0  0  0  0  0  0
    9.6495    8.6317   16.8332 N   0  0  0  0  0  0  0  0  0  0  0  0
    6.2934    8.6988   23.1988 O   0  0  0  0  0  0  0  0  0  0  0  0
    7.9806    8.6543   20.5437 C   0  0  0  0  0  0  0  0  0  0  0  0
   13.7270    5.7144   19.8610 O   0  0  0  0  0  0  0  0  0  0  0  0
    8.3351    5.5235   15.4478 C   0  0  0  0  0  0  0  0  0  0  0  0
    8.7700    7.8434   21.3915 C   0  0  0  0  0  0  0  0  0  0  0  0
   11.7856    6.8851   19.2401 C   0  0  0  0  0  0  0  0  0  0  0  0
   10.5281    7.4276   19.5649 C   0  0  0  0  0  0  0  0  0  0  0  0
   10.0256    7.2907   20.8484 C   0  0  0  0  0  0  0  0  0  0  0  0
    9.3113    5.3049   14.4911 C   0  0  0  0  0  0  0  0  0  0  0  0
    9.4607    7.5646   16.0139 C   0  0  0  0  0  0  0  0  0  0  0  0
   10.4192    7.3157   15.0955 C   0  0  0  0  0  0  0  0  0  0  0  0
   10.2489    6.4227   23.0218 N   0  0  0  0  0  0  0  0  0  0  0  0
    7.2472    8.0746   23.5050 C   0  0  0  0  0  0  0  0  0  0  0  0
    9.2051    6.9101   23.4604 C   0  0  0  0  0  0  0  0  0  0  0  0
   11.9646    6.0299   21.4251 C   0  0  0  0  0  0  0  0  0  0  0  0
  1  5  1  0
  1 13  1  0
  2 20  2  0
  2 28  1  0
  2 29  1  0
  3 19  4  0
  3 25  4  0
  4 23  4  0
  4 27  1  0
  4 30  4  0
  5 17  1  0
  6  8  1  0
  6 29  1  0
  7 24  4  0
  7 26  4  0
  8 28  1  0
  9 13  2  0
 10 18  1  0
 10 21  4  0
 10 30  4  0
 11 17  2  0
 12 18  1  0
 13 15  1  0
 14 24  1  0
 15 25  1  0
 16 28  2  0
 17 20  1  0
 19 24  4  0
 20 23  1  0
 21 22  4  0
 22 23  4  0
 25 26  4  0
 27 29  2  0
M  END
$$$$

 Created by Python create_sdf_string function

 30 33  0  0  0  0  0  0  0  0999 V2000
    8.3036    9.8571   18.4133 C   0  0  0  0  0  0  0  0  0  0  0  0
    8.3694    7.6612   22.6703 C   0  0  0  0  0  0  0  0  0  0  0  0
    8.4143    6.6863   16.2273 C   0  0  0  0  0  0  0  0  0  0  0  0
   10.7581    6.5674   21.7636 C   0  0  0  0  0  0  0  0  0  0  0  0
    8.4452    8.7960   19.2958 O   0  0  0  0  0  0  0  0  0  0  0  0
    8.7122    6.7842   24.8569 C   0  0  0  0  0  0  0  0  0  0  0  0
   10.3400    6.1726   14.3081 C   0  0  0  0  0  0  0  0  0  0  0  0
    7.4297    7.5873   24.8962 C   0  0  0  0  0  0  0  0  0  0  0  0
    8.1566   10.0536   16.0516 O   0  0  0  0  0  0  0  0  0  0  0  0
   12.4989    6.2074   20.1776 C   0  0  0  0  0  0  0  0  0  0  0  0
    6.9192    9.1053   20.9073 O   0  0  0  0  0  0  0  0  0  0  0  0
   14.3979    6.0729   18.7784 C   0  0  0  0  0  0  0  0  0  0  0  0
    8.6811    9.5354   16.9998 C   0  0  0  0  0  0  0  0  0  0  0  0
    9.2512    4.2713   13.7653 O   0  0  0  0  0  0  0  0  0  0  0  0
    9.6495    8.6317   16.8332 N   0  0  0  0  0  0  0  0  0  0  0  0
    6.2934    8.6988   23.1988 O   0  0  0  0  0  0  0  0  0  0  0  0
    7.9806    8.6543   20.5437 C   0  0  0  0  0  0  0  0  0  0  0  0
   13.7270    5.7144   19.8610 O   0  0  0  0  0  0  0  0  0  0  0  0
    8.3351    5.5235   15.4478 C   0  0  0  0  0  0  0  0  0  0  0  0
    8.7700    7.8434   21.3915 C   0  0  0  0  0  0  0  0  0  0  0  0
   11.7856    6.8851   19.2401 C   0  0  0  0  0  0  0  0  0  0  0  0
   10.5281    7.4276   19.5649 C   0  0  0  0  0  0  0  0  0  0  0  0
   10.0256    7.2907   20.8484 C   0  0  0  0  0  0  0  0  0  0  0  0
    9.3113    5.3049   14.4911 C   0  0  0  0  0  0  0  0  0  0  0  0
    9.4607    7.5646   16.0139 C   0  0  0  0  0  0  0  0  0  0  0  0
   10.4192    7.3157   15.0955 C   0  0  0  0  0  0  0  0  0  0  0  0
   10.2489    6.4227   23.0218 N   0  0  0  0  0  0  0  0  0  0  0  0
    7.2472    8.0746   23.5050 C   0  0  0  0  0  0  0  0  0  0  0  0
    9.2051    6.9101   23.4604 C   0  0  0  0  0  0  0  0  0  0  0  0
   11.9646    6.0299   21.4251 C   0  0  0  0  0  0  0  0  0  0  0  0
  1  5  1  0
  1 13  1  0
  2 20  2  0
  2 28  1  0
  2 29  1  0
  3 19  4  0
  3 25  4  0
  4 23  4  0
  4 27  1  0
  4 30  4  0
  5 17  1  0
  6  8  1  0
  6 29  1  0
  7 24  4  0
  7 26  4  0
  8 28  1  0
  9 13  2  0
 10 18  1  0
 10 21  4  0
 10 30  4  0
 11 17  2  0
 12 18  1  0
 13 15  1  0
 14 24  1  0
 15 25  1  0
 16 28  2  0
 17 20  1  0
 19 24  4  0
 20 23  1  0
 21 22  4  0
 22 23  4  0
 25 26  4  0
 27 29  2  0
M  END
$$$$

 Created by Python create_sdf_string function

 30 33  0  0  0  0  0  0  0  0999 V2000
    8.3036    9.8571   18.4133 C   0  0  0  0  0  0  0  0  0  0  0  0
    8.3694    7.6612   22.6703 C   0  0  0  0  0  0  0  0  0  0  0  0
    8.4143    6.6863   16.2273 C   0  0  0  0  0  0  0  0  0  0  0  0
   10.7581    6.5674   21.7636 C   0  0  0  0  0  0  0  0  0  0  0  0
    8.4452    8.7960   19.2958 O   0  0  0  0  0  0  0  0  0  0  0  0
    8.7122    6.7842   24.8569 C   0  0  0  0  0  0  0  0  0  0  0  0
   10.3400    6.1726   14.3081 C   0  0  0  0  0  0  0  0  0  0  0  0
    7.4297    7.5873   24.8962 C   0  0  0  0  0  0  0  0  0  0  0  0
    8.1566   10.0536   16.0516 O   0  0  0  0  0  0  0  0  0  0  0  0
   12.4989    6.2074   20.1776 C   0  0  0  0  0  0  0  0  0  0  0  0
    6.9192    9.1053   20.9073 O   0  0  0  0  0  0  0  0  0  0  0  0
   14.3979    6.0729   18.7784 C   0  0  0  0  0  0  0  0  0  0  0  0
    8.6811    9.5354   16.9998 C   0  0  0  0  0  0  0  0  0  0  0  0
    9.2512    4.2713   13.7653 O   0  0  0  0  0  0  0  0  0  0  0  0
    9.6495    8.6317   16.8332 N   0  0  0  0  0  0  0  0  0  0  0  0
    6.2934    8.6988   23.1988 O   0  0  0  0  0  0  0  0  0  0  0  0
    7.9806    8.6543   20.5437 C   0  0  0  0  0  0  0  0  0  0  0  0
   13.7270    5.7144   19.8610 O   0  0  0  0  0  0  0  0  0  0  0  0
    8.3351    5.5235   15.4478 C   0  0  0  0  0  0  0  0  0  0  0  0
    8.7700    7.8434   21.3915 C   0  0  0  0  0  0  0  0  0  0  0  0
   11.7856    6.8851   19.2401 C   0  0  0  0  0  0  0  0  0  0  0  0
   10.5281    7.4276   19.5649 C   0  0  0  0  0  0  0  0  0  0  0  0
   10.0256    7.2907   20.8484 C   0  0  0  0  0  0  0  0  0  0  0  0
    9.3113    5.3049   14.4911 C   0  0  0  0  0  0  0  0  0  0  0  0
    9.4607    7.5646   16.0139 C   0  0  0  0  0  0  0  0  0  0  0  0
   10.4192    7.3157   15.0955 C   0  0  0  0  0  0  0  0  0  0  0  0
   10.2489    6.4227   23.0218 N   0  0  0  0  0  0  0  0  0  0  0  0
    7.2472    8.0746   23.5050 C   0  0  0  0  0  0  0  0  0  0  0  0
    9.2051    6.9101   23.4604 C   0  0  0  0  0  0  0  0  0  0  0  0
   11.9646    6.0299   21.4251 C   0  0  0  0  0  0  0  0  0  0  0  0
  1  5  1  0
  1 13  1  0
  2 20  2  0
  2 28  1  0
  2 29  1  0
  3 19  4  0
  3 25  4  0
  4 23  4  0
  4 27  1  0
  4 30  4  0
  5 17  1  0
  6  8  1  0
  6 29  1  0
  7 24  4  0
  7 26  4  0
  8 28  1  0
  9 13  2  0
 10 18  1  0
 10 21  4  0
 10 30  4  0
 11 17  2  0
 12 18  1  0
 13 15  1  0
 14 24  1  0
 15 25  1  0
 16 28  2  0
 17 20  1  0
 19 24  4  0
 20 23  1  0
 21 22  4  0
 22 23  4  0
 25 26  4  0
 27 29  2  0
M  END
$$$$

 Created by Python create_sdf_string function

 30 33  0  0  0  0  0  0  0  0999 V2000
    8.3036    9.8571   18.4133 C   0  0  0  0  0  0  0  0  0  0  0  0
    8.3694    7.6612   22.6703 C   0  0  0  0  0  0  0  0  0  0  0  0
    8.4143    6.6863   16.2273 C   0  0  0  0  0  0  0  0  0  0  0  0
   10.7581    6.5674   21.7636 C   0  0  0  0  0  0  0  0  0  0  0  0
    8.4452    8.7960   19.2958 O   0  0  0  0  0  0  0  0  0  0  0  0
    8.7122    6.7842   24.8569 C   0  0  0  0  0  0  0  0  0  0  0  0
   10.3400    6.1726   14.3081 C   0  0  0  0  0  0  0  0  0  0  0  0
    7.4297    7.5873   24.8962 C   0  0  0  0  0  0  0  0  0  0  0  0
    8.1566   10.0536   16.0516 O   0  0  0  0  0  0  0  0  0  0  0  0
   12.4989    6.2074   20.1776 C   0  0  0  0  0  0  0  0  0  0  0  0
    6.9192    9.1053   20.9073 O   0  0  0  0  0  0  0  0  0  0  0  0
   14.3979    6.0729   18.7784 C   0  0  0  0  0  0  0  0  0  0  0  0
    8.6811    9.5354   16.9998 C   0  0  0  0  0  0  0  0  0  0  0  0
    9.2512    4.2713   13.7653 O   0  0  0  0  0  0  0  0  0  0  0  0
    9.6495    8.6317   16.8332 N   0  0  0  0  0  0  0  0  0  0  0  0
    6.2934    8.6988   23.1988 O   0  0  0  0  0  0  0  0  0  0  0  0
    7.9806    8.6543   20.5437 C   0  0  0  0  0  0  0  0  0  0  0  0
   13.7270    5.7144   19.8610 O   0  0  0  0  0  0  0  0  0  0  0  0
    8.3351    5.5235   15.4478 C   0  0  0  0  0  0  0  0  0  0  0  0
    8.7700    7.8434   21.3915 C   0  0  0  0  0  0  0  0  0  0  0  0
   11.7856    6.8851   19.2401 C   0  0  0  0  0  0  0  0  0  0  0  0
   10.5281    7.4276   19.5649 C   0  0  0  0  0  0  0  0  0  0  0  0
   10.0256    7.2907   20.8484 C   0  0  0  0  0  0  0  0  0  0  0  0
    9.3113    5.3049   14.4911 C   0  0  0  0  0  0  0  0  0  0  0  0
    9.4607    7.5646   16.0139 C   0  0  0  0  0  0  0  0  0  0  0  0
   10.4192    7.3157   15.0955 C   0  0  0  0  0  0  0  0  0  0  0  0
   10.2489    6.4227   23.0218 N   0  0  0  0  0  0  0  0  0  0  0  0
    7.2472    8.0746   23.5050 C   0  0  0  0  0  0  0  0  0  0  0  0
    9.2051    6.9101   23.4604 C   0  0  0  0  0  0  0  0  0  0  0  0
   11.9646    6.0299   21.4251 C   0  0  0  0  0  0  0  0  0  0  0  0
  1  5  1  0
  1 13  1  0
  2 20  2  0
  2 28  1  0
  2 29  1  0
  3 19  4  0
  3 25  4  0
  4 23  4  0
  4 27  1  0
  4 30  4  0
  5 17  1  0
  6  8  1  0
  6 29  1  0
  7 24  4  0
  7 26  4  0
  8 28  1  0
  9 13  2  0
 10 18  1  0
 10 21  4  0
 10 30  4  0
 11 17  2  0
 12 18  1  0
 13 15  1  0
 14 24  1  0
 15 25  1  0
 16 28  2  0
 17 20  1  0
 19 24  4  0
 20 23  1  0
 21 22  4  0
 22 23  4  0
 25 26  4  0
 27 29  2  0
M  END
$$$$

 Created by Python create_sdf_string function

 30 33  0  0  0  0  0  0  0  0999 V2000
    8.3036    9.8571   18.4133 C   0  0  0  0  0  0  0  0  0  0  0  0
    8.3694    7.6612   22.6703 C   0  0  0  0  0  0  0  0  0  0  0  0
    8.4143    6.6863   16.2273 C   0  0  0  0  0  0  0  0  0  0  0  0
   10.7581    6.5674   21.7636 C   0  0  0  0  0  0  0  0  0  0  0  0
    8.4452    8.7960   19.2958 O   0  0  0  0  0  0  0  0  0  0  0  0
    8.7122    6.7842   24.8569 C   0  0  0  0  0  0  0  0  0  0  0  0
   10.3400    6.1726   14.3081 C   0  0  0  0  0  0  0  0  0  0  0  0
    7.4297    7.5873   24.8962 C   0  0  0  0  0  0  0  0  0  0  0  0
    8.1566   10.0536   16.0516 O   0  0  0  0  0  0  0  0  0  0  0  0
   12.4989    6.2074   20.1776 C   0  0  0  0  0  0  0  0  0  0  0  0
    6.9192    9.1053   20.9073 O   0  0  0  0  0  0  0  0  0  0  0  0
   14.3979    6.0729   18.7784 C   0  0  0  0  0  0  0  0  0  0  0  0
    8.6811    9.5354   16.9998 C   0  0  0  0  0  0  0  0  0  0  0  0
    9.2512    4.2713   13.7653 O   0  0  0  0  0  0  0  0  0  0  0  0
    9.6495    8.6317   16.8332 N   0  0  0  0  0  0  0  0  0  0  0  0
    6.2934    8.6988   23.1988 O   0  0  0  0  0  0  0  0  0  0  0  0
    7.9806    8.6543   20.5437 C   0  0  0  0  0  0  0  0  0  0  0  0
   13.7270    5.7144   19.8610 O   0  0  0  0  0  0  0  0  0  0  0  0
    8.3351    5.5235   15.4478 C   0  0  0  0  0  0  0  0  0  0  0  0
    8.7700    7.8434   21.3915 C   0  0  0  0  0  0  0  0  0  0  0  0
   11.7856    6.8851   19.2401 C   0  0  0  0  0  0  0  0  0  0  0  0
   10.5281    7.4276   19.5649 C   0  0  0  0  0  0  0  0  0  0  0  0
   10.0256    7.2907   20.8484 C   0  0  0  0  0  0  0  0  0  0  0  0
    9.3113    5.3049   14.4911 C   0  0  0  0  0  0  0  0  0  0  0  0
    9.4607    7.5646   16.0139 C   0  0  0  0  0  0  0  0  0  0  0  0
   10.4192    7.3157   15.0955 C   0  0  0  0  0  0  0  0  0  0  0  0
   10.2489    6.4227   23.0218 N   0  0  0  0  0  0  0  0  0  0  0  0
    7.2472    8.0746   23.5050 C   0  0  0  0  0  0  0  0  0  0  0  0
    9.2051    6.9101   23.4604 C   0  0  0  0  0  0  0  0  0  0  0  0
   11.9646    6.0299   21.4251 C   0  0  0  0  0  0  0  0  0  0  0  0
  1  5  1  0
  1 13  1  0
  2 20  2  0
  2 28  1  0
  2 29  1  0
  3 19  4  0
  3 25  4  0
  4 23  4  0
  4 27  1  0
  4 30  4  0
  5 17  1  0
  6  8  1  0
  6 29  1  0
  7 24  4  0
  7 26  4  0
  8 28  1  0
  9 13  2  0
 10 18  1  0
 10 21  4  0
 10 30  4  0
 11 17  2  0
 12 18  1  0
 13 15  1  0
 14 24  1  0
 15 25  1  0
 16 28  2  0
 17 20  1  0
 19 24  4  0
 20 23  1  0
 21 22  4  0
 22 23  4  0
 25 26  4  0
 27 29  2  0
M  END
$$$$

 Created by Python create_sdf_string function

 30 33  0  0  0  0  0  0  0  0999 V2000
    8.3036    9.8571   18.4133 C   0  0  0  0  0  0  0  0  0  0  0  0
    8.3694    7.6612   22.6703 C   0  0  0  0  0  0  0  0  0  0  0  0
    8.4143    6.6863   16.2273 C   0  0  0  0  0  0  0  0  0  0  0  0
   10.7581    6.5674   21.7636 C   0  0  0  0  0  0  0  0  0  0  0  0
    8.4452    8.7960   19.2958 O   0  0  0  0  0  0  0  0  0  0  0  0
    8.7122    6.7842   24.8569 C   0  0  0  0  0  0  0  0  0  0  0  0
   10.3400    6.1726   14.3081 C   0  0  0  0  0  0  0  0  0  0  0  0
    7.4297    7.5873   24.8962 C   0  0  0  0  0  0  0  0  0  0  0  0
    8.1566   10.0536   16.0516 O   0  0  0  0  0  0  0  0  0  0  0  0
   12.4989    6.2074   20.1776 C   0  0  0  0  0  0  0  0  0  0  0  0
    6.9192    9.1053   20.9073 O   0  0  0  0  0  0  0  0  0  0  0  0
   14.3979    6.0729   18.7784 C   0  0  0  0  0  0  0  0  0  0  0  0
    8.6811    9.5354   16.9998 C   0  0  0  0  0  0  0  0  0  0  0  0
    9.2512    4.2713   13.7653 O   0  0  0  0  0  0  0  0  0  0  0  0
    9.6495    8.6317   16.8332 N   0  0  0  0  0  0  0  0  0  0  0  0
    6.2934    8.6988   23.1988 O   0  0  0  0  0  0  0  0  0  0  0  0
    7.9806    8.6543   20.5437 C   0  0  0  0  0  0  0  0  0  0  0  0
   13.7270    5.7144   19.8610 O   0  0  0  0  0  0  0  0  0  0  0  0
    8.3351    5.5235   15.4478 C   0  0  0  0  0  0  0  0  0  0  0  0
    8.7700    7.8434   21.3915 C   0  0  0  0  0  0  0  0  0  0  0  0
   11.7856    6.8851   19.2401 C   0  0  0  0  0  0  0  0  0  0  0  0
   10.5281    7.4276   19.5649 C   0  0  0  0  0  0  0  0  0  0  0  0
   10.0256    7.2907   20.8484 C   0  0  0  0  0  0  0  0  0  0  0  0
    9.3113    5.3049   14.4911 C   0  0  0  0  0  0  0  0  0  0  0  0
    9.4607    7.5646   16.0139 C   0  0  0  0  0  0  0  0  0  0  0  0
   10.4192    7.3157   15.0955 C   0  0  0  0  0  0  0  0  0  0  0  0
   10.2489    6.4227   23.0218 N   0  0  0  0  0  0  0  0  0  0  0  0
    7.2472    8.0746   23.5050 C   0  0  0  0  0  0  0  0  0  0  0  0
    9.2051    6.9101   23.4604 C   0  0  0  0  0  0  0  0  0  0  0  0
   11.9646    6.0299   21.4251 C   0  0  0  0  0  0  0  0  0  0  0  0
  1  5  1  0
  1 13  1  0
  2 20  2  0
  2 28  1  0
  2 29  1  0
  3 19  4  0
  3 25  4  0
  4 23  4  0
  4 27  1  0
  4 30  4  0
  5 17  1  0
  6  8  1  0
  6 29  1  0
  7 24  4  0
  7 26  4  0
  8 28  1  0
  9 13  2  0
 10 18  1  0
 10 21  4  0
 10 30  4  0
 11 17  2  0
 12 18  1  0
 13 15  1  0
 14 24  1  0
 15 25  1  0
 16 28  2  0
 17 20  1  0
 19 24  4  0
 20 23  1  0
 21 22  4  0
 22 23  4  0
 25 26  4  0
 27 29  2  0
M  END
$$$$

 Created by Python create_sdf_string function

 30 33  0  0  0  0  0  0  0  0999 V2000
    8.3036    9.8571   18.4133 C   0  0  0  0  0  0  0  0  0  0  0  0
    8.3694    7.6612   22.6703 C   0  0  0  0  0  0  0  0  0  0  0  0
    8.4143    6.6863   16.2273 C   0  0  0  0  0  0  0  0  0  0  0  0
   10.7581    6.5674   21.7636 C   0  0  0  0  0  0  0  0  0  0  0  0
    8.4452    8.7960   19.2958 O   0  0  0  0  0  0  0  0  0  0  0  0
    8.7122    6.7842   24.8569 C   0  0  0  0  0  0  0  0  0  0  0  0
   10.3400    6.1726   14.3081 C   0  0  0  0  0  0  0  0  0  0  0  0
    7.4297    7.5873   24.8962 C   0  0  0  0  0  0  0  0  0  0  0  0
    8.1566   10.0536   16.0516 O   0  0  0  0  0  0  0  0  0  0  0  0
   12.4989    6.2074   20.1776 C   0  0  0  0  0  0  0  0  0  0  0  0
    6.9192    9.1053   20.9073 O   0  0  0  0  0  0  0  0  0  0  0  0
   14.3979    6.0729   18.7784 C   0  0  0  0  0  0  0  0  0  0  0  0
    8.6811    9.5354   16.9998 C   0  0  0  0  0  0  0  0  0  0  0  0
    9.2512    4.2713   13.7653 O   0  0  0  0  0  0  0  0  0  0  0  0
    9.6495    8.6317   16.8332 N   0  0  0  0  0  0  0  0  0  0  0  0
    6.2934    8.6988   23.1988 O   0  0  0  0  0  0  0  0  0  0  0  0
    7.9806    8.6543   20.5437 C   0  0  0  0  0  0  0  0  0  0  0  0
   13.7270    5.7144   19.8610 O   0  0  0  0  0  0  0  0  0  0  0  0
    8.3351    5.5235   15.4478 C   0  0  0  0  0  0  0  0  0  0  0  0
    8.7700    7.8434   21.3915 C   0  0  0  0  0  0  0  0  0  0  0  0
   11.7856    6.8851   19.2401 C   0  0  0  0  0  0  0  0  0  0  0  0
   10.5281    7.4276   19.5649 C   0  0  0  0  0  0  0  0  0  0  0  0
   10.0256    7.2907   20.8484 C   0  0  0  0  0  0  0  0  0  0  0  0
    9.3113    5.3049   14.4911 C   0  0  0  0  0  0  0  0  0  0  0  0
    9.4607    7.5646   16.0139 C   0  0  0  0  0  0  0  0  0  0  0  0
   10.4192    7.3157   15.0955 C   0  0  0  0  0  0  0  0  0  0  0  0
   10.2489    6.4227   23.0218 N   0  0  0  0  0  0  0  0  0  0  0  0
    7.2472    8.0746   23.5050 C   0  0  0  0  0  0  0  0  0  0  0  0
    9.2051    6.9101   23.4604 C   0  0  0  0  0  0  0  0  0  0  0  0
   11.9646    6.0299   21.4251 C   0  0  0  0  0  0  0  0  0  0  0  0
  1  5  1  0
  1 13  1  0
  2 20  2  0
  2 28  1  0
  2 29  1  0
  3 19  4  0
  3 25  4  0
  4 23  4  0
  4 27  1  0
  4 30  4  0
  5 17  1  0
  6  8  1  0
  6 29  1  0
  7 24  4  0
  7 26  4  0
  8 28  1  0
  9 13  2  0
 10 18  1  0
 10 21  4  0
 10 30  4  0
 11 17  2  0
 12 18  1  0
 13 15  1  0
 14 24  1  0
 15 25  1  0
 16 28  2  0
 17 20  1  0
 19 24  4  0
 20 23  1  0
 21 22  4  0
 22 23  4  0
 25 26  4  0
 27 29  2  0
M  END
$$$$

 Created by Python create_sdf_string function

 30 33  0  0  0  0  0  0  0  0999 V2000
    8.3036    9.8571   18.4133 C   0  0  0  0  0  0  0  0  0  0  0  0
    8.3694    7.6612   22.6703 C   0  0  0  0  0  0  0  0  0  0  0  0
    8.4143    6.6863   16.2273 C   0  0  0  0  0  0  0  0  0  0  0  0
   10.7581    6.5674   21.7636 C   0  0  0  0  0  0  0  0  0  0  0  0
    8.4452    8.7960   19.2958 O   0  0  0  0  0  0  0  0  0  0  0  0
    8.7122    6.7842   24.8569 C   0  0  0  0  0  0  0  0  0  0  0  0
   10.3400    6.1726   14.3081 C   0  0  0  0  0  0  0  0  0  0  0  0
    7.4297    7.5873   24.8962 C   0  0  0  0  0  0  0  0  0  0  0  0
    8.1566   10.0536   16.0516 O   0  0  0  0  0  0  0  0  0  0  0  0
   12.4989    6.2074   20.1776 C   0  0  0  0  0  0  0  0  0  0  0  0
    6.9192    9.1053   20.9073 O   0  0  0  0  0  0  0  0  0  0  0  0
   14.3979    6.0729   18.7784 C   0  0  0  0  0  0  0  0  0  0  0  0
    8.6811    9.5354   16.9998 C   0  0  0  0  0  0  0  0  0  0  0  0
    9.2512    4.2713   13.7653 O   0  0  0  0  0  0  0  0  0  0  0  0
    9.6495    8.6317   16.8332 N   0  0  0  0  0  0  0  0  0  0  0  0
    6.2934    8.6988   23.1988 O   0  0  0  0  0  0  0  0  0  0  0  0
    7.9806    8.6543   20.5437 C   0  0  0  0  0  0  0  0  0  0  0  0
   13.7270    5.7144   19.8610 O   0  0  0  0  0  0  0  0  0  0  0  0
    8.3351    5.5235   15.4478 C   0  0  0  0  0  0  0  0  0  0  0  0
    8.7700    7.8434   21.3915 C   0  0  0  0  0  0  0  0  0  0  0  0
   11.7856    6.8851   19.2401 C   0  0  0  0  0  0  0  0  0  0  0  0
   10.5281    7.4276   19.5649 C   0  0  0  0  0  0  0  0  0  0  0  0
   10.0256    7.2907   20.8484 C   0  0  0  0  0  0  0  0  0  0  0  0
    9.3113    5.3049   14.4911 C   0  0  0  0  0  0  0  0  0  0  0  0
    9.4607    7.5646   16.0139 C   0  0  0  0  0  0  0  0  0  0  0  0
   10.4192    7.3157   15.0955 C   0  0  0  0  0  0  0  0  0  0  0  0
   10.2489    6.4227   23.0218 N   0  0  0  0  0  0  0  0  0  0  0  0
    7.2472    8.0746   23.5050 C   0  0  0  0  0  0  0  0  0  0  0  0
    9.2051    6.9101   23.4604 C   0  0  0  0  0  0  0  0  0  0  0  0
   11.9646    6.0299   21.4251 C   0  0  0  0  0  0  0  0  0  0  0  0
  1  5  1  0
  1 13  1  0
  2 20  2  0
  2 28  1  0
  2 29  1  0
  3 19  4  0
  3 25  4  0
  4 23  4  0
  4 27  1  0
  4 30  4  0
  5 17  1  0
  6  8  1  0
  6 29  1  0
  7 24  4  0
  7 26  4  0
  8 28  1  0
  9 13  2  0
 10 18  1  0
 10 21  4  0
 10 30  4  0
 11 17  2  0
 12 18  1  0
 13 15  1  0
 14 24  1  0
 15 25  1  0
 16 28  2  0
 17 20  1  0
 19 24  4  0
 20 23  1  0
 21 22  4  0
 22 23  4  0
 25 26  4  0
 27 29  2  0
M  END
$$$$

 Created by Python create_sdf_string function

 30 33  0  0  0  0  0  0  0  0999 V2000
    8.3036    9.8571   18.4133 C   0  0  0  0  0  0  0  0  0  0  0  0
    8.3694    7.6612   22.6703 C   0  0  0  0  0  0  0  0  0  0  0  0
    8.4143    6.6863   16.2273 C   0  0  0  0  0  0  0  0  0  0  0  0
   10.7581    6.5674   21.7636 C   0  0  0  0  0  0  0  0  0  0  0  0
    8.4452    8.7960   19.2958 O   0  0  0  0  0  0  0  0  0  0  0  0
    8.7122    6.7842   24.8569 C   0  0  0  0  0  0  0  0  0  0  0  0
   10.3400    6.1726   14.3081 C   0  0  0  0  0  0  0  0  0  0  0  0
    7.4297    7.5873   24.8962 C   0  0  0  0  0  0  0  0  0  0  0  0
    8.1566   10.0536   16.0516 O   0  0  0  0  0  0  0  0  0  0  0  0
   12.4989    6.2074   20.1776 C   0  0  0  0  0  0  0  0  0  0  0  0
    6.9192    9.1053   20.9073 O   0  0  0  0  0  0  0  0  0  0  0  0
   14.3979    6.0729   18.7784 C   0  0  0  0  0  0  0  0  0  0  0  0
    8.6811    9.5354   16.9998 C   0  0  0  0  0  0  0  0  0  0  0  0
    9.2512    4.2713   13.7653 O   0  0  0  0  0  0  0  0  0  0  0  0
    9.6495    8.6317   16.8332 N   0  0  0  0  0  0  0  0  0  0  0  0
    6.2934    8.6988   23.1988 O   0  0  0  0  0  0  0  0  0  0  0  0
    7.9806    8.6543   20.5437 C   0  0  0  0  0  0  0  0  0  0  0  0
   13.7270    5.7144   19.8610 O   0  0  0  0  0  0  0  0  0  0  0  0
    8.3351    5.5235   15.4478 C   0  0  0  0  0  0  0  0  0  0  0  0
    8.7700    7.8434   21.3915 C   0  0  0  0  0  0  0  0  0  0  0  0
   11.7856    6.8851   19.2401 C   0  0  0  0  0  0  0  0  0  0  0  0
   10.5281    7.4276   19.5649 C   0  0  0  0  0  0  0  0  0  0  0  0
   10.0256    7.2907   20.8484 C   0  0  0  0  0  0  0  0  0  0  0  0
    9.3113    5.3049   14.4911 C   0  0  0  0  0  0  0  0  0  0  0  0
    9.4607    7.5646   16.0139 C   0  0  0  0  0  0  0  0  0  0  0  0
   10.4192    7.3157   15.0955 C   0  0  0  0  0  0  0  0  0  0  0  0
   10.2489    6.4227   23.0218 N   0  0  0  0  0  0  0  0  0  0  0  0
    7.2472    8.0746   23.5050 C   0  0  0  0  0  0  0  0  0  0  0  0
    9.2051    6.9101   23.4604 C   0  0  0  0  0  0  0  0  0  0  0  0
   11.9646    6.0299   21.4251 C   0  0  0  0  0  0  0  0  0  0  0  0
  1  5  1  0
  1 13  1  0
  2 20  2  0
  2 28  1  0
  2 29  1  0
  3 19  4  0
  3 25  4  0
  4 23  4  0
  4 27  1  0
  4 30  4  0
  5 17  1  0
  6  8  1  0
  6 29  1  0
  7 24  4  0
  7 26  4  0
  8 28  1  0
  9 13  2  0
 10 18  1  0
 10 21  4  0
 10 30  4  0
 11 17  2  0
 12 18  1  0
 13 15  1  0
 14 24  1  0
 15 25  1  0
 16 28  2  0
 17 20  1  0
 19 24  4  0
 20 23  1  0
 21 22  4  0
 22 23  4  0
 25 26  4  0
 27 29  2  0
M  END
$$$$

 Created by Python create_sdf_string function

 30 33  0  0  0  0  0  0  0  0999 V2000
    8.3036    9.8571   18.4133 C   0  0  0  0  0  0  0  0  0  0  0  0
    8.3694    7.6612   22.6703 C   0  0  0  0  0  0  0  0  0  0  0  0
    8.4143    6.6863   16.2273 C   0  0  0  0  0  0  0  0  0  0  0  0
   10.7581    6.5674   21.7636 C   0  0  0  0  0  0  0  0  0  0  0  0
    8.4452    8.7960   19.2958 O   0  0  0  0  0  0  0  0  0  0  0  0
    8.7122    6.7842   24.8569 C   0  0  0  0  0  0  0  0  0  0  0  0
   10.3400    6.1726   14.3081 C   0  0  0  0  0  0  0  0  0  0  0  0
    7.4297    7.5873   24.8962 C   0  0  0  0  0  0  0  0  0  0  0  0
    8.1566   10.0536   16.0516 O   0  0  0  0  0  0  0  0  0  0  0  0
   12.4989    6.2074   20.1776 C   0  0  0  0  0  0  0  0  0  0  0  0
    6.9192    9.1053   20.9073 O   0  0  0  0  0  0  0  0  0  0  0  0
   14.3979    6.0729   18.7784 C   0  0  0  0  0  0  0  0  0  0  0  0
    8.6811    9.5354   16.9998 C   0  0  0  0  0  0  0  0  0  0  0  0
    9.2512    4.2713   13.7653 O   0  0  0  0  0  0  0  0  0  0  0  0
    9.6495    8.6317   16.8332 N   0  0  0  0  0  0  0  0  0  0  0  0
    6.2934    8.6988   23.1988 O   0  0  0  0  0  0  0  0  0  0  0  0
    7.9806    8.6543   20.5437 C   0  0  0  0  0  0  0  0  0  0  0  0
   13.7270    5.7144   19.8610 O   0  0  0  0  0  0  0  0  0  0  0  0
    8.3351    5.5235   15.4478 C   0  0  0  0  0  0  0  0  0  0  0  0
    8.7700    7.8434   21.3915 C   0  0  0  0  0  0  0  0  0  0  0  0
   11.7856    6.8851   19.2401 C   0  0  0  0  0  0  0  0  0  0  0  0
   10.5281    7.4276   19.5649 C   0  0  0  0  0  0  0  0  0  0  0  0
   10.0256    7.2907   20.8484 C   0  0  0  0  0  0  0  0  0  0  0  0
    9.3113    5.3049   14.4911 C   0  0  0  0  0  0  0  0  0  0  0  0
    9.4607    7.5646   16.0139 C   0  0  0  0  0  0  0  0  0  0  0  0
   10.4192    7.3157   15.0955 C   0  0  0  0  0  0  0  0  0  0  0  0
   10.2489    6.4227   23.0218 N   0  0  0  0  0  0  0  0  0  0  0  0
    7.2472    8.0746   23.5050 C   0  0  0  0  0  0  0  0  0  0  0  0
    9.2051    6.9101   23.4604 C   0  0  0  0  0  0  0  0  0  0  0  0
   11.9646    6.0299   21.4251 C   0  0  0  0  0  0  0  0  0  0  0  0
  1  5  1  0
  1 13  1  0
  2 20  2  0
  2 28  1  0
  2 29  1  0
  3 19  4  0
  3 25  4  0
  4 23  4  0
  4 27  1  0
  4 30  4  0
  5 17  1  0
  6  8  1  0
  6 29  1  0
  7 24  4  0
  7 26  4  0
  8 28  1  0
  9 13  2  0
 10 18  1  0
 10 21  4  0
 10 30  4  0
 11 17  2  0
 12 18  1  0
 13 15  1  0
 14 24  1  0
 15 25  1  0
 16 28  2  0
 17 20  1  0
 19 24  4  0
 20 23  1  0
 21 22  4  0
 22 23  4  0
 25 26  4  0
 27 29  2  0
M  END
$$$$

 Created by Python create_sdf_string function

 30 33  0  0  0  0  0  0  0  0999 V2000
    8.3036    9.8571   18.4133 C   0  0  0  0  0  0  0  0  0  0  0  0
    8.3694    7.6612   22.6703 C   0  0  0  0  0  0  0  0  0  0  0  0
    8.4143    6.6863   16.2273 C   0  0  0  0  0  0  0  0  0  0  0  0
   10.7581    6.5674   21.7636 C   0  0  0  0  0  0  0  0  0  0  0  0
    8.4452    8.7960   19.2958 O   0  0  0  0  0  0  0  0  0  0  0  0
    8.7122    6.7842   24.8569 C   0  0  0  0  0  0  0  0  0  0  0  0
   10.3400    6.1726   14.3081 C   0  0  0  0  0  0  0  0  0  0  0  0
    7.4297    7.5873   24.8962 C   0  0  0  0  0  0  0  0  0  0  0  0
    8.1566   10.0536   16.0516 O   0  0  0  0  0  0  0  0  0  0  0  0
   12.4989    6.2074   20.1776 C   0  0  0  0  0  0  0  0  0  0  0  0
    6.9192    9.1053   20.9073 O   0  0  0  0  0  0  0  0  0  0  0  0
   14.3979    6.0729   18.7784 C   0  0  0  0  0  0  0  0  0  0  0  0
    8.6811    9.5354   16.9998 C   0  0  0  0  0  0  0  0  0  0  0  0
    9.2512    4.2713   13.7653 O   0  0  0  0  0  0  0  0  0  0  0  0
    9.6495    8.6317   16.8332 N   0  0  0  0  0  0  0  0  0  0  0  0
    6.2934    8.6988   23.1988 O   0  0  0  0  0  0  0  0  0  0  0  0
    7.9806    8.6543   20.5437 C   0  0  0  0  0  0  0  0  0  0  0  0
   13.7270    5.7144   19.8610 O   0  0  0  0  0  0  0  0  0  0  0  0
    8.3351    5.5235   15.4478 C   0  0  0  0  0  0  0  0  0  0  0  0
    8.7700    7.8434   21.3915 C   0  0  0  0  0  0  0  0  0  0  0  0
   11.7856    6.8851   19.2401 C   0  0  0  0  0  0  0  0  0  0  0  0
   10.5281    7.4276   19.5649 C   0  0  0  0  0  0  0  0  0  0  0  0
   10.0256    7.2907   20.8484 C   0  0  0  0  0  0  0  0  0  0  0  0
    9.3113    5.3049   14.4911 C   0  0  0  0  0  0  0  0  0  0  0  0
    9.4607    7.5646   16.0139 C   0  0  0  0  0  0  0  0  0  0  0  0
   10.4192    7.3157   15.0955 C   0  0  0  0  0  0  0  0  0  0  0  0
   10.2489    6.4227   23.0218 N   0  0  0  0  0  0  0  0  0  0  0  0
    7.2472    8.0746   23.5050 C   0  0  0  0  0  0  0  0  0  0  0  0
    9.2051    6.9101   23.4604 C   0  0  0  0  0  0  0  0  0  0  0  0
   11.9646    6.0299   21.4251 C   0  0  0  0  0  0  0  0  0  0  0  0
  1  5  1  0
  1 13  1  0
  2 20  2  0
  2 28  1  0
  2 29  1  0
  3 19  4  0
  3 25  4  0
  4 23  4  0
  4 27  1  0
  4 30  4  0
  5 17  1  0
  6  8  1  0
  6 29  1  0
  7 24  4  0
  7 26  4  0
  8 28  1  0
  9 13  2  0
 10 18  1  0
 10 21  4  0
 10 30  4  0
 11 17  2  0
 12 18  1  0
 13 15  1  0
 14 24  1  0
 15 25  1  0
 16 28  2  0
 17 20  1  0
 19 24  4  0
 20 23  1  0
 21 22  4  0
 22 23  4  0
 25 26  4  0
 27 29  2  0
M  END
$$$$

 Created by Python create_sdf_string function

 30 33  0  0  0  0  0  0  0  0999 V2000
    8.3036    9.8571   18.4133 C   0  0  0  0  0  0  0  0  0  0  0  0
    8.3694    7.6612   22.6703 C   0  0  0  0  0  0  0  0  0  0  0  0
    8.4143    6.6863   16.2273 C   0  0  0  0  0  0  0  0  0  0  0  0
   10.7581    6.5674   21.7636 C   0  0  0  0  0  0  0  0  0  0  0  0
    8.4452    8.7960   19.2958 O   0  0  0  0  0  0  0  0  0  0  0  0
    8.7122    6.7842   24.8569 C   0  0  0  0  0  0  0  0  0  0  0  0
   10.3400    6.1726   14.3081 C   0  0  0  0  0  0  0  0  0  0  0  0
    7.4297    7.5873   24.8962 C   0  0  0  0  0  0  0  0  0  0  0  0
    8.1566   10.0536   16.0516 O   0  0  0  0  0  0  0  0  0  0  0  0
   12.4989    6.2074   20.1776 C   0  0  0  0  0  0  0  0  0  0  0  0
    6.9192    9.1053   20.9073 O   0  0  0  0  0  0  0  0  0  0  0  0
   14.3979    6.0729   18.7784 C   0  0  0  0  0  0  0  0  0  0  0  0
    8.6811    9.5354   16.9998 C   0  0  0  0  0  0  0  0  0  0  0  0
    9.2512    4.2713   13.7653 O   0  0  0  0  0  0  0  0  0  0  0  0
    9.6495    8.6317   16.8332 N   0  0  0  0  0  0  0  0  0  0  0  0
    6.2934    8.6988   23.1988 O   0  0  0  0  0  0  0  0  0  0  0  0
    7.9806    8.6543   20.5437 C   0  0  0  0  0  0  0  0  0  0  0  0
   13.7270    5.7144   19.8610 O   0  0  0  0  0  0  0  0  0  0  0  0
    8.3351    5.5235   15.4478 C   0  0  0  0  0  0  0  0  0  0  0  0
    8.7700    7.8434   21.3915 C   0  0  0  0  0  0  0  0  0  0  0  0
   11.7856    6.8851   19.2401 C   0  0  0  0  0  0  0  0  0  0  0  0
   10.5281    7.4276   19.5649 C   0  0  0  0  0  0  0  0  0  0  0  0
   10.0256    7.2907   20.8484 C   0  0  0  0  0  0  0  0  0  0  0  0
    9.3113    5.3049   14.4911 C   0  0  0  0  0  0  0  0  0  0  0  0
    9.4607    7.5646   16.0139 C   0  0  0  0  0  0  0  0  0  0  0  0
   10.4192    7.3157   15.0955 C   0  0  0  0  0  0  0  0  0  0  0  0
   10.2489    6.4227   23.0218 N   0  0  0  0  0  0  0  0  0  0  0  0
    7.2472    8.0746   23.5050 C   0  0  0  0  0  0  0  0  0  0  0  0
    9.2051    6.9101   23.4604 C   0  0  0  0  0  0  0  0  0  0  0  0
   11.9646    6.0299   21.4251 C   0  0  0  0  0  0  0  0  0  0  0  0
  1  5  1  0
  1 13  1  0
  2 20  2  0
  2 28  1  0
  2 29  1  0
  3 19  4  0
  3 25  4  0
  4 23  4  0
  4 27  1  0
  4 30  4  0
  5 17  1  0
  6  8  1  0
  6 29  1  0
  7 24  4  0
  7 26  4  0
  8 28  1  0
  9 13  2  0
 10 18  1  0
 10 21  4  0
 10 30  4  0
 11 17  2  0
 12 18  1  0
 13 15  1  0
 14 24  1  0
 15 25  1  0
 16 28  2  0
 17 20  1  0
 19 24  4  0
 20 23  1  0
 21 22  4  0
 22 23  4  0
 25 26  4  0
 27 29  2  0
M  END
$$$$

 Created by Python create_sdf_string function

 30 33  0  0  0  0  0  0  0  0999 V2000
    8.3036    9.8571   18.4133 C   0  0  0  0  0  0  0  0  0  0  0  0
    8.3694    7.6612   22.6703 C   0  0  0  0  0  0  0  0  0  0  0  0
    8.4143    6.6863   16.2273 C   0  0  0  0  0  0  0  0  0  0  0  0
   10.7581    6.5674   21.7636 C   0  0  0  0  0  0  0  0  0  0  0  0
    8.4452    8.7960   19.2958 O   0  0  0  0  0  0  0  0  0  0  0  0
    8.7122    6.7842   24.8569 C   0  0  0  0  0  0  0  0  0  0  0  0
   10.3400    6.1726   14.3081 C   0  0  0  0  0  0  0  0  0  0  0  0
    7.4297    7.5873   24.8962 C   0  0  0  0  0  0  0  0  0  0  0  0
    8.1566   10.0536   16.0516 O   0  0  0  0  0  0  0  0  0  0  0  0
   12.4989    6.2074   20.1776 C   0  0  0  0  0  0  0  0  0  0  0  0
    6.9192    9.1053   20.9073 O   0  0  0  0  0  0  0  0  0  0  0  0
   14.3979    6.0729   18.7784 C   0  0  0  0  0  0  0  0  0  0  0  0
    8.6811    9.5354   16.9998 C   0  0  0  0  0  0  0  0  0  0  0  0
    9.2512    4.2713   13.7653 O   0  0  0  0  0  0  0  0  0  0  0  0
    9.6495    8.6317   16.8332 N   0  0  0  0  0  0  0  0  0  0  0  0
    6.2934    8.6988   23.1988 O   0  0  0  0  0  0  0  0  0  0  0  0
    7.9806    8.6543   20.5437 C   0  0  0  0  0  0  0  0  0  0  0  0
   13.7270    5.7144   19.8610 O   0  0  0  0  0  0  0  0  0  0  0  0
    8.3351    5.5235   15.4478 C   0  0  0  0  0  0  0  0  0  0  0  0
    8.7700    7.8434   21.3915 C   0  0  0  0  0  0  0  0  0  0  0  0
   11.7856    6.8851   19.2401 C   0  0  0  0  0  0  0  0  0  0  0  0
   10.5281    7.4276   19.5649 C   0  0  0  0  0  0  0  0  0  0  0  0
   10.0256    7.2907   20.8484 C   0  0  0  0  0  0  0  0  0  0  0  0
    9.3113    5.3049   14.4911 C   0  0  0  0  0  0  0  0  0  0  0  0
    9.4607    7.5646   16.0139 C   0  0  0  0  0  0  0  0  0  0  0  0
   10.4192    7.3157   15.0955 C   0  0  0  0  0  0  0  0  0  0  0  0
   10.2489    6.4227   23.0218 N   0  0  0  0  0  0  0  0  0  0  0  0
    7.2472    8.0746   23.5050 C   0  0  0  0  0  0  0  0  0  0  0  0
    9.2051    6.9101   23.4604 C   0  0  0  0  0  0  0  0  0  0  0  0
   11.9646    6.0299   21.4251 C   0  0  0  0  0  0  0  0  0  0  0  0
  1  5  1  0
  1 13  1  0
  2 20  2  0
  2 28  1  0
  2 29  1  0
  3 19  4  0
  3 25  4  0
  4 23  4  0
  4 27  1  0
  4 30  4  0
  5 17  1  0
  6  8  1  0
  6 29  1  0
  7 24  4  0
  7 26  4  0
  8 28  1  0
  9 13  2  0
 10 18  1  0
 10 21  4  0
 10 30  4  0
 11 17  2  0
 12 18  1  0
 13 15  1  0
 14 24  1  0
 15 25  1  0
 16 28  2  0
 17 20  1  0
 19 24  4  0
 20 23  1  0
 21 22  4  0
 22 23  4  0
 25 26  4  0
 27 29  2  0
M  END
$$$$

 Created by Python create_sdf_string function

 30 33  0  0  0  0  0  0  0  0999 V2000
    8.3036    9.8571   18.4133 C   0  0  0  0  0  0  0  0  0  0  0  0
    8.3694    7.6612   22.6703 C   0  0  0  0  0  0  0  0  0  0  0  0
    8.4143    6.6863   16.2273 C   0  0  0  0  0  0  0  0  0  0  0  0
   10.7581    6.5674   21.7636 C   0  0  0  0  0  0  0  0  0  0  0  0
    8.4452    8.7960   19.2958 O   0  0  0  0  0  0  0  0  0  0  0  0
    8.7122    6.7842   24.8569 C   0  0  0  0  0  0  0  0  0  0  0  0
   10.3400    6.1726   14.3081 C   0  0  0  0  0  0  0  0  0  0  0  0
    7.4297    7.5873   24.8962 C   0  0  0  0  0  0  0  0  0  0  0  0
    8.1566   10.0536   16.0516 O   0  0  0  0  0  0  0  0  0  0  0  0
   12.4989    6.2074   20.1776 C   0  0  0  0  0  0  0  0  0  0  0  0
    6.9192    9.1053   20.9073 O   0  0  0  0  0  0  0  0  0  0  0  0
   14.3979    6.0729   18.7784 C   0  0  0  0  0  0  0  0  0  0  0  0
    8.6811    9.5354   16.9998 C   0  0  0  0  0  0  0  0  0  0  0  0
    9.2512    4.2713   13.7653 O   0  0  0  0  0  0  0  0  0  0  0  0
    9.6495    8.6317   16.8332 N   0  0  0  0  0  0  0  0  0  0  0  0
    6.2934    8.6988   23.1988 O   0  0  0  0  0  0  0  0  0  0  0  0
    7.9806    8.6543   20.5437 C   0  0  0  0  0  0  0  0  0  0  0  0
   13.7270    5.7144   19.8610 O   0  0  0  0  0  0  0  0  0  0  0  0
    8.3351    5.5235   15.4478 C   0  0  0  0  0  0  0  0  0  0  0  0
    8.7700    7.8434   21.3915 C   0  0  0  0  0  0  0  0  0  0  0  0
   11.7856    6.8851   19.2401 C   0  0  0  0  0  0  0  0  0  0  0  0
   10.5281    7.4276   19.5649 C   0  0  0  0  0  0  0  0  0  0  0  0
   10.0256    7.2907   20.8484 C   0  0  0  0  0  0  0  0  0  0  0  0
    9.3113    5.3049   14.4911 C   0  0  0  0  0  0  0  0  0  0  0  0
    9.4607    7.5646   16.0139 C   0  0  0  0  0  0  0  0  0  0  0  0
   10.4192    7.3157   15.0955 C   0  0  0  0  0  0  0  0  0  0  0  0
   10.2489    6.4227   23.0218 N   0  0  0  0  0  0  0  0  0  0  0  0
    7.2472    8.0746   23.5050 C   0  0  0  0  0  0  0  0  0  0  0  0
    9.2051    6.9101   23.4604 C   0  0  0  0  0  0  0  0  0  0  0  0
   11.9646    6.0299   21.4251 C   0  0  0  0  0  0  0  0  0  0  0  0
  1  5  1  0
  1 13  1  0
  2 20  2  0
  2 28  1  0
  2 29  1  0
  3 19  4  0
  3 25  4  0
  4 23  4  0
  4 27  1  0
  4 30  4  0
  5 17  1  0
  6  8  1  0
  6 29  1  0
  7 24  4  0
  7 26  4  0
  8 28  1  0
  9 13  2  0
 10 18  1  0
 10 21  4  0
 10 30  4  0
 11 17  2  0
 12 18  1  0
 13 15  1  0
 14 24  1  0
 15 25  1  0
 16 28  2  0
 17 20  1  0
 19 24  4  0
 20 23  1  0
 21 22  4  0
 22 23  4  0
 25 26  4  0
 27 29  2  0
M  END
$$$$

 Created by Python create_sdf_string function

 30 33  0  0  0  0  0  0  0  0999 V2000
    8.3036    9.8571   18.4133 C   0  0  0  0  0  0  0  0  0  0  0  0
    8.3694    7.6612   22.6703 C   0  0  0  0  0  0  0  0  0  0  0  0
    8.4143    6.6863   16.2273 C   0  0  0  0  0  0  0  0  0  0  0  0
   10.7581    6.5674   21.7636 C   0  0  0  0  0  0  0  0  0  0  0  0
    8.4452    8.7960   19.2958 O   0  0  0  0  0  0  0  0  0  0  0  0
    8.7122    6.7842   24.8569 C   0  0  0  0  0  0  0  0  0  0  0  0
   10.3400    6.1726   14.3081 C   0  0  0  0  0  0  0  0  0  0  0  0
    7.4297    7.5873   24.8962 C   0  0  0  0  0  0  0  0  0  0  0  0
    8.1566   10.0536   16.0516 O   0  0  0  0  0  0  0  0  0  0  0  0
   12.4989    6.2074   20.1776 C   0  0  0  0  0  0  0  0  0  0  0  0
    6.9192    9.1053   20.9073 O   0  0  0  0  0  0  0  0  0  0  0  0
   14.3979    6.0729   18.7784 C   0  0  0  0  0  0  0  0  0  0  0  0
    8.6811    9.5354   16.9998 C   0  0  0  0  0  0  0  0  0  0  0  0
    9.2512    4.2713   13.7653 O   0  0  0  0  0  0  0  0  0  0  0  0
    9.6495    8.6317   16.8332 N   0  0  0  0  0  0  0  0  0  0  0  0
    6.2934    8.6988   23.1988 O   0  0  0  0  0  0  0  0  0  0  0  0
    7.9806    8.6543   20.5437 C   0  0  0  0  0  0  0  0  0  0  0  0
   13.7270    5.7144   19.8610 O   0  0  0  0  0  0  0  0  0  0  0  0
    8.3351    5.5235   15.4478 C   0  0  0  0  0  0  0  0  0  0  0  0
    8.7700    7.8434   21.3915 C   0  0  0  0  0  0  0  0  0  0  0  0
   11.7856    6.8851   19.2401 C   0  0  0  0  0  0  0  0  0  0  0  0
   10.5281    7.4276   19.5649 C   0  0  0  0  0  0  0  0  0  0  0  0
   10.0256    7.2907   20.8484 C   0  0  0  0  0  0  0  0  0  0  0  0
    9.3113    5.3049   14.4911 C   0  0  0  0  0  0  0  0  0  0  0  0
    9.4607    7.5646   16.0139 C   0  0  0  0  0  0  0  0  0  0  0  0
   10.4192    7.3157   15.0955 C   0  0  0  0  0  0  0  0  0  0  0  0
   10.2489    6.4227   23.0218 N   0  0  0  0  0  0  0  0  0  0  0  0
    7.2472    8.0746   23.5050 C   0  0  0  0  0  0  0  0  0  0  0  0
    9.2051    6.9101   23.4604 C   0  0  0  0  0  0  0  0  0  0  0  0
   11.9646    6.0299   21.4251 C   0  0  0  0  0  0  0  0  0  0  0  0
  1  5  1  0
  1 13  1  0
  2 20  2  0
  2 28  1  0
  2 29  1  0
  3 19  4  0
  3 25  4  0
  4 23  4  0
  4 27  1  0
  4 30  4  0
  5 17  1  0
  6  8  1  0
  6 29  1  0
  7 24  4  0
  7 26  4  0
  8 28  1  0
  9 13  2  0
 10 18  1  0
 10 21  4  0
 10 30  4  0
 11 17  2  0
 12 18  1  0
 13 15  1  0
 14 24  1  0
 15 25  1  0
 16 28  2  0
 17 20  1  0
 19 24  4  0
 20 23  1  0
 21 22  4  0
 22 23  4  0
 25 26  4  0
 27 29  2  0
M  END
$$$$

 Created by Python create_sdf_string function

 30 33  0  0  0  0  0  0  0  0999 V2000
    8.3036    9.8571   18.4133 C   0  0  0  0  0  0  0  0  0  0  0  0
    8.3694    7.6612   22.6703 C   0  0  0  0  0  0  0  0  0  0  0  0
    8.4143    6.6863   16.2273 C   0  0  0  0  0  0  0  0  0  0  0  0
   10.7581    6.5674   21.7636 C   0  0  0  0  0  0  0  0  0  0  0  0
    8.4452    8.7960   19.2958 O   0  0  0  0  0  0  0  0  0  0  0  0
    8.7122    6.7842   24.8569 C   0  0  0  0  0  0  0  0  0  0  0  0
   10.3400    6.1726   14.3081 C   0  0  0  0  0  0  0  0  0  0  0  0
    7.4297    7.5873   24.8962 C   0  0  0  0  0  0  0  0  0  0  0  0
    8.1566   10.0536   16.0516 O   0  0  0  0  0  0  0  0  0  0  0  0
   12.4989    6.2074   20.1776 C   0  0  0  0  0  0  0  0  0  0  0  0
    6.9192    9.1053   20.9073 O   0  0  0  0  0  0  0  0  0  0  0  0
   14.3979    6.0729   18.7784 C   0  0  0  0  0  0  0  0  0  0  0  0
    8.6811    9.5354   16.9998 C   0  0  0  0  0  0  0  0  0  0  0  0
    9.2512    4.2713   13.7653 O   0  0  0  0  0  0  0  0  0  0  0  0
    9.6495    8.6317   16.8332 N   0  0  0  0  0  0  0  0  0  0  0  0
    6.2934    8.6988   23.1988 O   0  0  0  0  0  0  0  0  0  0  0  0
    7.9806    8.6543   20.5437 C   0  0  0  0  0  0  0  0  0  0  0  0
   13.7270    5.7144   19.8610 O   0  0  0  0  0  0  0  0  0  0  0  0
    8.3351    5.5235   15.4478 C   0  0  0  0  0  0  0  0  0  0  0  0
    8.7700    7.8434   21.3915 C   0  0  0  0  0  0  0  0  0  0  0  0
   11.7856    6.8851   19.2401 C   0  0  0  0  0  0  0  0  0  0  0  0
   10.5281    7.4276   19.5649 C   0  0  0  0  0  0  0  0  0  0  0  0
   10.0256    7.2907   20.8484 C   0  0  0  0  0  0  0  0  0  0  0  0
    9.3113    5.3049   14.4911 C   0  0  0  0  0  0  0  0  0  0  0  0
    9.4607    7.5646   16.0139 C   0  0  0  0  0  0  0  0  0  0  0  0
   10.4192    7.3157   15.0955 C   0  0  0  0  0  0  0  0  0  0  0  0
   10.2489    6.4227   23.0218 N   0  0  0  0  0  0  0  0  0  0  0  0
    7.2472    8.0746   23.5050 C   0  0  0  0  0  0  0  0  0  0  0  0
    9.2051    6.9101   23.4604 C   0  0  0  0  0  0  0  0  0  0  0  0
   11.9646    6.0299   21.4251 C   0  0  0  0  0  0  0  0  0  0  0  0
  1  5  1  0
  1 13  1  0
  2 20  2  0
  2 28  1  0
  2 29  1  0
  3 19  4  0
  3 25  4  0
  4 23  4  0
  4 27  1  0
  4 30  4  0
  5 17  1  0
  6  8  1  0
  6 29  1  0
  7 24  4  0
  7 26  4  0
  8 28  1  0
  9 13  2  0
 10 18  1  0
 10 21  4  0
 10 30  4  0
 11 17  2  0
 12 18  1  0
 13 15  1  0
 14 24  1  0
 15 25  1  0
 16 28  2  0
 17 20  1  0
 19 24  4  0
 20 23  1  0
 21 22  4  0
 22 23  4  0
 25 26  4  0
 27 29  2  0
M  END
$$$$

 Created by Python create_sdf_string function

 30 33  0  0  0  0  0  0  0  0999 V2000
    8.3036    9.8571   18.4133 C   0  0  0  0  0  0  0  0  0  0  0  0
    8.3694    7.6612   22.6703 C   0  0  0  0  0  0  0  0  0  0  0  0
    8.4143    6.6863   16.2273 C   0  0  0  0  0  0  0  0  0  0  0  0
   10.7581    6.5674   21.7636 C   0  0  0  0  0  0  0  0  0  0  0  0
    8.4452    8.7960   19.2958 O   0  0  0  0  0  0  0  0  0  0  0  0
    8.7122    6.7842   24.8569 C   0  0  0  0  0  0  0  0  0  0  0  0
   10.3400    6.1726   14.3081 C   0  0  0  0  0  0  0  0  0  0  0  0
    7.4297    7.5873   24.8962 C   0  0  0  0  0  0  0  0  0  0  0  0
    8.1566   10.0536   16.0516 O   0  0  0  0  0  0  0  0  0  0  0  0
   12.4989    6.2074   20.1776 C   0  0  0  0  0  0  0  0  0  0  0  0
    6.9192    9.1053   20.9073 O   0  0  0  0  0  0  0  0  0  0  0  0
   14.3979    6.0729   18.7784 C   0  0  0  0  0  0  0  0  0  0  0  0
    8.6811    9.5354   16.9998 C   0  0  0  0  0  0  0  0  0  0  0  0
    9.2512    4.2713   13.7653 O   0  0  0  0  0  0  0  0  0  0  0  0
    9.6495    8.6317   16.8332 N   0  0  0  0  0  0  0  0  0  0  0  0
    6.2934    8.6988   23.1988 O   0  0  0  0  0  0  0  0  0  0  0  0
    7.9806    8.6543   20.5437 C   0  0  0  0  0  0  0  0  0  0  0  0
   13.7270    5.7144   19.8610 O   0  0  0  0  0  0  0  0  0  0  0  0
    8.3351    5.5235   15.4478 C   0  0  0  0  0  0  0  0  0  0  0  0
    8.7700    7.8434   21.3915 C   0  0  0  0  0  0  0  0  0  0  0  0
   11.7856    6.8851   19.2401 C   0  0  0  0  0  0  0  0  0  0  0  0
   10.5281    7.4276   19.5649 C   0  0  0  0  0  0  0  0  0  0  0  0
   10.0256    7.2907   20.8484 C   0  0  0  0  0  0  0  0  0  0  0  0
    9.3113    5.3049   14.4911 C   0  0  0  0  0  0  0  0  0  0  0  0
    9.4607    7.5646   16.0139 C   0  0  0  0  0  0  0  0  0  0  0  0
   10.4192    7.3157   15.0955 C   0  0  0  0  0  0  0  0  0  0  0  0
   10.2489    6.4227   23.0218 N   0  0  0  0  0  0  0  0  0  0  0  0
    7.2472    8.0746   23.5050 C   0  0  0  0  0  0  0  0  0  0  0  0
    9.2051    6.9101   23.4604 C   0  0  0  0  0  0  0  0  0  0  0  0
   11.9646    6.0299   21.4251 C   0  0  0  0  0  0  0  0  0  0  0  0
  1  5  1  0
  1 13  1  0
  2 20  2  0
  2 28  1  0
  2 29  1  0
  3 19  4  0
  3 25  4  0
  4 23  4  0
  4 27  1  0
  4 30  4  0
  5 17  1  0
  6  8  1  0
  6 29  1  0
  7 24  4  0
  7 26  4  0
  8 28  1  0
  9 13  2  0
 10 18  1  0
 10 21  4  0
 10 30  4  0
 11 17  2  0
 12 18  1  0
 13 15  1  0
 14 24  1  0
 15 25  1  0
 16 28  2  0
 17 20  1  0
 19 24  4  0
 20 23  1  0
 21 22  4  0
 22 23  4  0
 25 26  4  0
 27 29  2  0
M  END
$$$$

 Created by Python create_sdf_string function

 30 33  0  0  0  0  0  0  0  0999 V2000
    8.3036    9.8571   18.4133 C   0  0  0  0  0  0  0  0  0  0  0  0
    8.3694    7.6612   22.6703 C   0  0  0  0  0  0  0  0  0  0  0  0
    8.4143    6.6863   16.2273 C   0  0  0  0  0  0  0  0  0  0  0  0
   10.7581    6.5674   21.7636 C   0  0  0  0  0  0  0  0  0  0  0  0
    8.4452    8.7960   19.2958 O   0  0  0  0  0  0  0  0  0  0  0  0
    8.7122    6.7842   24.8569 C   0  0  0  0  0  0  0  0  0  0  0  0
   10.3400    6.1726   14.3081 C   0  0  0  0  0  0  0  0  0  0  0  0
    7.4297    7.5873   24.8962 C   0  0  0  0  0  0  0  0  0  0  0  0
    8.1566   10.0536   16.0516 O   0  0  0  0  0  0  0  0  0  0  0  0
   12.4989    6.2074   20.1776 C   0  0  0  0  0  0  0  0  0  0  0  0
    6.9192    9.1053   20.9073 O   0  0  0  0  0  0  0  0  0  0  0  0
   14.3979    6.0729   18.7784 C   0  0  0  0  0  0  0  0  0  0  0  0
    8.6811    9.5354   16.9998 C   0  0  0  0  0  0  0  0  0  0  0  0
    9.2512    4.2713   13.7653 O   0  0  0  0  0  0  0  0  0  0  0  0
    9.6495    8.6317   16.8332 N   0  0  0  0  0  0  0  0  0  0  0  0
    6.2934    8.6988   23.1988 O   0  0  0  0  0  0  0  0  0  0  0  0
    7.9806    8.6543   20.5437 C   0  0  0  0  0  0  0  0  0  0  0  0
   13.7270    5.7144   19.8610 O   0  0  0  0  0  0  0  0  0  0  0  0
    8.3351    5.5235   15.4478 C   0  0  0  0  0  0  0  0  0  0  0  0
    8.7700    7.8434   21.3915 C   0  0  0  0  0  0  0  0  0  0  0  0
   11.7856    6.8851   19.2401 C   0  0  0  0  0  0  0  0  0  0  0  0
   10.5281    7.4276   19.5649 C   0  0  0  0  0  0  0  0  0  0  0  0
   10.0256    7.2907   20.8484 C   0  0  0  0  0  0  0  0  0  0  0  0
    9.3113    5.3049   14.4911 C   0  0  0  0  0  0  0  0  0  0  0  0
    9.4607    7.5646   16.0139 C   0  0  0  0  0  0  0  0  0  0  0  0
   10.4192    7.3157   15.0955 C   0  0  0  0  0  0  0  0  0  0  0  0
   10.2489    6.4227   23.0218 N   0  0  0  0  0  0  0  0  0  0  0  0
    7.2472    8.0746   23.5050 C   0  0  0  0  0  0  0  0  0  0  0  0
    9.2051    6.9101   23.4604 C   0  0  0  0  0  0  0  0  0  0  0  0
   11.9646    6.0299   21.4251 C   0  0  0  0  0  0  0  0  0  0  0  0
  1  5  1  0
  1 13  1  0
  2 20  2  0
  2 28  1  0
  2 29  1  0
  3 19  4  0
  3 25  4  0
  4 23  4  0
  4 27  1  0
  4 30  4  0
  5 17  1  0
  6  8  1  0
  6 29  1  0
  7 24  4  0
  7 26  4  0
  8 28  1  0
  9 13  2  0
 10 18  1  0
 10 21  4  0
 10 30  4  0
 11 17  2  0
 12 18  1  0
 13 15  1  0
 14 24  1  0
 15 25  1  0
 16 28  2  0
 17 20  1  0
 19 24  4  0
 20 23  1  0
 21 22  4  0
 22 23  4  0
 25 26  4  0
 27 29  2  0
M  END
$$$$

 Created by Python create_sdf_string function

 30 33  0  0  0  0  0  0  0  0999 V2000
    8.3036    9.8571   18.4133 C   0  0  0  0  0  0  0  0  0  0  0  0
    8.3694    7.6612   22.6703 C   0  0  0  0  0  0  0  0  0  0  0  0
    8.4143    6.6863   16.2273 C   0  0  0  0  0  0  0  0  0  0  0  0
   10.7581    6.5674   21.7636 C   0  0  0  0  0  0  0  0  0  0  0  0
    8.4452    8.7960   19.2958 O   0  0  0  0  0  0  0  0  0  0  0  0
    8.7122    6.7842   24.8569 C   0  0  0  0  0  0  0  0  0  0  0  0
   10.3400    6.1726   14.3081 C   0  0  0  0  0  0  0  0  0  0  0  0
    7.4297    7.5873   24.8962 C   0  0  0  0  0  0  0  0  0  0  0  0
    8.1566   10.0536   16.0516 O   0  0  0  0  0  0  0  0  0  0  0  0
   12.4989    6.2074   20.1776 C   0  0  0  0  0  0  0  0  0  0  0  0
    6.9192    9.1053   20.9073 O   0  0  0  0  0  0  0  0  0  0  0  0
   14.3979    6.0729   18.7784 C   0  0  0  0  0  0  0  0  0  0  0  0
    8.6811    9.5354   16.9998 C   0  0  0  0  0  0  0  0  0  0  0  0
    9.2512    4.2713   13.7653 O   0  0  0  0  0  0  0  0  0  0  0  0
    9.6495    8.6317   16.8332 N   0  0  0  0  0  0  0  0  0  0  0  0
    6.2934    8.6988   23.1988 O   0  0  0  0  0  0  0  0  0  0  0  0
    7.9806    8.6543   20.5437 C   0  0  0  0  0  0  0  0  0  0  0  0
   13.7270    5.7144   19.8610 O   0  0  0  0  0  0  0  0  0  0  0  0
    8.3351    5.5235   15.4478 C   0  0  0  0  0  0  0  0  0  0  0  0
    8.7700    7.8434   21.3915 C   0  0  0  0  0  0  0  0  0  0  0  0
   11.7856    6.8851   19.2401 C   0  0  0  0  0  0  0  0  0  0  0  0
   10.5281    7.4276   19.5649 C   0  0  0  0  0  0  0  0  0  0  0  0
   10.0256    7.2907   20.8484 C   0  0  0  0  0  0  0  0  0  0  0  0
    9.3113    5.3049   14.4911 C   0  0  0  0  0  0  0  0  0  0  0  0
    9.4607    7.5646   16.0139 C   0  0  0  0  0  0  0  0  0  0  0  0
   10.4192    7.3157   15.0955 C   0  0  0  0  0  0  0  0  0  0  0  0
   10.2489    6.4227   23.0218 N   0  0  0  0  0  0  0  0  0  0  0  0
    7.2472    8.0746   23.5050 C   0  0  0  0  0  0  0  0  0  0  0  0
    9.2051    6.9101   23.4604 C   0  0  0  0  0  0  0  0  0  0  0  0
   11.9646    6.0299   21.4251 C   0  0  0  0  0  0  0  0  0  0  0  0
  1  5  1  0
  1 13  1  0
  2 20  2  0
  2 28  1  0
  2 29  1  0
  3 19  4  0
  3 25  4  0
  4 23  4  0
  4 27  1  0
  4 30  4  0
  5 17  1  0
  6  8  1  0
  6 29  1  0
  7 24  4  0
  7 26  4  0
  8 28  1  0
  9 13  2  0
 10 18  1  0
 10 21  4  0
 10 30  4  0
 11 17  2  0
 12 18  1  0
 13 15  1  0
 14 24  1  0
 15 25  1  0
 16 28  2  0
 17 20  1  0
 19 24  4  0
 20 23  1  0
 21 22  4  0
 22 23  4  0
 25 26  4  0
 27 29  2  0
M  END
$$$$

 Created by Python create_sdf_string function

 30 33  0  0  0  0  0  0  0  0999 V2000
    8.3036    9.8571   18.4133 C   0  0  0  0  0  0  0  0  0  0  0  0
    8.3694    7.6612   22.6703 C   0  0  0  0  0  0  0  0  0  0  0  0
    8.4143    6.6863   16.2273 C   0  0  0  0  0  0  0  0  0  0  0  0
   10.7581    6.5674   21.7636 C   0  0  0  0  0  0  0  0  0  0  0  0
    8.4452    8.7960   19.2958 O   0  0  0  0  0  0  0  0  0  0  0  0
    8.7122    6.7842   24.8569 C   0  0  0  0  0  0  0  0  0  0  0  0
   10.3400    6.1726   14.3081 C   0  0  0  0  0  0  0  0  0  0  0  0
    7.4297    7.5873   24.8962 C   0  0  0  0  0  0  0  0  0  0  0  0
    8.1566   10.0536   16.0516 O   0  0  0  0  0  0  0  0  0  0  0  0
   12.4989    6.2074   20.1776 C   0  0  0  0  0  0  0  0  0  0  0  0
    6.9192    9.1053   20.9073 O   0  0  0  0  0  0  0  0  0  0  0  0
   14.3979    6.0729   18.7784 C   0  0  0  0  0  0  0  0  0  0  0  0
    8.6811    9.5354   16.9998 C   0  0  0  0  0  0  0  0  0  0  0  0
    9.2512    4.2713   13.7653 O   0  0  0  0  0  0  0  0  0  0  0  0
    9.6495    8.6317   16.8332 N   0  0  0  0  0  0  0  0  0  0  0  0
    6.2934    8.6988   23.1988 O   0  0  0  0  0  0  0  0  0  0  0  0
    7.9806    8.6543   20.5437 C   0  0  0  0  0  0  0  0  0  0  0  0
   13.7270    5.7144   19.8610 O   0  0  0  0  0  0  0  0  0  0  0  0
    8.3351    5.5235   15.4478 C   0  0  0  0  0  0  0  0  0  0  0  0
    8.7700    7.8434   21.3915 C   0  0  0  0  0  0  0  0  0  0  0  0
   11.7856    6.8851   19.2401 C   0  0  0  0  0  0  0  0  0  0  0  0
   10.5281    7.4276   19.5649 C   0  0  0  0  0  0  0  0  0  0  0  0
   10.0256    7.2907   20.8484 C   0  0  0  0  0  0  0  0  0  0  0  0
    9.3113    5.3049   14.4911 C   0  0  0  0  0  0  0  0  0  0  0  0
    9.4607    7.5646   16.0139 C   0  0  0  0  0  0  0  0  0  0  0  0
   10.4192    7.3157   15.0955 C   0  0  0  0  0  0  0  0  0  0  0  0
   10.2489    6.4227   23.0218 N   0  0  0  0  0  0  0  0  0  0  0  0
    7.2472    8.0746   23.5050 C   0  0  0  0  0  0  0  0  0  0  0  0
    9.2051    6.9101   23.4604 C   0  0  0  0  0  0  0  0  0  0  0  0
   11.9646    6.0299   21.4251 C   0  0  0  0  0  0  0  0  0  0  0  0
  1  5  1  0
  1 13  1  0
  2 20  2  0
  2 28  1  0
  2 29  1  0
  3 19  4  0
  3 25  4  0
  4 23  4  0
  4 27  1  0
  4 30  4  0
  5 17  1  0
  6  8  1  0
  6 29  1  0
  7 24  4  0
  7 26  4  0
  8 28  1  0
  9 13  2  0
 10 18  1  0
 10 21  4  0
 10 30  4  0
 11 17  2  0
 12 18  1  0
 13 15  1  0
 14 24  1  0
 15 25  1  0
 16 28  2  0
 17 20  1  0
 19 24  4  0
 20 23  1  0
 21 22  4  0
 22 23  4  0
 25 26  4  0
 27 29  2  0
M  END
$$$$

 Created by Python create_sdf_string function

 30 33  0  0  0  0  0  0  0  0999 V2000
    8.3036    9.8571   18.4133 C   0  0  0  0  0  0  0  0  0  0  0  0
    8.3694    7.6612   22.6703 C   0  0  0  0  0  0  0  0  0  0  0  0
    8.4143    6.6863   16.2273 C   0  0  0  0  0  0  0  0  0  0  0  0
   10.7581    6.5674   21.7636 C   0  0  0  0  0  0  0  0  0  0  0  0
    8.4452    8.7960   19.2958 O   0  0  0  0  0  0  0  0  0  0  0  0
    8.7122    6.7842   24.8569 C   0  0  0  0  0  0  0  0  0  0  0  0
   10.3400    6.1726   14.3081 C   0  0  0  0  0  0  0  0  0  0  0  0
    7.4297    7.5873   24.8962 C   0  0  0  0  0  0  0  0  0  0  0  0
    8.1566   10.0536   16.0516 O   0  0  0  0  0  0  0  0  0  0  0  0
   12.4989    6.2074   20.1776 C   0  0  0  0  0  0  0  0  0  0  0  0
    6.9192    9.1053   20.9073 O   0  0  0  0  0  0  0  0  0  0  0  0
   14.3979    6.0729   18.7784 C   0  0  0  0  0  0  0  0  0  0  0  0
    8.6811    9.5354   16.9998 C   0  0  0  0  0  0  0  0  0  0  0  0
    9.2512    4.2713   13.7653 O   0  0  0  0  0  0  0  0  0  0  0  0
    9.6495    8.6317   16.8332 N   0  0  0  0  0  0  0  0  0  0  0  0
    6.2934    8.6988   23.1988 O   0  0  0  0  0  0  0  0  0  0  0  0
    7.9806    8.6543   20.5437 C   0  0  0  0  0  0  0  0  0  0  0  0
   13.7270    5.7144   19.8610 O   0  0  0  0  0  0  0  0  0  0  0  0
    8.3351    5.5235   15.4478 C   0  0  0  0  0  0  0  0  0  0  0  0
    8.7700    7.8434   21.3915 C   0  0  0  0  0  0  0  0  0  0  0  0
   11.7856    6.8851   19.2401 C   0  0  0  0  0  0  0  0  0  0  0  0
   10.5281    7.4276   19.5649 C   0  0  0  0  0  0  0  0  0  0  0  0
   10.0256    7.2907   20.8484 C   0  0  0  0  0  0  0  0  0  0  0  0
    9.3113    5.3049   14.4911 C   0  0  0  0  0  0  0  0  0  0  0  0
    9.4607    7.5646   16.0139 C   0  0  0  0  0  0  0  0  0  0  0  0
   10.4192    7.3157   15.0955 C   0  0  0  0  0  0  0  0  0  0  0  0
   10.2489    6.4227   23.0218 N   0  0  0  0  0  0  0  0  0  0  0  0
    7.2472    8.0746   23.5050 C   0  0  0  0  0  0  0  0  0  0  0  0
    9.2051    6.9101   23.4604 C   0  0  0  0  0  0  0  0  0  0  0  0
   11.9646    6.0299   21.4251 C   0  0  0  0  0  0  0  0  0  0  0  0
  1  5  1  0
  1 13  1  0
  2 20  2  0
  2 28  1  0
  2 29  1  0
  3 19  4  0
  3 25  4  0
  4 23  4  0
  4 27  1  0
  4 30  4  0
  5 17  1  0
  6  8  1  0
  6 29  1  0
  7 24  4  0
  7 26  4  0
  8 28  1  0
  9 13  2  0
 10 18  1  0
 10 21  4  0
 10 30  4  0
 11 17  2  0
 12 18  1  0
 13 15  1  0
 14 24  1  0
 15 25  1  0
 16 28  2  0
 17 20  1  0
 19 24  4  0
 20 23  1  0
 21 22  4  0
 22 23  4  0
 25 26  4  0
 27 29  2  0
M  END
$$$$

 Created by Python create_sdf_string function

 30 33  0  0  0  0  0  0  0  0999 V2000
    8.3036    9.8571   18.4133 C   0  0  0  0  0  0  0  0  0  0  0  0
    8.3694    7.6612   22.6703 C   0  0  0  0  0  0  0  0  0  0  0  0
    8.4143    6.6863   16.2273 C   0  0  0  0  0  0  0  0  0  0  0  0
   10.7581    6.5674   21.7636 C   0  0  0  0  0  0  0  0  0  0  0  0
    8.4452    8.7960   19.2958 O   0  0  0  0  0  0  0  0  0  0  0  0
    8.7122    6.7842   24.8569 C   0  0  0  0  0  0  0  0  0  0  0  0
   10.3400    6.1726   14.3081 C   0  0  0  0  0  0  0  0  0  0  0  0
    7.4297    7.5873   24.8962 C   0  0  0  0  0  0  0  0  0  0  0  0
    8.1566   10.0536   16.0516 O   0  0  0  0  0  0  0  0  0  0  0  0
   12.4989    6.2074   20.1776 C   0  0  0  0  0  0  0  0  0  0  0  0
    6.9192    9.1053   20.9073 O   0  0  0  0  0  0  0  0  0  0  0  0
   14.3979    6.0729   18.7784 C   0  0  0  0  0  0  0  0  0  0  0  0
    8.6811    9.5354   16.9998 C   0  0  0  0  0  0  0  0  0  0  0  0
    9.2512    4.2713   13.7653 O   0  0  0  0  0  0  0  0  0  0  0  0
    9.6495    8.6317   16.8332 N   0  0  0  0  0  0  0  0  0  0  0  0
    6.2934    8.6988   23.1988 O   0  0  0  0  0  0  0  0  0  0  0  0
    7.9806    8.6543   20.5437 C   0  0  0  0  0  0  0  0  0  0  0  0
   13.7270    5.7144   19.8610 O   0  0  0  0  0  0  0  0  0  0  0  0
    8.3351    5.5235   15.4478 C   0  0  0  0  0  0  0  0  0  0  0  0
    8.7700    7.8434   21.3915 C   0  0  0  0  0  0  0  0  0  0  0  0
   11.7856    6.8851   19.2401 C   0  0  0  0  0  0  0  0  0  0  0  0
   10.5281    7.4276   19.5649 C   0  0  0  0  0  0  0  0  0  0  0  0
   10.0256    7.2907   20.8484 C   0  0  0  0  0  0  0  0  0  0  0  0
    9.3113    5.3049   14.4911 C   0  0  0  0  0  0  0  0  0  0  0  0
    9.4607    7.5646   16.0139 C   0  0  0  0  0  0  0  0  0  0  0  0
   10.4192    7.3157   15.0955 C   0  0  0  0  0  0  0  0  0  0  0  0
   10.2489    6.4227   23.0218 N   0  0  0  0  0  0  0  0  0  0  0  0
    7.2472    8.0746   23.5050 C   0  0  0  0  0  0  0  0  0  0  0  0
    9.2051    6.9101   23.4604 C   0  0  0  0  0  0  0  0  0  0  0  0
   11.9646    6.0299   21.4251 C   0  0  0  0  0  0  0  0  0  0  0  0
  1  5  1  0
  1 13  1  0
  2 20  2  0
  2 28  1  0
  2 29  1  0
  3 19  4  0
  3 25  4  0
  4 23  4  0
  4 27  1  0
  4 30  4  0
  5 17  1  0
  6  8  1  0
  6 29  1  0
  7 24  4  0
  7 26  4  0
  8 28  1  0
  9 13  2  0
 10 18  1  0
 10 21  4  0
 10 30  4  0
 11 17  2  0
 12 18  1  0
 13 15  1  0
 14 24  1  0
 15 25  1  0
 16 28  2  0
 17 20  1  0
 19 24  4  0
 20 23  1  0
 21 22  4  0
 22 23  4  0
 25 26  4  0
 27 29  2  0
M  END
$$$$

 Created by Python create_sdf_string function

 30 33  0  0  0  0  0  0  0  0999 V2000
    8.3036    9.8571   18.4133 C   0  0  0  0  0  0  0  0  0  0  0  0
    8.3694    7.6612   22.6703 C   0  0  0  0  0  0  0  0  0  0  0  0
    8.4143    6.6863   16.2273 C   0  0  0  0  0  0  0  0  0  0  0  0
   10.7581    6.5674   21.7636 C   0  0  0  0  0  0  0  0  0  0  0  0
    8.4452    8.7960   19.2958 O   0  0  0  0  0  0  0  0  0  0  0  0
    8.7122    6.7842   24.8569 C   0  0  0  0  0  0  0  0  0  0  0  0
   10.3400    6.1726   14.3081 C   0  0  0  0  0  0  0  0  0  0  0  0
    7.4297    7.5873   24.8962 C   0  0  0  0  0  0  0  0  0  0  0  0
    8.1566   10.0536   16.0516 O   0  0  0  0  0  0  0  0  0  0  0  0
   12.4989    6.2074   20.1776 C   0  0  0  0  0  0  0  0  0  0  0  0
    6.9192    9.1053   20.9073 O   0  0  0  0  0  0  0  0  0  0  0  0
   14.3979    6.0729   18.7784 C   0  0  0  0  0  0  0  0  0  0  0  0
    8.6811    9.5354   16.9998 C   0  0  0  0  0  0  0  0  0  0  0  0
    9.2512    4.2713   13.7653 O   0  0  0  0  0  0  0  0  0  0  0  0
    9.6495    8.6317   16.8332 N   0  0  0  0  0  0  0  0  0  0  0  0
    6.2934    8.6988   23.1988 O   0  0  0  0  0  0  0  0  0  0  0  0
    7.9806    8.6543   20.5437 C   0  0  0  0  0  0  0  0  0  0  0  0
   13.7270    5.7144   19.8610 O   0  0  0  0  0  0  0  0  0  0  0  0
    8.3351    5.5235   15.4478 C   0  0  0  0  0  0  0  0  0  0  0  0
    8.7700    7.8434   21.3915 C   0  0  0  0  0  0  0  0  0  0  0  0
   11.7856    6.8851   19.2401 C   0  0  0  0  0  0  0  0  0  0  0  0
   10.5281    7.4276   19.5649 C   0  0  0  0  0  0  0  0  0  0  0  0
   10.0256    7.2907   20.8484 C   0  0  0  0  0  0  0  0  0  0  0  0
    9.3113    5.3049   14.4911 C   0  0  0  0  0  0  0  0  0  0  0  0
    9.4607    7.5646   16.0139 C   0  0  0  0  0  0  0  0  0  0  0  0
   10.4192    7.3157   15.0955 C   0  0  0  0  0  0  0  0  0  0  0  0
   10.2489    6.4227   23.0218 N   0  0  0  0  0  0  0  0  0  0  0  0
    7.2472    8.0746   23.5050 C   0  0  0  0  0  0  0  0  0  0  0  0
    9.2051    6.9101   23.4604 C   0  0  0  0  0  0  0  0  0  0  0  0
   11.9646    6.0299   21.4251 C   0  0  0  0  0  0  0  0  0  0  0  0
  1  5  1  0
  1 13  1  0
  2 20  2  0
  2 28  1  0
  2 29  1  0
  3 19  4  0
  3 25  4  0
  4 23  4  0
  4 27  1  0
  4 30  4  0
  5 17  1  0
  6  8  1  0
  6 29  1  0
  7 24  4  0
  7 26  4  0
  8 28  1  0
  9 13  2  0
 10 18  1  0
 10 21  4  0
 10 30  4  0
 11 17  2  0
 12 18  1  0
 13 15  1  0
 14 24  1  0
 15 25  1  0
 16 28  2  0
 17 20  1  0
 19 24  4  0
 20 23  1  0
 21 22  4  0
 22 23  4  0
 25 26  4  0
 27 29  2  0
M  END
$$$$

 Created by Python create_sdf_string function

 30 33  0  0  0  0  0  0  0  0999 V2000
    8.3036    9.8571   18.4133 C   0  0  0  0  0  0  0  0  0  0  0  0
    8.3694    7.6612   22.6703 C   0  0  0  0  0  0  0  0  0  0  0  0
    8.4143    6.6863   16.2273 C   0  0  0  0  0  0  0  0  0  0  0  0
   10.7581    6.5674   21.7636 C   0  0  0  0  0  0  0  0  0  0  0  0
    8.4452    8.7960   19.2958 O   0  0  0  0  0  0  0  0  0  0  0  0
    8.7122    6.7842   24.8569 C   0  0  0  0  0  0  0  0  0  0  0  0
   10.3400    6.1726   14.3081 C   0  0  0  0  0  0  0  0  0  0  0  0
    7.4297    7.5873   24.8962 C   0  0  0  0  0  0  0  0  0  0  0  0
    8.1566   10.0536   16.0516 O   0  0  0  0  0  0  0  0  0  0  0  0
   12.4989    6.2074   20.1776 C   0  0  0  0  0  0  0  0  0  0  0  0
    6.9192    9.1053   20.9073 O   0  0  0  0  0  0  0  0  0  0  0  0
   14.3979    6.0729   18.7784 C   0  0  0  0  0  0  0  0  0  0  0  0
    8.6811    9.5354   16.9998 C   0  0  0  0  0  0  0  0  0  0  0  0
    9.2512    4.2713   13.7653 O   0  0  0  0  0  0  0  0  0  0  0  0
    9.6495    8.6317   16.8332 N   0  0  0  0  0  0  0  0  0  0  0  0
    6.2934    8.6988   23.1988 O   0  0  0  0  0  0  0  0  0  0  0  0
    7.9806    8.6543   20.5437 C   0  0  0  0  0  0  0  0  0  0  0  0
   13.7270    5.7144   19.8610 O   0  0  0  0  0  0  0  0  0  0  0  0
    8.3351    5.5235   15.4478 C   0  0  0  0  0  0  0  0  0  0  0  0
    8.7700    7.8434   21.3915 C   0  0  0  0  0  0  0  0  0  0  0  0
   11.7856    6.8851   19.2401 C   0  0  0  0  0  0  0  0  0  0  0  0
   10.5281    7.4276   19.5649 C   0  0  0  0  0  0  0  0  0  0  0  0
   10.0256    7.2907   20.8484 C   0  0  0  0  0  0  0  0  0  0  0  0
    9.3113    5.3049   14.4911 C   0  0  0  0  0  0  0  0  0  0  0  0
    9.4607    7.5646   16.0139 C   0  0  0  0  0  0  0  0  0  0  0  0
   10.4192    7.3157   15.0955 C   0  0  0  0  0  0  0  0  0  0  0  0
   10.2489    6.4227   23.0218 N   0  0  0  0  0  0  0  0  0  0  0  0
    7.2472    8.0746   23.5050 C   0  0  0  0  0  0  0  0  0  0  0  0
    9.2051    6.9101   23.4604 C   0  0  0  0  0  0  0  0  0  0  0  0
   11.9646    6.0299   21.4251 C   0  0  0  0  0  0  0  0  0  0  0  0
  1  5  1  0
  1 13  1  0
  2 20  2  0
  2 28  1  0
  2 29  1  0
  3 19  4  0
  3 25  4  0
  4 23  4  0
  4 27  1  0
  4 30  4  0
  5 17  1  0
  6  8  1  0
  6 29  1  0
  7 24  4  0
  7 26  4  0
  8 28  1  0
  9 13  2  0
 10 18  1  0
 10 21  4  0
 10 30  4  0
 11 17  2  0
 12 18  1  0
 13 15  1  0
 14 24  1  0
 15 25  1  0
 16 28  2  0
 17 20  1  0
 19 24  4  0
 20 23  1  0
 21 22  4  0
 22 23  4  0
 25 26  4  0
 27 29  2  0
M  END
$$$$

 Created by Python create_sdf_string function

 30 33  0  0  0  0  0  0  0  0999 V2000
    8.3036    9.8571   18.4133 C   0  0  0  0  0  0  0  0  0  0  0  0
    8.3694    7.6612   22.6703 C   0  0  0  0  0  0  0  0  0  0  0  0
    8.4143    6.6863   16.2273 C   0  0  0  0  0  0  0  0  0  0  0  0
   10.7581    6.5674   21.7636 C   0  0  0  0  0  0  0  0  0  0  0  0
    8.4452    8.7960   19.2958 O   0  0  0  0  0  0  0  0  0  0  0  0
    8.7122    6.7842   24.8569 C   0  0  0  0  0  0  0  0  0  0  0  0
   10.3400    6.1726   14.3081 C   0  0  0  0  0  0  0  0  0  0  0  0
    7.4297    7.5873   24.8962 C   0  0  0  0  0  0  0  0  0  0  0  0
    8.1566   10.0536   16.0516 O   0  0  0  0  0  0  0  0  0  0  0  0
   12.4989    6.2074   20.1776 C   0  0  0  0  0  0  0  0  0  0  0  0
    6.9192    9.1053   20.9073 O   0  0  0  0  0  0  0  0  0  0  0  0
   14.3979    6.0729   18.7784 C   0  0  0  0  0  0  0  0  0  0  0  0
    8.6811    9.5354   16.9998 C   0  0  0  0  0  0  0  0  0  0  0  0
    9.2512    4.2713   13.7653 O   0  0  0  0  0  0  0  0  0  0  0  0
    9.6495    8.6317   16.8332 N   0  0  0  0  0  0  0  0  0  0  0  0
    6.2934    8.6988   23.1988 O   0  0  0  0  0  0  0  0  0  0  0  0
    7.9806    8.6543   20.5437 C   0  0  0  0  0  0  0  0  0  0  0  0
   13.7270    5.7144   19.8610 O   0  0  0  0  0  0  0  0  0  0  0  0
    8.3351    5.5235   15.4478 C   0  0  0  0  0  0  0  0  0  0  0  0
    8.7700    7.8434   21.3915 C   0  0  0  0  0  0  0  0  0  0  0  0
   11.7856    6.8851   19.2401 C   0  0  0  0  0  0  0  0  0  0  0  0
   10.5281    7.4276   19.5649 C   0  0  0  0  0  0  0  0  0  0  0  0
   10.0256    7.2907   20.8484 C   0  0  0  0  0  0  0  0  0  0  0  0
    9.3113    5.3049   14.4911 C   0  0  0  0  0  0  0  0  0  0  0  0
    9.4607    7.5646   16.0139 C   0  0  0  0  0  0  0  0  0  0  0  0
   10.4192    7.3157   15.0955 C   0  0  0  0  0  0  0  0  0  0  0  0
   10.2489    6.4227   23.0218 N   0  0  0  0  0  0  0  0  0  0  0  0
    7.2472    8.0746   23.5050 C   0  0  0  0  0  0  0  0  0  0  0  0
    9.2051    6.9101   23.4604 C   0  0  0  0  0  0  0  0  0  0  0  0
   11.9646    6.0299   21.4251 C   0  0  0  0  0  0  0  0  0  0  0  0
  1  5  1  0
  1 13  1  0
  2 20  2  0
  2 28  1  0
  2 29  1  0
  3 19  4  0
  3 25  4  0
  4 23  4  0
  4 27  1  0
  4 30  4  0
  5 17  1  0
  6  8  1  0
  6 29  1  0
  7 24  4  0
  7 26  4  0
  8 28  1  0
  9 13  2  0
 10 18  1  0
 10 21  4  0
 10 30  4  0
 11 17  2  0
 12 18  1  0
 13 15  1  0
 14 24  1  0
 15 25  1  0
 16 28  2  0
 17 20  1  0
 19 24  4  0
 20 23  1  0
 21 22  4  0
 22 23  4  0
 25 26  4  0
 27 29  2  0
M  END
$$$$

 Created by Python create_sdf_string function

 30 33  0  0  0  0  0  0  0  0999 V2000
    8.3036    9.8571   18.4133 C   0  0  0  0  0  0  0  0  0  0  0  0
    8.3694    7.6612   22.6703 C   0  0  0  0  0  0  0  0  0  0  0  0
    8.4143    6.6863   16.2273 C   0  0  0  0  0  0  0  0  0  0  0  0
   10.7581    6.5674   21.7636 C   0  0  0  0  0  0  0  0  0  0  0  0
    8.4452    8.7960   19.2958 O   0  0  0  0  0  0  0  0  0  0  0  0
    8.7122    6.7842   24.8569 C   0  0  0  0  0  0  0  0  0  0  0  0
   10.3400    6.1726   14.3081 C   0  0  0  0  0  0  0  0  0  0  0  0
    7.4297    7.5873   24.8962 C   0  0  0  0  0  0  0  0  0  0  0  0
    8.1566   10.0536   16.0516 O   0  0  0  0  0  0  0  0  0  0  0  0
   12.4989    6.2074   20.1776 C   0  0  0  0  0  0  0  0  0  0  0  0
    6.9192    9.1053   20.9073 O   0  0  0  0  0  0  0  0  0  0  0  0
   14.3979    6.0729   18.7784 C   0  0  0  0  0  0  0  0  0  0  0  0
    8.6811    9.5354   16.9998 C   0  0  0  0  0  0  0  0  0  0  0  0
    9.2512    4.2713   13.7653 O   0  0  0  0  0  0  0  0  0  0  0  0
    9.6495    8.6317   16.8332 N   0  0  0  0  0  0  0  0  0  0  0  0
    6.2934    8.6988   23.1988 O   0  0  0  0  0  0  0  0  0  0  0  0
    7.9806    8.6543   20.5437 C   0  0  0  0  0  0  0  0  0  0  0  0
   13.7270    5.7144   19.8610 O   0  0  0  0  0  0  0  0  0  0  0  0
    8.3351    5.5235   15.4478 C   0  0  0  0  0  0  0  0  0  0  0  0
    8.7700    7.8434   21.3915 C   0  0  0  0  0  0  0  0  0  0  0  0
   11.7856    6.8851   19.2401 C   0  0  0  0  0  0  0  0  0  0  0  0
   10.5281    7.4276   19.5649 C   0  0  0  0  0  0  0  0  0  0  0  0
   10.0256    7.2907   20.8484 C   0  0  0  0  0  0  0  0  0  0  0  0
    9.3113    5.3049   14.4911 C   0  0  0  0  0  0  0  0  0  0  0  0
    9.4607    7.5646   16.0139 C   0  0  0  0  0  0  0  0  0  0  0  0
   10.4192    7.3157   15.0955 C   0  0  0  0  0  0  0  0  0  0  0  0
   10.2489    6.4227   23.0218 N   0  0  0  0  0  0  0  0  0  0  0  0
    7.2472    8.0746   23.5050 C   0  0  0  0  0  0  0  0  0  0  0  0
    9.2051    6.9101   23.4604 C   0  0  0  0  0  0  0  0  0  0  0  0
   11.9646    6.0299   21.4251 C   0  0  0  0  0  0  0  0  0  0  0  0
  1  5  1  0
  1 13  1  0
  2 20  2  0
  2 28  1  0
  2 29  1  0
  3 19  4  0
  3 25  4  0
  4 23  4  0
  4 27  1  0
  4 30  4  0
  5 17  1  0
  6  8  1  0
  6 29  1  0
  7 24  4  0
  7 26  4  0
  8 28  1  0
  9 13  2  0
 10 18  1  0
 10 21  4  0
 10 30  4  0
 11 17  2  0
 12 18  1  0
 13 15  1  0
 14 24  1  0
 15 25  1  0
 16 28  2  0
 17 20  1  0
 19 24  4  0
 20 23  1  0
 21 22  4  0
 22 23  4  0
 25 26  4  0
 27 29  2  0
M  END
$$$$

 Created by Python create_sdf_string function

 30 33  0  0  0  0  0  0  0  0999 V2000
    8.3036    9.8571   18.4133 C   0  0  0  0  0  0  0  0  0  0  0  0
    8.3694    7.6612   22.6703 C   0  0  0  0  0  0  0  0  0  0  0  0
    8.4143    6.6863   16.2273 C   0  0  0  0  0  0  0  0  0  0  0  0
   10.7581    6.5674   21.7636 C   0  0  0  0  0  0  0  0  0  0  0  0
    8.4452    8.7960   19.2958 O   0  0  0  0  0  0  0  0  0  0  0  0
    8.7122    6.7842   24.8569 C   0  0  0  0  0  0  0  0  0  0  0  0
   10.3400    6.1726   14.3081 C   0  0  0  0  0  0  0  0  0  0  0  0
    7.4297    7.5873   24.8962 C   0  0  0  0  0  0  0  0  0  0  0  0
    8.1566   10.0536   16.0516 O   0  0  0  0  0  0  0  0  0  0  0  0
   12.4989    6.2074   20.1776 C   0  0  0  0  0  0  0  0  0  0  0  0
    6.9192    9.1053   20.9073 O   0  0  0  0  0  0  0  0  0  0  0  0
   14.3979    6.0729   18.7784 C   0  0  0  0  0  0  0  0  0  0  0  0
    8.6811    9.5354   16.9998 C   0  0  0  0  0  0  0  0  0  0  0  0
    9.2512    4.2713   13.7653 O   0  0  0  0  0  0  0  0  0  0  0  0
    9.6495    8.6317   16.8332 N   0  0  0  0  0  0  0  0  0  0  0  0
    6.2934    8.6988   23.1988 O   0  0  0  0  0  0  0  0  0  0  0  0
    7.9806    8.6543   20.5437 C   0  0  0  0  0  0  0  0  0  0  0  0
   13.7270    5.7144   19.8610 O   0  0  0  0  0  0  0  0  0  0  0  0
    8.3351    5.5235   15.4478 C   0  0  0  0  0  0  0  0  0  0  0  0
    8.7700    7.8434   21.3915 C   0  0  0  0  0  0  0  0  0  0  0  0
   11.7856    6.8851   19.2401 C   0  0  0  0  0  0  0  0  0  0  0  0
   10.5281    7.4276   19.5649 C   0  0  0  0  0  0  0  0  0  0  0  0
   10.0256    7.2907   20.8484 C   0  0  0  0  0  0  0  0  0  0  0  0
    9.3113    5.3049   14.4911 C   0  0  0  0  0  0  0  0  0  0  0  0
    9.4607    7.5646   16.0139 C   0  0  0  0  0  0  0  0  0  0  0  0
   10.4192    7.3157   15.0955 C   0  0  0  0  0  0  0  0  0  0  0  0
   10.2489    6.4227   23.0218 N   0  0  0  0  0  0  0  0  0  0  0  0
    7.2472    8.0746   23.5050 C   0  0  0  0  0  0  0  0  0  0  0  0
    9.2051    6.9101   23.4604 C   0  0  0  0  0  0  0  0  0  0  0  0
   11.9646    6.0299   21.4251 C   0  0  0  0  0  0  0  0  0  0  0  0
  1  5  1  0
  1 13  1  0
  2 20  2  0
  2 28  1  0
  2 29  1  0
  3 19  4  0
  3 25  4  0
  4 23  4  0
  4 27  1  0
  4 30  4  0
  5 17  1  0
  6  8  1  0
  6 29  1  0
  7 24  4  0
  7 26  4  0
  8 28  1  0
  9 13  2  0
 10 18  1  0
 10 21  4  0
 10 30  4  0
 11 17  2  0
 12 18  1  0
 13 15  1  0
 14 24  1  0
 15 25  1  0
 16 28  2  0
 17 20  1  0
 19 24  4  0
 20 23  1  0
 21 22  4  0
 22 23  4  0
 25 26  4  0
 27 29  2  0
M  END
$$$$

 Created by Python create_sdf_string function

 30 33  0  0  0  0  0  0  0  0999 V2000
    8.3036    9.8571   18.4133 C   0  0  0  0  0  0  0  0  0  0  0  0
    8.3694    7.6612   22.6703 C   0  0  0  0  0  0  0  0  0  0  0  0
    8.4143    6.6863   16.2273 C   0  0  0  0  0  0  0  0  0  0  0  0
   10.7581    6.5674   21.7636 C   0  0  0  0  0  0  0  0  0  0  0  0
    8.4452    8.7960   19.2958 O   0  0  0  0  0  0  0  0  0  0  0  0
    8.7122    6.7842   24.8569 C   0  0  0  0  0  0  0  0  0  0  0  0
   10.3400    6.1726   14.3081 C   0  0  0  0  0  0  0  0  0  0  0  0
    7.4297    7.5873   24.8962 C   0  0  0  0  0  0  0  0  0  0  0  0
    8.1566   10.0536   16.0516 O   0  0  0  0  0  0  0  0  0  0  0  0
   12.4989    6.2074   20.1776 C   0  0  0  0  0  0  0  0  0  0  0  0
    6.9192    9.1053   20.9073 O   0  0  0  0  0  0  0  0  0  0  0  0
   14.3979    6.0729   18.7784 C   0  0  0  0  0  0  0  0  0  0  0  0
    8.6811    9.5354   16.9998 C   0  0  0  0  0  0  0  0  0  0  0  0
    9.2512    4.2713   13.7653 O   0  0  0  0  0  0  0  0  0  0  0  0
    9.6495    8.6317   16.8332 N   0  0  0  0  0  0  0  0  0  0  0  0
    6.2934    8.6988   23.1988 O   0  0  0  0  0  0  0  0  0  0  0  0
    7.9806    8.6543   20.5437 C   0  0  0  0  0  0  0  0  0  0  0  0
   13.7270    5.7144   19.8610 O   0  0  0  0  0  0  0  0  0  0  0  0
    8.3351    5.5235   15.4478 C   0  0  0  0  0  0  0  0  0  0  0  0
    8.7700    7.8434   21.3915 C   0  0  0  0  0  0  0  0  0  0  0  0
   11.7856    6.8851   19.2401 C   0  0  0  0  0  0  0  0  0  0  0  0
   10.5281    7.4276   19.5649 C   0  0  0  0  0  0  0  0  0  0  0  0
   10.0256    7.2907   20.8484 C   0  0  0  0  0  0  0  0  0  0  0  0
    9.3113    5.3049   14.4911 C   0  0  0  0  0  0  0  0  0  0  0  0
    9.4607    7.5646   16.0139 C   0  0  0  0  0  0  0  0  0  0  0  0
   10.4192    7.3157   15.0955 C   0  0  0  0  0  0  0  0  0  0  0  0
   10.2489    6.4227   23.0218 N   0  0  0  0  0  0  0  0  0  0  0  0
    7.2472    8.0746   23.5050 C   0  0  0  0  0  0  0  0  0  0  0  0
    9.2051    6.9101   23.4604 C   0  0  0  0  0  0  0  0  0  0  0  0
   11.9646    6.0299   21.4251 C   0  0  0  0  0  0  0  0  0  0  0  0
  1  5  1  0
  1 13  1  0
  2 20  2  0
  2 28  1  0
  2 29  1  0
  3 19  4  0
  3 25  4  0
  4 23  4  0
  4 27  1  0
  4 30  4  0
  5 17  1  0
  6  8  1  0
  6 29  1  0
  7 24  4  0
  7 26  4  0
  8 28  1  0
  9 13  2  0
 10 18  1  0
 10 21  4  0
 10 30  4  0
 11 17  2  0
 12 18  1  0
 13 15  1  0
 14 24  1  0
 15 25  1  0
 16 28  2  0
 17 20  1  0
 19 24  4  0
 20 23  1  0
 21 22  4  0
 22 23  4  0
 25 26  4  0
 27 29  2  0
M  END
$$$$

 Created by Python create_sdf_string function

 30 33  0  0  0  0  0  0  0  0999 V2000
    8.3036    9.8571   18.4133 C   0  0  0  0  0  0  0  0  0  0  0  0
    8.3694    7.6612   22.6703 C   0  0  0  0  0  0  0  0  0  0  0  0
    8.4143    6.6863   16.2273 C   0  0  0  0  0  0  0  0  0  0  0  0
   10.7581    6.5674   21.7636 C   0  0  0  0  0  0  0  0  0  0  0  0
    8.4452    8.7960   19.2958 O   0  0  0  0  0  0  0  0  0  0  0  0
    8.7122    6.7842   24.8569 C   0  0  0  0  0  0  0  0  0  0  0  0
   10.3400    6.1726   14.3081 C   0  0  0  0  0  0  0  0  0  0  0  0
    7.4297    7.5873   24.8962 C   0  0  0  0  0  0  0  0  0  0  0  0
    8.1566   10.0536   16.0516 O   0  0  0  0  0  0  0  0  0  0  0  0
   12.4989    6.2074   20.1776 C   0  0  0  0  0  0  0  0  0  0  0  0
    6.9192    9.1053   20.9073 O   0  0  0  0  0  0  0  0  0  0  0  0
   14.3979    6.0729   18.7784 C   0  0  0  0  0  0  0  0  0  0  0  0
    8.6811    9.5354   16.9998 C   0  0  0  0  0  0  0  0  0  0  0  0
    9.2512    4.2713   13.7653 O   0  0  0  0  0  0  0  0  0  0  0  0
    9.6495    8.6317   16.8332 N   0  0  0  0  0  0  0  0  0  0  0  0
    6.2934    8.6988   23.1988 O   0  0  0  0  0  0  0  0  0  0  0  0
    7.9806    8.6543   20.5437 C   0  0  0  0  0  0  0  0  0  0  0  0
   13.7270    5.7144   19.8610 O   0  0  0  0  0  0  0  0  0  0  0  0
    8.3351    5.5235   15.4478 C   0  0  0  0  0  0  0  0  0  0  0  0
    8.7700    7.8434   21.3915 C   0  0  0  0  0  0  0  0  0  0  0  0
   11.7856    6.8851   19.2401 C   0  0  0  0  0  0  0  0  0  0  0  0
   10.5281    7.4276   19.5649 C   0  0  0  0  0  0  0  0  0  0  0  0
   10.0256    7.2907   20.8484 C   0  0  0  0  0  0  0  0  0  0  0  0
    9.3113    5.3049   14.4911 C   0  0  0  0  0  0  0  0  0  0  0  0
    9.4607    7.5646   16.0139 C   0  0  0  0  0  0  0  0  0  0  0  0
   10.4192    7.3157   15.0955 C   0  0  0  0  0  0  0  0  0  0  0  0
   10.2489    6.4227   23.0218 N   0  0  0  0  0  0  0  0  0  0  0  0
    7.2472    8.0746   23.5050 C   0  0  0  0  0  0  0  0  0  0  0  0
    9.2051    6.9101   23.4604 C   0  0  0  0  0  0  0  0  0  0  0  0
   11.9646    6.0299   21.4251 C   0  0  0  0  0  0  0  0  0  0  0  0
  1  5  1  0
  1 13  1  0
  2 20  2  0
  2 28  1  0
  2 29  1  0
  3 19  4  0
  3 25  4  0
  4 23  4  0
  4 27  1  0
  4 30  4  0
  5 17  1  0
  6  8  1  0
  6 29  1  0
  7 24  4  0
  7 26  4  0
  8 28  1  0
  9 13  2  0
 10 18  1  0
 10 21  4  0
 10 30  4  0
 11 17  2  0
 12 18  1  0
 13 15  1  0
 14 24  1  0
 15 25  1  0
 16 28  2  0
 17 20  1  0
 19 24  4  0
 20 23  1  0
 21 22  4  0
 22 23  4  0
 25 26  4  0
 27 29  2  0
M  END
$$$$

 Created by Python create_sdf_string function

 30 33  0  0  0  0  0  0  0  0999 V2000
    8.3036    9.8571   18.4133 C   0  0  0  0  0  0  0  0  0  0  0  0
    8.3694    7.6612   22.6703 C   0  0  0  0  0  0  0  0  0  0  0  0
    8.4143    6.6863   16.2273 C   0  0  0  0  0  0  0  0  0  0  0  0
   10.7581    6.5674   21.7636 C   0  0  0  0  0  0  0  0  0  0  0  0
    8.4452    8.7960   19.2958 O   0  0  0  0  0  0  0  0  0  0  0  0
    8.7122    6.7842   24.8569 C   0  0  0  0  0  0  0  0  0  0  0  0
   10.3400    6.1726   14.3081 C   0  0  0  0  0  0  0  0  0  0  0  0
    7.4297    7.5873   24.8962 C   0  0  0  0  0  0  0  0  0  0  0  0
    8.1566   10.0536   16.0516 O   0  0  0  0  0  0  0  0  0  0  0  0
   12.4989    6.2074   20.1776 C   0  0  0  0  0  0  0  0  0  0  0  0
    6.9192    9.1053   20.9073 O   0  0  0  0  0  0  0  0  0  0  0  0
   14.3979    6.0729   18.7784 C   0  0  0  0  0  0  0  0  0  0  0  0
    8.6811    9.5354   16.9998 C   0  0  0  0  0  0  0  0  0  0  0  0
    9.2512    4.2713   13.7653 O   0  0  0  0  0  0  0  0  0  0  0  0
    9.6495    8.6317   16.8332 N   0  0  0  0  0  0  0  0  0  0  0  0
    6.2934    8.6988   23.1988 O   0  0  0  0  0  0  0  0  0  0  0  0
    7.9806    8.6543   20.5437 C   0  0  0  0  0  0  0  0  0  0  0  0
   13.7270    5.7144   19.8610 O   0  0  0  0  0  0  0  0  0  0  0  0
    8.3351    5.5235   15.4478 C   0  0  0  0  0  0  0  0  0  0  0  0
    8.7700    7.8434   21.3915 C   0  0  0  0  0  0  0  0  0  0  0  0
   11.7856    6.8851   19.2401 C   0  0  0  0  0  0  0  0  0  0  0  0
   10.5281    7.4276   19.5649 C   0  0  0  0  0  0  0  0  0  0  0  0
   10.0256    7.2907   20.8484 C   0  0  0  0  0  0  0  0  0  0  0  0
    9.3113    5.3049   14.4911 C   0  0  0  0  0  0  0  0  0  0  0  0
    9.4607    7.5646   16.0139 C   0  0  0  0  0  0  0  0  0  0  0  0
   10.4192    7.3157   15.0955 C   0  0  0  0  0  0  0  0  0  0  0  0
   10.2489    6.4227   23.0218 N   0  0  0  0  0  0  0  0  0  0  0  0
    7.2472    8.0746   23.5050 C   0  0  0  0  0  0  0  0  0  0  0  0
    9.2051    6.9101   23.4604 C   0  0  0  0  0  0  0  0  0  0  0  0
   11.9646    6.0299   21.4251 C   0  0  0  0  0  0  0  0  0  0  0  0
  1  5  1  0
  1 13  1  0
  2 20  2  0
  2 28  1  0
  2 29  1  0
  3 19  4  0
  3 25  4  0
  4 23  4  0
  4 27  1  0
  4 30  4  0
  5 17  1  0
  6  8  1  0
  6 29  1  0
  7 24  4  0
  7 26  4  0
  8 28  1  0
  9 13  2  0
 10 18  1  0
 10 21  4  0
 10 30  4  0
 11 17  2  0
 12 18  1  0
 13 15  1  0
 14 24  1  0
 15 25  1  0
 16 28  2  0
 17 20  1  0
 19 24  4  0
 20 23  1  0
 21 22  4  0
 22 23  4  0
 25 26  4  0
 27 29  2  0
M  END
$$$$

 Created by Python create_sdf_string function

 30 33  0  0  0  0  0  0  0  0999 V2000
    8.3036    9.8571   18.4133 C   0  0  0  0  0  0  0  0  0  0  0  0
    8.3694    7.6612   22.6703 C   0  0  0  0  0  0  0  0  0  0  0  0
    8.4143    6.6863   16.2273 C   0  0  0  0  0  0  0  0  0  0  0  0
   10.7581    6.5674   21.7636 C   0  0  0  0  0  0  0  0  0  0  0  0
    8.4452    8.7960   19.2958 O   0  0  0  0  0  0  0  0  0  0  0  0
    8.7122    6.7842   24.8569 C   0  0  0  0  0  0  0  0  0  0  0  0
   10.3400    6.1726   14.3081 C   0  0  0  0  0  0  0  0  0  0  0  0
    7.4297    7.5873   24.8962 C   0  0  0  0  0  0  0  0  0  0  0  0
    8.1566   10.0536   16.0516 O   0  0  0  0  0  0  0  0  0  0  0  0
   12.4989    6.2074   20.1776 C   0  0  0  0  0  0  0  0  0  0  0  0
    6.9192    9.1053   20.9073 O   0  0  0  0  0  0  0  0  0  0  0  0
   14.3979    6.0729   18.7784 C   0  0  0  0  0  0  0  0  0  0  0  0
    8.6811    9.5354   16.9998 C   0  0  0  0  0  0  0  0  0  0  0  0
    9.2512    4.2713   13.7653 O   0  0  0  0  0  0  0  0  0  0  0  0
    9.6495    8.6317   16.8332 N   0  0  0  0  0  0  0  0  0  0  0  0
    6.2934    8.6988   23.1988 O   0  0  0  0  0  0  0  0  0  0  0  0
    7.9806    8.6543   20.5437 C   0  0  0  0  0  0  0  0  0  0  0  0
   13.7270    5.7144   19.8610 O   0  0  0  0  0  0  0  0  0  0  0  0
    8.3351    5.5235   15.4478 C   0  0  0  0  0  0  0  0  0  0  0  0
    8.7700    7.8434   21.3915 C   0  0  0  0  0  0  0  0  0  0  0  0
   11.7856    6.8851   19.2401 C   0  0  0  0  0  0  0  0  0  0  0  0
   10.5281    7.4276   19.5649 C   0  0  0  0  0  0  0  0  0  0  0  0
   10.0256    7.2907   20.8484 C   0  0  0  0  0  0  0  0  0  0  0  0
    9.3113    5.3049   14.4911 C   0  0  0  0  0  0  0  0  0  0  0  0
    9.4607    7.5646   16.0139 C   0  0  0  0  0  0  0  0  0  0  0  0
   10.4192    7.3157   15.0955 C   0  0  0  0  0  0  0  0  0  0  0  0
   10.2489    6.4227   23.0218 N   0  0  0  0  0  0  0  0  0  0  0  0
    7.2472    8.0746   23.5050 C   0  0  0  0  0  0  0  0  0  0  0  0
    9.2051    6.9101   23.4604 C   0  0  0  0  0  0  0  0  0  0  0  0
   11.9646    6.0299   21.4251 C   0  0  0  0  0  0  0  0  0  0  0  0
  1  5  1  0
  1 13  1  0
  2 20  2  0
  2 28  1  0
  2 29  1  0
  3 19  4  0
  3 25  4  0
  4 23  4  0
  4 27  1  0
  4 30  4  0
  5 17  1  0
  6  8  1  0
  6 29  1  0
  7 24  4  0
  7 26  4  0
  8 28  1  0
  9 13  2  0
 10 18  1  0
 10 21  4  0
 10 30  4  0
 11 17  2  0
 12 18  1  0
 13 15  1  0
 14 24  1  0
 15 25  1  0
 16 28  2  0
 17 20  1  0
 19 24  4  0
 20 23  1  0
 21 22  4  0
 22 23  4  0
 25 26  4  0
 27 29  2  0
M  END
$$$$

 Created by Python create_sdf_string function

 30 33  0  0  0  0  0  0  0  0999 V2000
    8.3036    9.8571   18.4133 C   0  0  0  0  0  0  0  0  0  0  0  0
    8.3694    7.6612   22.6703 C   0  0  0  0  0  0  0  0  0  0  0  0
    8.4143    6.6863   16.2273 C   0  0  0  0  0  0  0  0  0  0  0  0
   10.7581    6.5674   21.7636 C   0  0  0  0  0  0  0  0  0  0  0  0
    8.4452    8.7960   19.2958 O   0  0  0  0  0  0  0  0  0  0  0  0
    8.7122    6.7842   24.8569 C   0  0  0  0  0  0  0  0  0  0  0  0
   10.3400    6.1726   14.3081 C   0  0  0  0  0  0  0  0  0  0  0  0
    7.4297    7.5873   24.8962 C   0  0  0  0  0  0  0  0  0  0  0  0
    8.1566   10.0536   16.0516 O   0  0  0  0  0  0  0  0  0  0  0  0
   12.4989    6.2074   20.1776 C   0  0  0  0  0  0  0  0  0  0  0  0
    6.9192    9.1053   20.9073 O   0  0  0  0  0  0  0  0  0  0  0  0
   14.3979    6.0729   18.7784 C   0  0  0  0  0  0  0  0  0  0  0  0
    8.6811    9.5354   16.9998 C   0  0  0  0  0  0  0  0  0  0  0  0
    9.2512    4.2713   13.7653 O   0  0  0  0  0  0  0  0  0  0  0  0
    9.6495    8.6317   16.8332 N   0  0  0  0  0  0  0  0  0  0  0  0
    6.2934    8.6988   23.1988 O   0  0  0  0  0  0  0  0  0  0  0  0
    7.9806    8.6543   20.5437 C   0  0  0  0  0  0  0  0  0  0  0  0
   13.7270    5.7144   19.8610 O   0  0  0  0  0  0  0  0  0  0  0  0
    8.3351    5.5235   15.4478 C   0  0  0  0  0  0  0  0  0  0  0  0
    8.7700    7.8434   21.3915 C   0  0  0  0  0  0  0  0  0  0  0  0
   11.7856    6.8851   19.2401 C   0  0  0  0  0  0  0  0  0  0  0  0
   10.5281    7.4276   19.5649 C   0  0  0  0  0  0  0  0  0  0  0  0
   10.0256    7.2907   20.8484 C   0  0  0  0  0  0  0  0  0  0  0  0
    9.3113    5.3049   14.4911 C   0  0  0  0  0  0  0  0  0  0  0  0
    9.4607    7.5646   16.0139 C   0  0  0  0  0  0  0  0  0  0  0  0
   10.4192    7.3157   15.0955 C   0  0  0  0  0  0  0  0  0  0  0  0
   10.2489    6.4227   23.0218 N   0  0  0  0  0  0  0  0  0  0  0  0
    7.2472    8.0746   23.5050 C   0  0  0  0  0  0  0  0  0  0  0  0
    9.2051    6.9101   23.4604 C   0  0  0  0  0  0  0  0  0  0  0  0
   11.9646    6.0299   21.4251 C   0  0  0  0  0  0  0  0  0  0  0  0
  1  5  1  0
  1 13  1  0
  2 20  2  0
  2 28  1  0
  2 29  1  0
  3 19  4  0
  3 25  4  0
  4 23  4  0
  4 27  1  0
  4 30  4  0
  5 17  1  0
  6  8  1  0
  6 29  1  0
  7 24  4  0
  7 26  4  0
  8 28  1  0
  9 13  2  0
 10 18  1  0
 10 21  4  0
 10 30  4  0
 11 17  2  0
 12 18  1  0
 13 15  1  0
 14 24  1  0
 15 25  1  0
 16 28  2  0
 17 20  1  0
 19 24  4  0
 20 23  1  0
 21 22  4  0
 22 23  4  0
 25 26  4  0
 27 29  2  0
M  END
$$$$

 Created by Python create_sdf_string function

 30 33  0  0  0  0  0  0  0  0999 V2000
    8.3036    9.8571   18.4133 C   0  0  0  0  0  0  0  0  0  0  0  0
    8.3694    7.6612   22.6703 C   0  0  0  0  0  0  0  0  0  0  0  0
    8.4143    6.6863   16.2273 C   0  0  0  0  0  0  0  0  0  0  0  0
   10.7581    6.5674   21.7636 C   0  0  0  0  0  0  0  0  0  0  0  0
    8.4452    8.7960   19.2958 O   0  0  0  0  0  0  0  0  0  0  0  0
    8.7122    6.7842   24.8569 C   0  0  0  0  0  0  0  0  0  0  0  0
   10.3400    6.1726   14.3081 C   0  0  0  0  0  0  0  0  0  0  0  0
    7.4297    7.5873   24.8962 C   0  0  0  0  0  0  0  0  0  0  0  0
    8.1566   10.0536   16.0516 O   0  0  0  0  0  0  0  0  0  0  0  0
   12.4989    6.2074   20.1776 C   0  0  0  0  0  0  0  0  0  0  0  0
    6.9192    9.1053   20.9073 O   0  0  0  0  0  0  0  0  0  0  0  0
   14.3979    6.0729   18.7784 C   0  0  0  0  0  0  0  0  0  0  0  0
    8.6811    9.5354   16.9998 C   0  0  0  0  0  0  0  0  0  0  0  0
    9.2512    4.2713   13.7653 O   0  0  0  0  0  0  0  0  0  0  0  0
    9.6495    8.6317   16.8332 N   0  0  0  0  0  0  0  0  0  0  0  0
    6.2934    8.6988   23.1988 O   0  0  0  0  0  0  0  0  0  0  0  0
    7.9806    8.6543   20.5437 C   0  0  0  0  0  0  0  0  0  0  0  0
   13.7270    5.7144   19.8610 O   0  0  0  0  0  0  0  0  0  0  0  0
    8.3351    5.5235   15.4478 C   0  0  0  0  0  0  0  0  0  0  0  0
    8.7700    7.8434   21.3915 C   0  0  0  0  0  0  0  0  0  0  0  0
   11.7856    6.8851   19.2401 C   0  0  0  0  0  0  0  0  0  0  0  0
   10.5281    7.4276   19.5649 C   0  0  0  0  0  0  0  0  0  0  0  0
   10.0256    7.2907   20.8484 C   0  0  0  0  0  0  0  0  0  0  0  0
    9.3113    5.3049   14.4911 C   0  0  0  0  0  0  0  0  0  0  0  0
    9.4607    7.5646   16.0139 C   0  0  0  0  0  0  0  0  0  0  0  0
   10.4192    7.3157   15.0955 C   0  0  0  0  0  0  0  0  0  0  0  0
   10.2489    6.4227   23.0218 N   0  0  0  0  0  0  0  0  0  0  0  0
    7.2472    8.0746   23.5050 C   0  0  0  0  0  0  0  0  0  0  0  0
    9.2051    6.9101   23.4604 C   0  0  0  0  0  0  0  0  0  0  0  0
   11.9646    6.0299   21.4251 C   0  0  0  0  0  0  0  0  0  0  0  0
  1  5  1  0
  1 13  1  0
  2 20  2  0
  2 28  1  0
  2 29  1  0
  3 19  4  0
  3 25  4  0
  4 23  4  0
  4 27  1  0
  4 30  4  0
  5 17  1  0
  6  8  1  0
  6 29  1  0
  7 24  4  0
  7 26  4  0
  8 28  1  0
  9 13  2  0
 10 18  1  0
 10 21  4  0
 10 30  4  0
 11 17  2  0
 12 18  1  0
 13 15  1  0
 14 24  1  0
 15 25  1  0
 16 28  2  0
 17 20  1  0
 19 24  4  0
 20 23  1  0
 21 22  4  0
 22 23  4  0
 25 26  4  0
 27 29  2  0
M  END
$$$$

 Created by Python create_sdf_string function

 30 33  0  0  0  0  0  0  0  0999 V2000
    8.3036    9.8571   18.4133 C   0  0  0  0  0  0  0  0  0  0  0  0
    8.3694    7.6612   22.6703 C   0  0  0  0  0  0  0  0  0  0  0  0
    8.4143    6.6863   16.2273 C   0  0  0  0  0  0  0  0  0  0  0  0
   10.7581    6.5674   21.7636 C   0  0  0  0  0  0  0  0  0  0  0  0
    8.4452    8.7960   19.2958 O   0  0  0  0  0  0  0  0  0  0  0  0
    8.7122    6.7842   24.8569 C   0  0  0  0  0  0  0  0  0  0  0  0
   10.3400    6.1726   14.3081 C   0  0  0  0  0  0  0  0  0  0  0  0
    7.4297    7.5873   24.8962 C   0  0  0  0  0  0  0  0  0  0  0  0
    8.1566   10.0536   16.0516 O   0  0  0  0  0  0  0  0  0  0  0  0
   12.4989    6.2074   20.1776 C   0  0  0  0  0  0  0  0  0  0  0  0
    6.9192    9.1053   20.9073 O   0  0  0  0  0  0  0  0  0  0  0  0
   14.3979    6.0729   18.7784 C   0  0  0  0  0  0  0  0  0  0  0  0
    8.6811    9.5354   16.9998 C   0  0  0  0  0  0  0  0  0  0  0  0
    9.2512    4.2713   13.7653 O   0  0  0  0  0  0  0  0  0  0  0  0
    9.6495    8.6317   16.8332 N   0  0  0  0  0  0  0  0  0  0  0  0
    6.2934    8.6988   23.1988 O   0  0  0  0  0  0  0  0  0  0  0  0
    7.9806    8.6543   20.5437 C   0  0  0  0  0  0  0  0  0  0  0  0
   13.7270    5.7144   19.8610 O   0  0  0  0  0  0  0  0  0  0  0  0
    8.3351    5.5235   15.4478 C   0  0  0  0  0  0  0  0  0  0  0  0
    8.7700    7.8434   21.3915 C   0  0  0  0  0  0  0  0  0  0  0  0
   11.7856    6.8851   19.2401 C   0  0  0  0  0  0  0  0  0  0  0  0
   10.5281    7.4276   19.5649 C   0  0  0  0  0  0  0  0  0  0  0  0
   10.0256    7.2907   20.8484 C   0  0  0  0  0  0  0  0  0  0  0  0
    9.3113    5.3049   14.4911 C   0  0  0  0  0  0  0  0  0  0  0  0
    9.4607    7.5646   16.0139 C   0  0  0  0  0  0  0  0  0  0  0  0
   10.4192    7.3157   15.0955 C   0  0  0  0  0  0  0  0  0  0  0  0
   10.2489    6.4227   23.0218 N   0  0  0  0  0  0  0  0  0  0  0  0
    7.2472    8.0746   23.5050 C   0  0  0  0  0  0  0  0  0  0  0  0
    9.2051    6.9101   23.4604 C   0  0  0  0  0  0  0  0  0  0  0  0
   11.9646    6.0299   21.4251 C   0  0  0  0  0  0  0  0  0  0  0  0
  1  5  1  0
  1 13  1  0
  2 20  2  0
  2 28  1  0
  2 29  1  0
  3 19  4  0
  3 25  4  0
  4 23  4  0
  4 27  1  0
  4 30  4  0
  5 17  1  0
  6  8  1  0
  6 29  1  0
  7 24  4  0
  7 26  4  0
  8 28  1  0
  9 13  2  0
 10 18  1  0
 10 21  4  0
 10 30  4  0
 11 17  2  0
 12 18  1  0
 13 15  1  0
 14 24  1  0
 15 25  1  0
 16 28  2  0
 17 20  1  0
 19 24  4  0
 20 23  1  0
 21 22  4  0
 22 23  4  0
 25 26  4  0
 27 29  2  0
M  END
$$$$

 Created by Python create_sdf_string function

 30 33  0  0  0  0  0  0  0  0999 V2000
    8.3036    9.8571   18.4133 C   0  0  0  0  0  0  0  0  0  0  0  0
    8.3694    7.6612   22.6703 C   0  0  0  0  0  0  0  0  0  0  0  0
    8.4143    6.6863   16.2273 C   0  0  0  0  0  0  0  0  0  0  0  0
   10.7581    6.5674   21.7636 C   0  0  0  0  0  0  0  0  0  0  0  0
    8.4452    8.7960   19.2958 O   0  0  0  0  0  0  0  0  0  0  0  0
    8.7122    6.7842   24.8569 C   0  0  0  0  0  0  0  0  0  0  0  0
   10.3400    6.1726   14.3081 C   0  0  0  0  0  0  0  0  0  0  0  0
    7.4297    7.5873   24.8962 C   0  0  0  0  0  0  0  0  0  0  0  0
    8.1566   10.0536   16.0516 O   0  0  0  0  0  0  0  0  0  0  0  0
   12.4989    6.2074   20.1776 C   0  0  0  0  0  0  0  0  0  0  0  0
    6.9192    9.1053   20.9073 O   0  0  0  0  0  0  0  0  0  0  0  0
   14.3979    6.0729   18.7784 C   0  0  0  0  0  0  0  0  0  0  0  0
    8.6811    9.5354   16.9998 C   0  0  0  0  0  0  0  0  0  0  0  0
    9.2512    4.2713   13.7653 O   0  0  0  0  0  0  0  0  0  0  0  0
    9.6495    8.6317   16.8332 N   0  0  0  0  0  0  0  0  0  0  0  0
    6.2934    8.6988   23.1988 O   0  0  0  0  0  0  0  0  0  0  0  0
    7.9806    8.6543   20.5437 C   0  0  0  0  0  0  0  0  0  0  0  0
   13.7270    5.7144   19.8610 O   0  0  0  0  0  0  0  0  0  0  0  0
    8.3351    5.5235   15.4478 C   0  0  0  0  0  0  0  0  0  0  0  0
    8.7700    7.8434   21.3915 C   0  0  0  0  0  0  0  0  0  0  0  0
   11.7856    6.8851   19.2401 C   0  0  0  0  0  0  0  0  0  0  0  0
   10.5281    7.4276   19.5649 C   0  0  0  0  0  0  0  0  0  0  0  0
   10.0256    7.2907   20.8484 C   0  0  0  0  0  0  0  0  0  0  0  0
    9.3113    5.3049   14.4911 C   0  0  0  0  0  0  0  0  0  0  0  0
    9.4607    7.5646   16.0139 C   0  0  0  0  0  0  0  0  0  0  0  0
   10.4192    7.3157   15.0955 C   0  0  0  0  0  0  0  0  0  0  0  0
   10.2489    6.4227   23.0218 N   0  0  0  0  0  0  0  0  0  0  0  0
    7.2472    8.0746   23.5050 C   0  0  0  0  0  0  0  0  0  0  0  0
    9.2051    6.9101   23.4604 C   0  0  0  0  0  0  0  0  0  0  0  0
   11.9646    6.0299   21.4251 C   0  0  0  0  0  0  0  0  0  0  0  0
  1  5  1  0
  1 13  1  0
  2 20  2  0
  2 28  1  0
  2 29  1  0
  3 19  4  0
  3 25  4  0
  4 23  4  0
  4 27  1  0
  4 30  4  0
  5 17  1  0
  6  8  1  0
  6 29  1  0
  7 24  4  0
  7 26  4  0
  8 28  1  0
  9 13  2  0
 10 18  1  0
 10 21  4  0
 10 30  4  0
 11 17  2  0
 12 18  1  0
 13 15  1  0
 14 24  1  0
 15 25  1  0
 16 28  2  0
 17 20  1  0
 19 24  4  0
 20 23  1  0
 21 22  4  0
 22 23  4  0
 25 26  4  0
 27 29  2  0
M  END
$$$$

 Created by Python create_sdf_string function

 30 33  0  0  0  0  0  0  0  0999 V2000
    8.3036    9.8571   18.4133 C   0  0  0  0  0  0  0  0  0  0  0  0
    8.3694    7.6612   22.6703 C   0  0  0  0  0  0  0  0  0  0  0  0
    8.4143    6.6863   16.2273 C   0  0  0  0  0  0  0  0  0  0  0  0
   10.7581    6.5674   21.7636 C   0  0  0  0  0  0  0  0  0  0  0  0
    8.4452    8.7960   19.2958 O   0  0  0  0  0  0  0  0  0  0  0  0
    8.7122    6.7842   24.8569 C   0  0  0  0  0  0  0  0  0  0  0  0
   10.3400    6.1726   14.3081 C   0  0  0  0  0  0  0  0  0  0  0  0
    7.4297    7.5873   24.8962 C   0  0  0  0  0  0  0  0  0  0  0  0
    8.1566   10.0536   16.0516 O   0  0  0  0  0  0  0  0  0  0  0  0
   12.4989    6.2074   20.1776 C   0  0  0  0  0  0  0  0  0  0  0  0
    6.9192    9.1053   20.9073 O   0  0  0  0  0  0  0  0  0  0  0  0
   14.3979    6.0729   18.7784 C   0  0  0  0  0  0  0  0  0  0  0  0
    8.6811    9.5354   16.9998 C   0  0  0  0  0  0  0  0  0  0  0  0
    9.2512    4.2713   13.7653 O   0  0  0  0  0  0  0  0  0  0  0  0
    9.6495    8.6317   16.8332 N   0  0  0  0  0  0  0  0  0  0  0  0
    6.2934    8.6988   23.1988 O   0  0  0  0  0  0  0  0  0  0  0  0
    7.9806    8.6543   20.5437 C   0  0  0  0  0  0  0  0  0  0  0  0
   13.7270    5.7144   19.8610 O   0  0  0  0  0  0  0  0  0  0  0  0
    8.3351    5.5235   15.4478 C   0  0  0  0  0  0  0  0  0  0  0  0
    8.7700    7.8434   21.3915 C   0  0  0  0  0  0  0  0  0  0  0  0
   11.7856    6.8851   19.2401 C   0  0  0  0  0  0  0  0  0  0  0  0
   10.5281    7.4276   19.5649 C   0  0  0  0  0  0  0  0  0  0  0  0
   10.0256    7.2907   20.8484 C   0  0  0  0  0  0  0  0  0  0  0  0
    9.3113    5.3049   14.4911 C   0  0  0  0  0  0  0  0  0  0  0  0
    9.4607    7.5646   16.0139 C   0  0  0  0  0  0  0  0  0  0  0  0
   10.4192    7.3157   15.0955 C   0  0  0  0  0  0  0  0  0  0  0  0
   10.2489    6.4227   23.0218 N   0  0  0  0  0  0  0  0  0  0  0  0
    7.2472    8.0746   23.5050 C   0  0  0  0  0  0  0  0  0  0  0  0
    9.2051    6.9101   23.4604 C   0  0  0  0  0  0  0  0  0  0  0  0
   11.9646    6.0299   21.4251 C   0  0  0  0  0  0  0  0  0  0  0  0
  1  5  1  0
  1 13  1  0
  2 20  2  0
  2 28  1  0
  2 29  1  0
  3 19  4  0
  3 25  4  0
  4 23  4  0
  4 27  1  0
  4 30  4  0
  5 17  1  0
  6  8  1  0
  6 29  1  0
  7 24  4  0
  7 26  4  0
  8 28  1  0
  9 13  2  0
 10 18  1  0
 10 21  4  0
 10 30  4  0
 11 17  2  0
 12 18  1  0
 13 15  1  0
 14 24  1  0
 15 25  1  0
 16 28  2  0
 17 20  1  0
 19 24  4  0
 20 23  1  0
 21 22  4  0
 22 23  4  0
 25 26  4  0
 27 29  2  0
M  END
$$$$

 Created by Python create_sdf_string function

 30 33  0  0  0  0  0  0  0  0999 V2000
    8.3036    9.8571   18.4133 C   0  0  0  0  0  0  0  0  0  0  0  0
    8.3694    7.6612   22.6703 C   0  0  0  0  0  0  0  0  0  0  0  0
    8.4143    6.6863   16.2273 C   0  0  0  0  0  0  0  0  0  0  0  0
   10.7581    6.5674   21.7636 C   0  0  0  0  0  0  0  0  0  0  0  0
    8.4452    8.7960   19.2958 O   0  0  0  0  0  0  0  0  0  0  0  0
    8.7122    6.7842   24.8569 C   0  0  0  0  0  0  0  0  0  0  0  0
   10.3400    6.1726   14.3081 C   0  0  0  0  0  0  0  0  0  0  0  0
    7.4297    7.5873   24.8962 C   0  0  0  0  0  0  0  0  0  0  0  0
    8.1566   10.0536   16.0516 O   0  0  0  0  0  0  0  0  0  0  0  0
   12.4989    6.2074   20.1776 C   0  0  0  0  0  0  0  0  0  0  0  0
    6.9192    9.1053   20.9073 O   0  0  0  0  0  0  0  0  0  0  0  0
   14.3979    6.0729   18.7784 C   0  0  0  0  0  0  0  0  0  0  0  0
    8.6811    9.5354   16.9998 C   0  0  0  0  0  0  0  0  0  0  0  0
    9.2512    4.2713   13.7653 O   0  0  0  0  0  0  0  0  0  0  0  0
    9.6495    8.6317   16.8332 N   0  0  0  0  0  0  0  0  0  0  0  0
    6.2934    8.6988   23.1988 O   0  0  0  0  0  0  0  0  0  0  0  0
    7.9806    8.6543   20.5437 C   0  0  0  0  0  0  0  0  0  0  0  0
   13.7270    5.7144   19.8610 O   0  0  0  0  0  0  0  0  0  0  0  0
    8.3351    5.5235   15.4478 C   0  0  0  0  0  0  0  0  0  0  0  0
    8.7700    7.8434   21.3915 C   0  0  0  0  0  0  0  0  0  0  0  0
   11.7856    6.8851   19.2401 C   0  0  0  0  0  0  0  0  0  0  0  0
   10.5281    7.4276   19.5649 C   0  0  0  0  0  0  0  0  0  0  0  0
   10.0256    7.2907   20.8484 C   0  0  0  0  0  0  0  0  0  0  0  0
    9.3113    5.3049   14.4911 C   0  0  0  0  0  0  0  0  0  0  0  0
    9.4607    7.5646   16.0139 C   0  0  0  0  0  0  0  0  0  0  0  0
   10.4192    7.3157   15.0955 C   0  0  0  0  0  0  0  0  0  0  0  0
   10.2489    6.4227   23.0218 N   0  0  0  0  0  0  0  0  0  0  0  0
    7.2472    8.0746   23.5050 C   0  0  0  0  0  0  0  0  0  0  0  0
    9.2051    6.9101   23.4604 C   0  0  0  0  0  0  0  0  0  0  0  0
   11.9646    6.0299   21.4251 C   0  0  0  0  0  0  0  0  0  0  0  0
  1  5  1  0
  1 13  1  0
  2 20  2  0
  2 28  1  0
  2 29  1  0
  3 19  4  0
  3 25  4  0
  4 23  4  0
  4 27  1  0
  4 30  4  0
  5 17  1  0
  6  8  1  0
  6 29  1  0
  7 24  4  0
  7 26  4  0
  8 28  1  0
  9 13  2  0
 10 18  1  0
 10 21  4  0
 10 30  4  0
 11 17  2  0
 12 18  1  0
 13 15  1  0
 14 24  1  0
 15 25  1  0
 16 28  2  0
 17 20  1  0
 19 24  4  0
 20 23  1  0
 21 22  4  0
 22 23  4  0
 25 26  4  0
 27 29  2  0
M  END
$$$$

 Created by Python create_sdf_string function

 30 33  0  0  0  0  0  0  0  0999 V2000
    8.3036    9.8571   18.4133 C   0  0  0  0  0  0  0  0  0  0  0  0
    8.3694    7.6612   22.6703 C   0  0  0  0  0  0  0  0  0  0  0  0
    8.4143    6.6863   16.2273 C   0  0  0  0  0  0  0  0  0  0  0  0
   10.7581    6.5674   21.7636 C   0  0  0  0  0  0  0  0  0  0  0  0
    8.4452    8.7960   19.2958 O   0  0  0  0  0  0  0  0  0  0  0  0
    8.7122    6.7842   24.8569 C   0  0  0  0  0  0  0  0  0  0  0  0
   10.3400    6.1726   14.3081 C   0  0  0  0  0  0  0  0  0  0  0  0
    7.4297    7.5873   24.8962 C   0  0  0  0  0  0  0  0  0  0  0  0
    8.1566   10.0536   16.0516 O   0  0  0  0  0  0  0  0  0  0  0  0
   12.4989    6.2074   20.1776 C   0  0  0  0  0  0  0  0  0  0  0  0
    6.9192    9.1053   20.9073 O   0  0  0  0  0  0  0  0  0  0  0  0
   14.3979    6.0729   18.7784 C   0  0  0  0  0  0  0  0  0  0  0  0
    8.6811    9.5354   16.9998 C   0  0  0  0  0  0  0  0  0  0  0  0
    9.2512    4.2713   13.7653 O   0  0  0  0  0  0  0  0  0  0  0  0
    9.6495    8.6317   16.8332 N   0  0  0  0  0  0  0  0  0  0  0  0
    6.2934    8.6988   23.1988 O   0  0  0  0  0  0  0  0  0  0  0  0
    7.9806    8.6543   20.5437 C   0  0  0  0  0  0  0  0  0  0  0  0
   13.7270    5.7144   19.8610 O   0  0  0  0  0  0  0  0  0  0  0  0
    8.3351    5.5235   15.4478 C   0  0  0  0  0  0  0  0  0  0  0  0
    8.7700    7.8434   21.3915 C   0  0  0  0  0  0  0  0  0  0  0  0
   11.7856    6.8851   19.2401 C   0  0  0  0  0  0  0  0  0  0  0  0
   10.5281    7.4276   19.5649 C   0  0  0  0  0  0  0  0  0  0  0  0
   10.0256    7.2907   20.8484 C   0  0  0  0  0  0  0  0  0  0  0  0
    9.3113    5.3049   14.4911 C   0  0  0  0  0  0  0  0  0  0  0  0
    9.4607    7.5646   16.0139 C   0  0  0  0  0  0  0  0  0  0  0  0
   10.4192    7.3157   15.0955 C   0  0  0  0  0  0  0  0  0  0  0  0
   10.2489    6.4227   23.0218 N   0  0  0  0  0  0  0  0  0  0  0  0
    7.2472    8.0746   23.5050 C   0  0  0  0  0  0  0  0  0  0  0  0
    9.2051    6.9101   23.4604 C   0  0  0  0  0  0  0  0  0  0  0  0
   11.9646    6.0299   21.4251 C   0  0  0  0  0  0  0  0  0  0  0  0
  1  5  1  0
  1 13  1  0
  2 20  2  0
  2 28  1  0
  2 29  1  0
  3 19  4  0
  3 25  4  0
  4 23  4  0
  4 27  1  0
  4 30  4  0
  5 17  1  0
  6  8  1  0
  6 29  1  0
  7 24  4  0
  7 26  4  0
  8 28  1  0
  9 13  2  0
 10 18  1  0
 10 21  4  0
 10 30  4  0
 11 17  2  0
 12 18  1  0
 13 15  1  0
 14 24  1  0
 15 25  1  0
 16 28  2  0
 17 20  1  0
 19 24  4  0
 20 23  1  0
 21 22  4  0
 22 23  4  0
 25 26  4  0
 27 29  2  0
M  END
$$$$

 Created by Python create_sdf_string function

 30 33  0  0  0  0  0  0  0  0999 V2000
    8.3036    9.8571   18.4133 C   0  0  0  0  0  0  0  0  0  0  0  0
    8.3694    7.6612   22.6703 C   0  0  0  0  0  0  0  0  0  0  0  0
    8.4143    6.6863   16.2273 C   0  0  0  0  0  0  0  0  0  0  0  0
   10.7581    6.5674   21.7636 C   0  0  0  0  0  0  0  0  0  0  0  0
    8.4452    8.7960   19.2958 O   0  0  0  0  0  0  0  0  0  0  0  0
    8.7122    6.7842   24.8569 C   0  0  0  0  0  0  0  0  0  0  0  0
   10.3400    6.1726   14.3081 C   0  0  0  0  0  0  0  0  0  0  0  0
    7.4297    7.5873   24.8962 C   0  0  0  0  0  0  0  0  0  0  0  0
    8.1566   10.0536   16.0516 O   0  0  0  0  0  0  0  0  0  0  0  0
   12.4989    6.2074   20.1776 C   0  0  0  0  0  0  0  0  0  0  0  0
    6.9192    9.1053   20.9073 O   0  0  0  0  0  0  0  0  0  0  0  0
   14.3979    6.0729   18.7784 C   0  0  0  0  0  0  0  0  0  0  0  0
    8.6811    9.5354   16.9998 C   0  0  0  0  0  0  0  0  0  0  0  0
    9.2512    4.2713   13.7653 O   0  0  0  0  0  0  0  0  0  0  0  0
    9.6495    8.6317   16.8332 N   0  0  0  0  0  0  0  0  0  0  0  0
    6.2934    8.6988   23.1988 O   0  0  0  0  0  0  0  0  0  0  0  0
    7.9806    8.6543   20.5437 C   0  0  0  0  0  0  0  0  0  0  0  0
   13.7270    5.7144   19.8610 O   0  0  0  0  0  0  0  0  0  0  0  0
    8.3351    5.5235   15.4478 C   0  0  0  0  0  0  0  0  0  0  0  0
    8.7700    7.8434   21.3915 C   0  0  0  0  0  0  0  0  0  0  0  0
   11.7856    6.8851   19.2401 C   0  0  0  0  0  0  0  0  0  0  0  0
   10.5281    7.4276   19.5649 C   0  0  0  0  0  0  0  0  0  0  0  0
   10.0256    7.2907   20.8484 C   0  0  0  0  0  0  0  0  0  0  0  0
    9.3113    5.3049   14.4911 C   0  0  0  0  0  0  0  0  0  0  0  0
    9.4607    7.5646   16.0139 C   0  0  0  0  0  0  0  0  0  0  0  0
   10.4192    7.3157   15.0955 C   0  0  0  0  0  0  0  0  0  0  0  0
   10.2489    6.4227   23.0218 N   0  0  0  0  0  0  0  0  0  0  0  0
    7.2472    8.0746   23.5050 C   0  0  0  0  0  0  0  0  0  0  0  0
    9.2051    6.9101   23.4604 C   0  0  0  0  0  0  0  0  0  0  0  0
   11.9646    6.0299   21.4251 C   0  0  0  0  0  0  0  0  0  0  0  0
  1  5  1  0
  1 13  1  0
  2 20  2  0
  2 28  1  0
  2 29  1  0
  3 19  4  0
  3 25  4  0
  4 23  4  0
  4 27  1  0
  4 30  4  0
  5 17  1  0
  6  8  1  0
  6 29  1  0
  7 24  4  0
  7 26  4  0
  8 28  1  0
  9 13  2  0
 10 18  1  0
 10 21  4  0
 10 30  4  0
 11 17  2  0
 12 18  1  0
 13 15  1  0
 14 24  1  0
 15 25  1  0
 16 28  2  0
 17 20  1  0
 19 24  4  0
 20 23  1  0
 21 22  4  0
 22 23  4  0
 25 26  4  0
 27 29  2  0
M  END
$$$$

 Created by Python create_sdf_string function

 30 33  0  0  0  0  0  0  0  0999 V2000
    8.3036    9.8571   18.4133 C   0  0  0  0  0  0  0  0  0  0  0  0
    8.3694    7.6612   22.6703 C   0  0  0  0  0  0  0  0  0  0  0  0
    8.4143    6.6863   16.2273 C   0  0  0  0  0  0  0  0  0  0  0  0
   10.7581    6.5674   21.7636 C   0  0  0  0  0  0  0  0  0  0  0  0
    8.4452    8.7960   19.2958 O   0  0  0  0  0  0  0  0  0  0  0  0
    8.7122    6.7842   24.8569 C   0  0  0  0  0  0  0  0  0  0  0  0
   10.3400    6.1726   14.3081 C   0  0  0  0  0  0  0  0  0  0  0  0
    7.4297    7.5873   24.8962 C   0  0  0  0  0  0  0  0  0  0  0  0
    8.1566   10.0536   16.0516 O   0  0  0  0  0  0  0  0  0  0  0  0
   12.4989    6.2074   20.1776 C   0  0  0  0  0  0  0  0  0  0  0  0
    6.9192    9.1053   20.9073 O   0  0  0  0  0  0  0  0  0  0  0  0
   14.3979    6.0729   18.7784 C   0  0  0  0  0  0  0  0  0  0  0  0
    8.6811    9.5354   16.9998 C   0  0  0  0  0  0  0  0  0  0  0  0
    9.2512    4.2713   13.7653 O   0  0  0  0  0  0  0  0  0  0  0  0
    9.6495    8.6317   16.8332 N   0  0  0  0  0  0  0  0  0  0  0  0
    6.2934    8.6988   23.1988 O   0  0  0  0  0  0  0  0  0  0  0  0
    7.9806    8.6543   20.5437 C   0  0  0  0  0  0  0  0  0  0  0  0
   13.7270    5.7144   19.8610 O   0  0  0  0  0  0  0  0  0  0  0  0
    8.3351    5.5235   15.4478 C   0  0  0  0  0  0  0  0  0  0  0  0
    8.7700    7.8434   21.3915 C   0  0  0  0  0  0  0  0  0  0  0  0
   11.7856    6.8851   19.2401 C   0  0  0  0  0  0  0  0  0  0  0  0
   10.5281    7.4276   19.5649 C   0  0  0  0  0  0  0  0  0  0  0  0
   10.0256    7.2907   20.8484 C   0  0  0  0  0  0  0  0  0  0  0  0
    9.3113    5.3049   14.4911 C   0  0  0  0  0  0  0  0  0  0  0  0
    9.4607    7.5646   16.0139 C   0  0  0  0  0  0  0  0  0  0  0  0
   10.4192    7.3157   15.0955 C   0  0  0  0  0  0  0  0  0  0  0  0
   10.2489    6.4227   23.0218 N   0  0  0  0  0  0  0  0  0  0  0  0
    7.2472    8.0746   23.5050 C   0  0  0  0  0  0  0  0  0  0  0  0
    9.2051    6.9101   23.4604 C   0  0  0  0  0  0  0  0  0  0  0  0
   11.9646    6.0299   21.4251 C   0  0  0  0  0  0  0  0  0  0  0  0
  1  5  1  0
  1 13  1  0
  2 20  2  0
  2 28  1  0
  2 29  1  0
  3 19  4  0
  3 25  4  0
  4 23  4  0
  4 27  1  0
  4 30  4  0
  5 17  1  0
  6  8  1  0
  6 29  1  0
  7 24  4  0
  7 26  4  0
  8 28  1  0
  9 13  2  0
 10 18  1  0
 10 21  4  0
 10 30  4  0
 11 17  2  0
 12 18  1  0
 13 15  1  0
 14 24  1  0
 15 25  1  0
 16 28  2  0
 17 20  1  0
 19 24  4  0
 20 23  1  0
 21 22  4  0
 22 23  4  0
 25 26  4  0
 27 29  2  0
M  END
$$$$

 Created by Python create_sdf_string function

 30 33  0  0  0  0  0  0  0  0999 V2000
    8.3036    9.8571   18.4133 C   0  0  0  0  0  0  0  0  0  0  0  0
    8.3694    7.6612   22.6703 C   0  0  0  0  0  0  0  0  0  0  0  0
    8.4143    6.6863   16.2273 C   0  0  0  0  0  0  0  0  0  0  0  0
   10.7581    6.5674   21.7636 C   0  0  0  0  0  0  0  0  0  0  0  0
    8.4452    8.7960   19.2958 O   0  0  0  0  0  0  0  0  0  0  0  0
    8.7122    6.7842   24.8569 C   0  0  0  0  0  0  0  0  0  0  0  0
   10.3400    6.1726   14.3081 C   0  0  0  0  0  0  0  0  0  0  0  0
    7.4297    7.5873   24.8962 C   0  0  0  0  0  0  0  0  0  0  0  0
    8.1566   10.0536   16.0516 O   0  0  0  0  0  0  0  0  0  0  0  0
   12.4989    6.2074   20.1776 C   0  0  0  0  0  0  0  0  0  0  0  0
    6.9192    9.1053   20.9073 O   0  0  0  0  0  0  0  0  0  0  0  0
   14.3979    6.0729   18.7784 C   0  0  0  0  0  0  0  0  0  0  0  0
    8.6811    9.5354   16.9998 C   0  0  0  0  0  0  0  0  0  0  0  0
    9.2512    4.2713   13.7653 O   0  0  0  0  0  0  0  0  0  0  0  0
    9.6495    8.6317   16.8332 N   0  0  0  0  0  0  0  0  0  0  0  0
    6.2934    8.6988   23.1988 O   0  0  0  0  0  0  0  0  0  0  0  0
    7.9806    8.6543   20.5437 C   0  0  0  0  0  0  0  0  0  0  0  0
   13.7270    5.7144   19.8610 O   0  0  0  0  0  0  0  0  0  0  0  0
    8.3351    5.5235   15.4478 C   0  0  0  0  0  0  0  0  0  0  0  0
    8.7700    7.8434   21.3915 C   0  0  0  0  0  0  0  0  0  0  0  0
   11.7856    6.8851   19.2401 C   0  0  0  0  0  0  0  0  0  0  0  0
   10.5281    7.4276   19.5649 C   0  0  0  0  0  0  0  0  0  0  0  0
   10.0256    7.2907   20.8484 C   0  0  0  0  0  0  0  0  0  0  0  0
    9.3113    5.3049   14.4911 C   0  0  0  0  0  0  0  0  0  0  0  0
    9.4607    7.5646   16.0139 C   0  0  0  0  0  0  0  0  0  0  0  0
   10.4192    7.3157   15.0955 C   0  0  0  0  0  0  0  0  0  0  0  0
   10.2489    6.4227   23.0218 N   0  0  0  0  0  0  0  0  0  0  0  0
    7.2472    8.0746   23.5050 C   0  0  0  0  0  0  0  0  0  0  0  0
    9.2051    6.9101   23.4604 C   0  0  0  0  0  0  0  0  0  0  0  0
   11.9646    6.0299   21.4251 C   0  0  0  0  0  0  0  0  0  0  0  0
  1  5  1  0
  1 13  1  0
  2 20  2  0
  2 28  1  0
  2 29  1  0
  3 19  4  0
  3 25  4  0
  4 23  4  0
  4 27  1  0
  4 30  4  0
  5 17  1  0
  6  8  1  0
  6 29  1  0
  7 24  4  0
  7 26  4  0
  8 28  1  0
  9 13  2  0
 10 18  1  0
 10 21  4  0
 10 30  4  0
 11 17  2  0
 12 18  1  0
 13 15  1  0
 14 24  1  0
 15 25  1  0
 16 28  2  0
 17 20  1  0
 19 24  4  0
 20 23  1  0
 21 22  4  0
 22 23  4  0
 25 26  4  0
 27 29  2  0
M  END
$$$$

 Created by Python create_sdf_string function

 30 33  0  0  0  0  0  0  0  0999 V2000
    8.3036    9.8571   18.4133 C   0  0  0  0  0  0  0  0  0  0  0  0
    8.3694    7.6612   22.6703 C   0  0  0  0  0  0  0  0  0  0  0  0
    8.4143    6.6863   16.2273 C   0  0  0  0  0  0  0  0  0  0  0  0
   10.7581    6.5674   21.7636 C   0  0  0  0  0  0  0  0  0  0  0  0
    8.4452    8.7960   19.2958 O   0  0  0  0  0  0  0  0  0  0  0  0
    8.7122    6.7842   24.8569 C   0  0  0  0  0  0  0  0  0  0  0  0
   10.3400    6.1726   14.3081 C   0  0  0  0  0  0  0  0  0  0  0  0
    7.4297    7.5873   24.8962 C   0  0  0  0  0  0  0  0  0  0  0  0
    8.1566   10.0536   16.0516 O   0  0  0  0  0  0  0  0  0  0  0  0
   12.4989    6.2074   20.1776 C   0  0  0  0  0  0  0  0  0  0  0  0
    6.9192    9.1053   20.9073 O   0  0  0  0  0  0  0  0  0  0  0  0
   14.3979    6.0729   18.7784 C   0  0  0  0  0  0  0  0  0  0  0  0
    8.6811    9.5354   16.9998 C   0  0  0  0  0  0  0  0  0  0  0  0
    9.2512    4.2713   13.7653 O   0  0  0  0  0  0  0  0  0  0  0  0
    9.6495    8.6317   16.8332 N   0  0  0  0  0  0  0  0  0  0  0  0
    6.2934    8.6988   23.1988 O   0  0  0  0  0  0  0  0  0  0  0  0
    7.9806    8.6543   20.5437 C   0  0  0  0  0  0  0  0  0  0  0  0
   13.7270    5.7144   19.8610 O   0  0  0  0  0  0  0  0  0  0  0  0
    8.3351    5.5235   15.4478 C   0  0  0  0  0  0  0  0  0  0  0  0
    8.7700    7.8434   21.3915 C   0  0  0  0  0  0  0  0  0  0  0  0
   11.7856    6.8851   19.2401 C   0  0  0  0  0  0  0  0  0  0  0  0
   10.5281    7.4276   19.5649 C   0  0  0  0  0  0  0  0  0  0  0  0
   10.0256    7.2907   20.8484 C   0  0  0  0  0  0  0  0  0  0  0  0
    9.3113    5.3049   14.4911 C   0  0  0  0  0  0  0  0  0  0  0  0
    9.4607    7.5646   16.0139 C   0  0  0  0  0  0  0  0  0  0  0  0
   10.4192    7.3157   15.0955 C   0  0  0  0  0  0  0  0  0  0  0  0
   10.2489    6.4227   23.0218 N   0  0  0  0  0  0  0  0  0  0  0  0
    7.2472    8.0746   23.5050 C   0  0  0  0  0  0  0  0  0  0  0  0
    9.2051    6.9101   23.4604 C   0  0  0  0  0  0  0  0  0  0  0  0
   11.9646    6.0299   21.4251 C   0  0  0  0  0  0  0  0  0  0  0  0
  1  5  1  0
  1 13  1  0
  2 20  2  0
  2 28  1  0
  2 29  1  0
  3 19  4  0
  3 25  4  0
  4 23  4  0
  4 27  1  0
  4 30  4  0
  5 17  1  0
  6  8  1  0
  6 29  1  0
  7 24  4  0
  7 26  4  0
  8 28  1  0
  9 13  2  0
 10 18  1  0
 10 21  4  0
 10 30  4  0
 11 17  2  0
 12 18  1  0
 13 15  1  0
 14 24  1  0
 15 25  1  0
 16 28  2  0
 17 20  1  0
 19 24  4  0
 20 23  1  0
 21 22  4  0
 22 23  4  0
 25 26  4  0
 27 29  2  0
M  END
$$$$

 Created by Python create_sdf_string function

 30 33  0  0  0  0  0  0  0  0999 V2000
    8.3036    9.8571   18.4133 C   0  0  0  0  0  0  0  0  0  0  0  0
    8.3694    7.6612   22.6703 C   0  0  0  0  0  0  0  0  0  0  0  0
    8.4143    6.6863   16.2273 C   0  0  0  0  0  0  0  0  0  0  0  0
   10.7581    6.5674   21.7636 C   0  0  0  0  0  0  0  0  0  0  0  0
    8.4452    8.7960   19.2958 O   0  0  0  0  0  0  0  0  0  0  0  0
    8.7122    6.7842   24.8569 C   0  0  0  0  0  0  0  0  0  0  0  0
   10.3400    6.1726   14.3081 C   0  0  0  0  0  0  0  0  0  0  0  0
    7.4297    7.5873   24.8962 C   0  0  0  0  0  0  0  0  0  0  0  0
    8.1566   10.0536   16.0516 O   0  0  0  0  0  0  0  0  0  0  0  0
   12.4989    6.2074   20.1776 C   0  0  0  0  0  0  0  0  0  0  0  0
    6.9192    9.1053   20.9073 O   0  0  0  0  0  0  0  0  0  0  0  0
   14.3979    6.0729   18.7784 C   0  0  0  0  0  0  0  0  0  0  0  0
    8.6811    9.5354   16.9998 C   0  0  0  0  0  0  0  0  0  0  0  0
    9.2512    4.2713   13.7653 O   0  0  0  0  0  0  0  0  0  0  0  0
    9.6495    8.6317   16.8332 N   0  0  0  0  0  0  0  0  0  0  0  0
    6.2934    8.6988   23.1988 O   0  0  0  0  0  0  0  0  0  0  0  0
    7.9806    8.6543   20.5437 C   0  0  0  0  0  0  0  0  0  0  0  0
   13.7270    5.7144   19.8610 O   0  0  0  0  0  0  0  0  0  0  0  0
    8.3351    5.5235   15.4478 C   0  0  0  0  0  0  0  0  0  0  0  0
    8.7700    7.8434   21.3915 C   0  0  0  0  0  0  0  0  0  0  0  0
   11.7856    6.8851   19.2401 C   0  0  0  0  0  0  0  0  0  0  0  0
   10.5281    7.4276   19.5649 C   0  0  0  0  0  0  0  0  0  0  0  0
   10.0256    7.2907   20.8484 C   0  0  0  0  0  0  0  0  0  0  0  0
    9.3113    5.3049   14.4911 C   0  0  0  0  0  0  0  0  0  0  0  0
    9.4607    7.5646   16.0139 C   0  0  0  0  0  0  0  0  0  0  0  0
   10.4192    7.3157   15.0955 C   0  0  0  0  0  0  0  0  0  0  0  0
   10.2489    6.4227   23.0218 N   0  0  0  0  0  0  0  0  0  0  0  0
    7.2472    8.0746   23.5050 C   0  0  0  0  0  0  0  0  0  0  0  0
    9.2051    6.9101   23.4604 C   0  0  0  0  0  0  0  0  0  0  0  0
   11.9646    6.0299   21.4251 C   0  0  0  0  0  0  0  0  0  0  0  0
  1  5  1  0
  1 13  1  0
  2 20  2  0
  2 28  1  0
  2 29  1  0
  3 19  4  0
  3 25  4  0
  4 23  4  0
  4 27  1  0
  4 30  4  0
  5 17  1  0
  6  8  1  0
  6 29  1  0
  7 24  4  0
  7 26  4  0
  8 28  1  0
  9 13  2  0
 10 18  1  0
 10 21  4  0
 10 30  4  0
 11 17  2  0
 12 18  1  0
 13 15  1  0
 14 24  1  0
 15 25  1  0
 16 28  2  0
 17 20  1  0
 19 24  4  0
 20 23  1  0
 21 22  4  0
 22 23  4  0
 25 26  4  0
 27 29  2  0
M  END
$$$$

 Created by Python create_sdf_string function

 30 33  0  0  0  0  0  0  0  0999 V2000
    8.3036    9.8571   18.4133 C   0  0  0  0  0  0  0  0  0  0  0  0
    8.3694    7.6612   22.6703 C   0  0  0  0  0  0  0  0  0  0  0  0
    8.4143    6.6863   16.2273 C   0  0  0  0  0  0  0  0  0  0  0  0
   10.7581    6.5674   21.7636 C   0  0  0  0  0  0  0  0  0  0  0  0
    8.4452    8.7960   19.2958 O   0  0  0  0  0  0  0  0  0  0  0  0
    8.7122    6.7842   24.8569 C   0  0  0  0  0  0  0  0  0  0  0  0
   10.3400    6.1726   14.3081 C   0  0  0  0  0  0  0  0  0  0  0  0
    7.4297    7.5873   24.8962 C   0  0  0  0  0  0  0  0  0  0  0  0
    8.1566   10.0536   16.0516 O   0  0  0  0  0  0  0  0  0  0  0  0
   12.4989    6.2074   20.1776 C   0  0  0  0  0  0  0  0  0  0  0  0
    6.9192    9.1053   20.9073 O   0  0  0  0  0  0  0  0  0  0  0  0
   14.3979    6.0729   18.7784 C   0  0  0  0  0  0  0  0  0  0  0  0
    8.6811    9.5354   16.9998 C   0  0  0  0  0  0  0  0  0  0  0  0
    9.2512    4.2713   13.7653 O   0  0  0  0  0  0  0  0  0  0  0  0
    9.6495    8.6317   16.8332 N   0  0  0  0  0  0  0  0  0  0  0  0
    6.2934    8.6988   23.1988 O   0  0  0  0  0  0  0  0  0  0  0  0
    7.9806    8.6543   20.5437 C   0  0  0  0  0  0  0  0  0  0  0  0
   13.7270    5.7144   19.8610 O   0  0  0  0  0  0  0  0  0  0  0  0
    8.3351    5.5235   15.4478 C   0  0  0  0  0  0  0  0  0  0  0  0
    8.7700    7.8434   21.3915 C   0  0  0  0  0  0  0  0  0  0  0  0
   11.7856    6.8851   19.2401 C   0  0  0  0  0  0  0  0  0  0  0  0
   10.5281    7.4276   19.5649 C   0  0  0  0  0  0  0  0  0  0  0  0
   10.0256    7.2907   20.8484 C   0  0  0  0  0  0  0  0  0  0  0  0
    9.3113    5.3049   14.4911 C   0  0  0  0  0  0  0  0  0  0  0  0
    9.4607    7.5646   16.0139 C   0  0  0  0  0  0  0  0  0  0  0  0
   10.4192    7.3157   15.0955 C   0  0  0  0  0  0  0  0  0  0  0  0
   10.2489    6.4227   23.0218 N   0  0  0  0  0  0  0  0  0  0  0  0
    7.2472    8.0746   23.5050 C   0  0  0  0  0  0  0  0  0  0  0  0
    9.2051    6.9101   23.4604 C   0  0  0  0  0  0  0  0  0  0  0  0
   11.9646    6.0299   21.4251 C   0  0  0  0  0  0  0  0  0  0  0  0
  1  5  1  0
  1 13  1  0
  2 20  2  0
  2 28  1  0
  2 29  1  0
  3 19  4  0
  3 25  4  0
  4 23  4  0
  4 27  1  0
  4 30  4  0
  5 17  1  0
  6  8  1  0
  6 29  1  0
  7 24  4  0
  7 26  4  0
  8 28  1  0
  9 13  2  0
 10 18  1  0
 10 21  4  0
 10 30  4  0
 11 17  2  0
 12 18  1  0
 13 15  1  0
 14 24  1  0
 15 25  1  0
 16 28  2  0
 17 20  1  0
 19 24  4  0
 20 23  1  0
 21 22  4  0
 22 23  4  0
 25 26  4  0
 27 29  2  0
M  END
$$$$

 Created by Python create_sdf_string function

 30 33  0  0  0  0  0  0  0  0999 V2000
    8.3036    9.8571   18.4133 C   0  0  0  0  0  0  0  0  0  0  0  0
    8.3694    7.6612   22.6703 C   0  0  0  0  0  0  0  0  0  0  0  0
    8.4143    6.6863   16.2273 C   0  0  0  0  0  0  0  0  0  0  0  0
   10.7581    6.5674   21.7636 C   0  0  0  0  0  0  0  0  0  0  0  0
    8.4452    8.7960   19.2958 O   0  0  0  0  0  0  0  0  0  0  0  0
    8.7122    6.7842   24.8569 C   0  0  0  0  0  0  0  0  0  0  0  0
   10.3400    6.1726   14.3081 C   0  0  0  0  0  0  0  0  0  0  0  0
    7.4297    7.5873   24.8962 C   0  0  0  0  0  0  0  0  0  0  0  0
    8.1566   10.0536   16.0516 O   0  0  0  0  0  0  0  0  0  0  0  0
   12.4989    6.2074   20.1776 C   0  0  0  0  0  0  0  0  0  0  0  0
    6.9192    9.1053   20.9073 O   0  0  0  0  0  0  0  0  0  0  0  0
   14.3979    6.0729   18.7784 C   0  0  0  0  0  0  0  0  0  0  0  0
    8.6811    9.5354   16.9998 C   0  0  0  0  0  0  0  0  0  0  0  0
    9.2512    4.2713   13.7653 O   0  0  0  0  0  0  0  0  0  0  0  0
    9.6495    8.6317   16.8332 N   0  0  0  0  0  0  0  0  0  0  0  0
    6.2934    8.6988   23.1988 O   0  0  0  0  0  0  0  0  0  0  0  0
    7.9806    8.6543   20.5437 C   0  0  0  0  0  0  0  0  0  0  0  0
   13.7270    5.7144   19.8610 O   0  0  0  0  0  0  0  0  0  0  0  0
    8.3351    5.5235   15.4478 C   0  0  0  0  0  0  0  0  0  0  0  0
    8.7700    7.8434   21.3915 C   0  0  0  0  0  0  0  0  0  0  0  0
   11.7856    6.8851   19.2401 C   0  0  0  0  0  0  0  0  0  0  0  0
   10.5281    7.4276   19.5649 C   0  0  0  0  0  0  0  0  0  0  0  0
   10.0256    7.2907   20.8484 C   0  0  0  0  0  0  0  0  0  0  0  0
    9.3113    5.3049   14.4911 C   0  0  0  0  0  0  0  0  0  0  0  0
    9.4607    7.5646   16.0139 C   0  0  0  0  0  0  0  0  0  0  0  0
   10.4192    7.3157   15.0955 C   0  0  0  0  0  0  0  0  0  0  0  0
   10.2489    6.4227   23.0218 N   0  0  0  0  0  0  0  0  0  0  0  0
    7.2472    8.0746   23.5050 C   0  0  0  0  0  0  0  0  0  0  0  0
    9.2051    6.9101   23.4604 C   0  0  0  0  0  0  0  0  0  0  0  0
   11.9646    6.0299   21.4251 C   0  0  0  0  0  0  0  0  0  0  0  0
  1  5  1  0
  1 13  1  0
  2 20  2  0
  2 28  1  0
  2 29  1  0
  3 19  4  0
  3 25  4  0
  4 23  4  0
  4 27  1  0
  4 30  4  0
  5 17  1  0
  6  8  1  0
  6 29  1  0
  7 24  4  0
  7 26  4  0
  8 28  1  0
  9 13  2  0
 10 18  1  0
 10 21  4  0
 10 30  4  0
 11 17  2  0
 12 18  1  0
 13 15  1  0
 14 24  1  0
 15 25  1  0
 16 28  2  0
 17 20  1  0
 19 24  4  0
 20 23  1  0
 21 22  4  0
 22 23  4  0
 25 26  4  0
 27 29  2  0
M  END
$$$$

 Created by Python create_sdf_string function

 30 33  0  0  0  0  0  0  0  0999 V2000
    8.3036    9.8571   18.4133 C   0  0  0  0  0  0  0  0  0  0  0  0
    8.3694    7.6612   22.6703 C   0  0  0  0  0  0  0  0  0  0  0  0
    8.4143    6.6863   16.2273 C   0  0  0  0  0  0  0  0  0  0  0  0
   10.7581    6.5674   21.7636 C   0  0  0  0  0  0  0  0  0  0  0  0
    8.4452    8.7960   19.2958 O   0  0  0  0  0  0  0  0  0  0  0  0
    8.7122    6.7842   24.8569 C   0  0  0  0  0  0  0  0  0  0  0  0
   10.3400    6.1726   14.3081 C   0  0  0  0  0  0  0  0  0  0  0  0
    7.4297    7.5873   24.8962 C   0  0  0  0  0  0  0  0  0  0  0  0
    8.1566   10.0536   16.0516 O   0  0  0  0  0  0  0  0  0  0  0  0
   12.4989    6.2074   20.1776 C   0  0  0  0  0  0  0  0  0  0  0  0
    6.9192    9.1053   20.9073 O   0  0  0  0  0  0  0  0  0  0  0  0
   14.3979    6.0729   18.7784 C   0  0  0  0  0  0  0  0  0  0  0  0
    8.6811    9.5354   16.9998 C   0  0  0  0  0  0  0  0  0  0  0  0
    9.2512    4.2713   13.7653 O   0  0  0  0  0  0  0  0  0  0  0  0
    9.6495    8.6317   16.8332 N   0  0  0  0  0  0  0  0  0  0  0  0
    6.2934    8.6988   23.1988 O   0  0  0  0  0  0  0  0  0  0  0  0
    7.9806    8.6543   20.5437 C   0  0  0  0  0  0  0  0  0  0  0  0
   13.7270    5.7144   19.8610 O   0  0  0  0  0  0  0  0  0  0  0  0
    8.3351    5.5235   15.4478 C   0  0  0  0  0  0  0  0  0  0  0  0
    8.7700    7.8434   21.3915 C   0  0  0  0  0  0  0  0  0  0  0  0
   11.7856    6.8851   19.2401 C   0  0  0  0  0  0  0  0  0  0  0  0
   10.5281    7.4276   19.5649 C   0  0  0  0  0  0  0  0  0  0  0  0
   10.0256    7.2907   20.8484 C   0  0  0  0  0  0  0  0  0  0  0  0
    9.3113    5.3049   14.4911 C   0  0  0  0  0  0  0  0  0  0  0  0
    9.4607    7.5646   16.0139 C   0  0  0  0  0  0  0  0  0  0  0  0
   10.4192    7.3157   15.0955 C   0  0  0  0  0  0  0  0  0  0  0  0
   10.2489    6.4227   23.0218 N   0  0  0  0  0  0  0  0  0  0  0  0
    7.2472    8.0746   23.5050 C   0  0  0  0  0  0  0  0  0  0  0  0
    9.2051    6.9101   23.4604 C   0  0  0  0  0  0  0  0  0  0  0  0
   11.9646    6.0299   21.4251 C   0  0  0  0  0  0  0  0  0  0  0  0
  1  5  1  0
  1 13  1  0
  2 20  2  0
  2 28  1  0
  2 29  1  0
  3 19  4  0
  3 25  4  0
  4 23  4  0
  4 27  1  0
  4 30  4  0
  5 17  1  0
  6  8  1  0
  6 29  1  0
  7 24  4  0
  7 26  4  0
  8 28  1  0
  9 13  2  0
 10 18  1  0
 10 21  4  0
 10 30  4  0
 11 17  2  0
 12 18  1  0
 13 15  1  0
 14 24  1  0
 15 25  1  0
 16 28  2  0
 17 20  1  0
 19 24  4  0
 20 23  1  0
 21 22  4  0
 22 23  4  0
 25 26  4  0
 27 29  2  0
M  END
$$$$

 Created by Python create_sdf_string function

 30 33  0  0  0  0  0  0  0  0999 V2000
    8.3036    9.8571   18.4133 C   0  0  0  0  0  0  0  0  0  0  0  0
    8.3694    7.6612   22.6703 C   0  0  0  0  0  0  0  0  0  0  0  0
    8.4143    6.6863   16.2273 C   0  0  0  0  0  0  0  0  0  0  0  0
   10.7581    6.5674   21.7636 C   0  0  0  0  0  0  0  0  0  0  0  0
    8.4452    8.7960   19.2958 O   0  0  0  0  0  0  0  0  0  0  0  0
    8.7122    6.7842   24.8569 C   0  0  0  0  0  0  0  0  0  0  0  0
   10.3400    6.1726   14.3081 C   0  0  0  0  0  0  0  0  0  0  0  0
    7.4297    7.5873   24.8962 C   0  0  0  0  0  0  0  0  0  0  0  0
    8.1566   10.0536   16.0516 O   0  0  0  0  0  0  0  0  0  0  0  0
   12.4989    6.2074   20.1776 C   0  0  0  0  0  0  0  0  0  0  0  0
    6.9192    9.1053   20.9073 O   0  0  0  0  0  0  0  0  0  0  0  0
   14.3979    6.0729   18.7784 C   0  0  0  0  0  0  0  0  0  0  0  0
    8.6811    9.5354   16.9998 C   0  0  0  0  0  0  0  0  0  0  0  0
    9.2512    4.2713   13.7653 O   0  0  0  0  0  0  0  0  0  0  0  0
    9.6495    8.6317   16.8332 N   0  0  0  0  0  0  0  0  0  0  0  0
    6.2934    8.6988   23.1988 O   0  0  0  0  0  0  0  0  0  0  0  0
    7.9806    8.6543   20.5437 C   0  0  0  0  0  0  0  0  0  0  0  0
   13.7270    5.7144   19.8610 O   0  0  0  0  0  0  0  0  0  0  0  0
    8.3351    5.5235   15.4478 C   0  0  0  0  0  0  0  0  0  0  0  0
    8.7700    7.8434   21.3915 C   0  0  0  0  0  0  0  0  0  0  0  0
   11.7856    6.8851   19.2401 C   0  0  0  0  0  0  0  0  0  0  0  0
   10.5281    7.4276   19.5649 C   0  0  0  0  0  0  0  0  0  0  0  0
   10.0256    7.2907   20.8484 C   0  0  0  0  0  0  0  0  0  0  0  0
    9.3113    5.3049   14.4911 C   0  0  0  0  0  0  0  0  0  0  0  0
    9.4607    7.5646   16.0139 C   0  0  0  0  0  0  0  0  0  0  0  0
   10.4192    7.3157   15.0955 C   0  0  0  0  0  0  0  0  0  0  0  0
   10.2489    6.4227   23.0218 N   0  0  0  0  0  0  0  0  0  0  0  0
    7.2472    8.0746   23.5050 C   0  0  0  0  0  0  0  0  0  0  0  0
    9.2051    6.9101   23.4604 C   0  0  0  0  0  0  0  0  0  0  0  0
   11.9646    6.0299   21.4251 C   0  0  0  0  0  0  0  0  0  0  0  0
  1  5  1  0
  1 13  1  0
  2 20  2  0
  2 28  1  0
  2 29  1  0
  3 19  4  0
  3 25  4  0
  4 23  4  0
  4 27  1  0
  4 30  4  0
  5 17  1  0
  6  8  1  0
  6 29  1  0
  7 24  4  0
  7 26  4  0
  8 28  1  0
  9 13  2  0
 10 18  1  0
 10 21  4  0
 10 30  4  0
 11 17  2  0
 12 18  1  0
 13 15  1  0
 14 24  1  0
 15 25  1  0
 16 28  2  0
 17 20  1  0
 19 24  4  0
 20 23  1  0
 21 22  4  0
 22 23  4  0
 25 26  4  0
 27 29  2  0
M  END
$$$$

 Created by Python create_sdf_string function

 30 33  0  0  0  0  0  0  0  0999 V2000
    8.3036    9.8571   18.4133 C   0  0  0  0  0  0  0  0  0  0  0  0
    8.3694    7.6612   22.6703 C   0  0  0  0  0  0  0  0  0  0  0  0
    8.4143    6.6863   16.2273 C   0  0  0  0  0  0  0  0  0  0  0  0
   10.7581    6.5674   21.7636 C   0  0  0  0  0  0  0  0  0  0  0  0
    8.4452    8.7960   19.2958 O   0  0  0  0  0  0  0  0  0  0  0  0
    8.7122    6.7842   24.8569 C   0  0  0  0  0  0  0  0  0  0  0  0
   10.3400    6.1726   14.3081 C   0  0  0  0  0  0  0  0  0  0  0  0
    7.4297    7.5873   24.8962 C   0  0  0  0  0  0  0  0  0  0  0  0
    8.1566   10.0536   16.0516 O   0  0  0  0  0  0  0  0  0  0  0  0
   12.4989    6.2074   20.1776 C   0  0  0  0  0  0  0  0  0  0  0  0
    6.9192    9.1053   20.9073 O   0  0  0  0  0  0  0  0  0  0  0  0
   14.3979    6.0729   18.7784 C   0  0  0  0  0  0  0  0  0  0  0  0
    8.6811    9.5354   16.9998 C   0  0  0  0  0  0  0  0  0  0  0  0
    9.2512    4.2713   13.7653 O   0  0  0  0  0  0  0  0  0  0  0  0
    9.6495    8.6317   16.8332 N   0  0  0  0  0  0  0  0  0  0  0  0
    6.2934    8.6988   23.1988 O   0  0  0  0  0  0  0  0  0  0  0  0
    7.9806    8.6543   20.5437 C   0  0  0  0  0  0  0  0  0  0  0  0
   13.7270    5.7144   19.8610 O   0  0  0  0  0  0  0  0  0  0  0  0
    8.3351    5.5235   15.4478 C   0  0  0  0  0  0  0  0  0  0  0  0
    8.7700    7.8434   21.3915 C   0  0  0  0  0  0  0  0  0  0  0  0
   11.7856    6.8851   19.2401 C   0  0  0  0  0  0  0  0  0  0  0  0
   10.5281    7.4276   19.5649 C   0  0  0  0  0  0  0  0  0  0  0  0
   10.0256    7.2907   20.8484 C   0  0  0  0  0  0  0  0  0  0  0  0
    9.3113    5.3049   14.4911 C   0  0  0  0  0  0  0  0  0  0  0  0
    9.4607    7.5646   16.0139 C   0  0  0  0  0  0  0  0  0  0  0  0
   10.4192    7.3157   15.0955 C   0  0  0  0  0  0  0  0  0  0  0  0
   10.2489    6.4227   23.0218 N   0  0  0  0  0  0  0  0  0  0  0  0
    7.2472    8.0746   23.5050 C   0  0  0  0  0  0  0  0  0  0  0  0
    9.2051    6.9101   23.4604 C   0  0  0  0  0  0  0  0  0  0  0  0
   11.9646    6.0299   21.4251 C   0  0  0  0  0  0  0  0  0  0  0  0
  1  5  1  0
  1 13  1  0
  2 20  2  0
  2 28  1  0
  2 29  1  0
  3 19  4  0
  3 25  4  0
  4 23  4  0
  4 27  1  0
  4 30  4  0
  5 17  1  0
  6  8  1  0
  6 29  1  0
  7 24  4  0
  7 26  4  0
  8 28  1  0
  9 13  2  0
 10 18  1  0
 10 21  4  0
 10 30  4  0
 11 17  2  0
 12 18  1  0
 13 15  1  0
 14 24  1  0
 15 25  1  0
 16 28  2  0
 17 20  1  0
 19 24  4  0
 20 23  1  0
 21 22  4  0
 22 23  4  0
 25 26  4  0
 27 29  2  0
M  END
$$$$

 Created by Python create_sdf_string function

 30 33  0  0  0  0  0  0  0  0999 V2000
    8.3036    9.8571   18.4133 C   0  0  0  0  0  0  0  0  0  0  0  0
    8.3694    7.6612   22.6703 C   0  0  0  0  0  0  0  0  0  0  0  0
    8.4143    6.6863   16.2273 C   0  0  0  0  0  0  0  0  0  0  0  0
   10.7581    6.5674   21.7636 C   0  0  0  0  0  0  0  0  0  0  0  0
    8.4452    8.7960   19.2958 O   0  0  0  0  0  0  0  0  0  0  0  0
    8.7122    6.7842   24.8569 C   0  0  0  0  0  0  0  0  0  0  0  0
   10.3400    6.1726   14.3081 C   0  0  0  0  0  0  0  0  0  0  0  0
    7.4297    7.5873   24.8962 C   0  0  0  0  0  0  0  0  0  0  0  0
    8.1566   10.0536   16.0516 O   0  0  0  0  0  0  0  0  0  0  0  0
   12.4989    6.2074   20.1776 C   0  0  0  0  0  0  0  0  0  0  0  0
    6.9192    9.1053   20.9073 O   0  0  0  0  0  0  0  0  0  0  0  0
   14.3979    6.0729   18.7784 C   0  0  0  0  0  0  0  0  0  0  0  0
    8.6811    9.5354   16.9998 C   0  0  0  0  0  0  0  0  0  0  0  0
    9.2512    4.2713   13.7653 O   0  0  0  0  0  0  0  0  0  0  0  0
    9.6495    8.6317   16.8332 N   0  0  0  0  0  0  0  0  0  0  0  0
    6.2934    8.6988   23.1988 O   0  0  0  0  0  0  0  0  0  0  0  0
    7.9806    8.6543   20.5437 C   0  0  0  0  0  0  0  0  0  0  0  0
   13.7270    5.7144   19.8610 O   0  0  0  0  0  0  0  0  0  0  0  0
    8.3351    5.5235   15.4478 C   0  0  0  0  0  0  0  0  0  0  0  0
    8.7700    7.8434   21.3915 C   0  0  0  0  0  0  0  0  0  0  0  0
   11.7856    6.8851   19.2401 C   0  0  0  0  0  0  0  0  0  0  0  0
   10.5281    7.4276   19.5649 C   0  0  0  0  0  0  0  0  0  0  0  0
   10.0256    7.2907   20.8484 C   0  0  0  0  0  0  0  0  0  0  0  0
    9.3113    5.3049   14.4911 C   0  0  0  0  0  0  0  0  0  0  0  0
    9.4607    7.5646   16.0139 C   0  0  0  0  0  0  0  0  0  0  0  0
   10.4192    7.3157   15.0955 C   0  0  0  0  0  0  0  0  0  0  0  0
   10.2489    6.4227   23.0218 N   0  0  0  0  0  0  0  0  0  0  0  0
    7.2472    8.0746   23.5050 C   0  0  0  0  0  0  0  0  0  0  0  0
    9.2051    6.9101   23.4604 C   0  0  0  0  0  0  0  0  0  0  0  0
   11.9646    6.0299   21.4251 C   0  0  0  0  0  0  0  0  0  0  0  0
  1  5  1  0
  1 13  1  0
  2 20  2  0
  2 28  1  0
  2 29  1  0
  3 19  4  0
  3 25  4  0
  4 23  4  0
  4 27  1  0
  4 30  4  0
  5 17  1  0
  6  8  1  0
  6 29  1  0
  7 24  4  0
  7 26  4  0
  8 28  1  0
  9 13  2  0
 10 18  1  0
 10 21  4  0
 10 30  4  0
 11 17  2  0
 12 18  1  0
 13 15  1  0
 14 24  1  0
 15 25  1  0
 16 28  2  0
 17 20  1  0
 19 24  4  0
 20 23  1  0
 21 22  4  0
 22 23  4  0
 25 26  4  0
 27 29  2  0
M  END
$$$$

 Created by Python create_sdf_string function

 30 33  0  0  0  0  0  0  0  0999 V2000
    8.3036    9.8571   18.4133 C   0  0  0  0  0  0  0  0  0  0  0  0
    8.3694    7.6612   22.6703 C   0  0  0  0  0  0  0  0  0  0  0  0
    8.4143    6.6863   16.2273 C   0  0  0  0  0  0  0  0  0  0  0  0
   10.7581    6.5674   21.7636 C   0  0  0  0  0  0  0  0  0  0  0  0
    8.4452    8.7960   19.2958 O   0  0  0  0  0  0  0  0  0  0  0  0
    8.7122    6.7842   24.8569 C   0  0  0  0  0  0  0  0  0  0  0  0
   10.3400    6.1726   14.3081 C   0  0  0  0  0  0  0  0  0  0  0  0
    7.4297    7.5873   24.8962 C   0  0  0  0  0  0  0  0  0  0  0  0
    8.1566   10.0536   16.0516 O   0  0  0  0  0  0  0  0  0  0  0  0
   12.4989    6.2074   20.1776 C   0  0  0  0  0  0  0  0  0  0  0  0
    6.9192    9.1053   20.9073 O   0  0  0  0  0  0  0  0  0  0  0  0
   14.3979    6.0729   18.7784 C   0  0  0  0  0  0  0  0  0  0  0  0
    8.6811    9.5354   16.9998 C   0  0  0  0  0  0  0  0  0  0  0  0
    9.2512    4.2713   13.7653 O   0  0  0  0  0  0  0  0  0  0  0  0
    9.6495    8.6317   16.8332 N   0  0  0  0  0  0  0  0  0  0  0  0
    6.2934    8.6988   23.1988 O   0  0  0  0  0  0  0  0  0  0  0  0
    7.9806    8.6543   20.5437 C   0  0  0  0  0  0  0  0  0  0  0  0
   13.7270    5.7144   19.8610 O   0  0  0  0  0  0  0  0  0  0  0  0
    8.3351    5.5235   15.4478 C   0  0  0  0  0  0  0  0  0  0  0  0
    8.7700    7.8434   21.3915 C   0  0  0  0  0  0  0  0  0  0  0  0
   11.7856    6.8851   19.2401 C   0  0  0  0  0  0  0  0  0  0  0  0
   10.5281    7.4276   19.5649 C   0  0  0  0  0  0  0  0  0  0  0  0
   10.0256    7.2907   20.8484 C   0  0  0  0  0  0  0  0  0  0  0  0
    9.3113    5.3049   14.4911 C   0  0  0  0  0  0  0  0  0  0  0  0
    9.4607    7.5646   16.0139 C   0  0  0  0  0  0  0  0  0  0  0  0
   10.4192    7.3157   15.0955 C   0  0  0  0  0  0  0  0  0  0  0  0
   10.2489    6.4227   23.0218 N   0  0  0  0  0  0  0  0  0  0  0  0
    7.2472    8.0746   23.5050 C   0  0  0  0  0  0  0  0  0  0  0  0
    9.2051    6.9101   23.4604 C   0  0  0  0  0  0  0  0  0  0  0  0
   11.9646    6.0299   21.4251 C   0  0  0  0  0  0  0  0  0  0  0  0
  1  5  1  0
  1 13  1  0
  2 20  2  0
  2 28  1  0
  2 29  1  0
  3 19  4  0
  3 25  4  0
  4 23  4  0
  4 27  1  0
  4 30  4  0
  5 17  1  0
  6  8  1  0
  6 29  1  0
  7 24  4  0
  7 26  4  0
  8 28  1  0
  9 13  2  0
 10 18  1  0
 10 21  4  0
 10 30  4  0
 11 17  2  0
 12 18  1  0
 13 15  1  0
 14 24  1  0
 15 25  1  0
 16 28  2  0
 17 20  1  0
 19 24  4  0
 20 23  1  0
 21 22  4  0
 22 23  4  0
 25 26  4  0
 27 29  2  0
M  END
$$$$

 Created by Python create_sdf_string function

 30 33  0  0  0  0  0  0  0  0999 V2000
    8.3036    9.8571   18.4133 C   0  0  0  0  0  0  0  0  0  0  0  0
    8.3694    7.6612   22.6703 C   0  0  0  0  0  0  0  0  0  0  0  0
    8.4143    6.6863   16.2273 C   0  0  0  0  0  0  0  0  0  0  0  0
   10.7581    6.5674   21.7636 C   0  0  0  0  0  0  0  0  0  0  0  0
    8.4452    8.7960   19.2958 O   0  0  0  0  0  0  0  0  0  0  0  0
    8.7122    6.7842   24.8569 C   0  0  0  0  0  0  0  0  0  0  0  0
   10.3400    6.1726   14.3081 C   0  0  0  0  0  0  0  0  0  0  0  0
    7.4297    7.5873   24.8962 C   0  0  0  0  0  0  0  0  0  0  0  0
    8.1566   10.0536   16.0516 O   0  0  0  0  0  0  0  0  0  0  0  0
   12.4989    6.2074   20.1776 C   0  0  0  0  0  0  0  0  0  0  0  0
    6.9192    9.1053   20.9073 O   0  0  0  0  0  0  0  0  0  0  0  0
   14.3979    6.0729   18.7784 C   0  0  0  0  0  0  0  0  0  0  0  0
    8.6811    9.5354   16.9998 C   0  0  0  0  0  0  0  0  0  0  0  0
    9.2512    4.2713   13.7653 O   0  0  0  0  0  0  0  0  0  0  0  0
    9.6495    8.6317   16.8332 N   0  0  0  0  0  0  0  0  0  0  0  0
    6.2934    8.6988   23.1988 O   0  0  0  0  0  0  0  0  0  0  0  0
    7.9806    8.6543   20.5437 C   0  0  0  0  0  0  0  0  0  0  0  0
   13.7270    5.7144   19.8610 O   0  0  0  0  0  0  0  0  0  0  0  0
    8.3351    5.5235   15.4478 C   0  0  0  0  0  0  0  0  0  0  0  0
    8.7700    7.8434   21.3915 C   0  0  0  0  0  0  0  0  0  0  0  0
   11.7856    6.8851   19.2401 C   0  0  0  0  0  0  0  0  0  0  0  0
   10.5281    7.4276   19.5649 C   0  0  0  0  0  0  0  0  0  0  0  0
   10.0256    7.2907   20.8484 C   0  0  0  0  0  0  0  0  0  0  0  0
    9.3113    5.3049   14.4911 C   0  0  0  0  0  0  0  0  0  0  0  0
    9.4607    7.5646   16.0139 C   0  0  0  0  0  0  0  0  0  0  0  0
   10.4192    7.3157   15.0955 C   0  0  0  0  0  0  0  0  0  0  0  0
   10.2489    6.4227   23.0218 N   0  0  0  0  0  0  0  0  0  0  0  0
    7.2472    8.0746   23.5050 C   0  0  0  0  0  0  0  0  0  0  0  0
    9.2051    6.9101   23.4604 C   0  0  0  0  0  0  0  0  0  0  0  0
   11.9646    6.0299   21.4251 C   0  0  0  0  0  0  0  0  0  0  0  0
  1  5  1  0
  1 13  1  0
  2 20  2  0
  2 28  1  0
  2 29  1  0
  3 19  4  0
  3 25  4  0
  4 23  4  0
  4 27  1  0
  4 30  4  0
  5 17  1  0
  6  8  1  0
  6 29  1  0
  7 24  4  0
  7 26  4  0
  8 28  1  0
  9 13  2  0
 10 18  1  0
 10 21  4  0
 10 30  4  0
 11 17  2  0
 12 18  1  0
 13 15  1  0
 14 24  1  0
 15 25  1  0
 16 28  2  0
 17 20  1  0
 19 24  4  0
 20 23  1  0
 21 22  4  0
 22 23  4  0
 25 26  4  0
 27 29  2  0
M  END
$$$$

 Created by Python create_sdf_string function

 30 33  0  0  0  0  0  0  0  0999 V2000
    8.3036    9.8571   18.4133 C   0  0  0  0  0  0  0  0  0  0  0  0
    8.3694    7.6612   22.6703 C   0  0  0  0  0  0  0  0  0  0  0  0
    8.4143    6.6863   16.2273 C   0  0  0  0  0  0  0  0  0  0  0  0
   10.7581    6.5674   21.7636 C   0  0  0  0  0  0  0  0  0  0  0  0
    8.4452    8.7960   19.2958 O   0  0  0  0  0  0  0  0  0  0  0  0
    8.7122    6.7842   24.8569 C   0  0  0  0  0  0  0  0  0  0  0  0
   10.3400    6.1726   14.3081 C   0  0  0  0  0  0  0  0  0  0  0  0
    7.4297    7.5873   24.8962 C   0  0  0  0  0  0  0  0  0  0  0  0
    8.1566   10.0536   16.0516 O   0  0  0  0  0  0  0  0  0  0  0  0
   12.4989    6.2074   20.1776 C   0  0  0  0  0  0  0  0  0  0  0  0
    6.9192    9.1053   20.9073 O   0  0  0  0  0  0  0  0  0  0  0  0
   14.3979    6.0729   18.7784 C   0  0  0  0  0  0  0  0  0  0  0  0
    8.6811    9.5354   16.9998 C   0  0  0  0  0  0  0  0  0  0  0  0
    9.2512    4.2713   13.7653 O   0  0  0  0  0  0  0  0  0  0  0  0
    9.6495    8.6317   16.8332 N   0  0  0  0  0  0  0  0  0  0  0  0
    6.2934    8.6988   23.1988 O   0  0  0  0  0  0  0  0  0  0  0  0
    7.9806    8.6543   20.5437 C   0  0  0  0  0  0  0  0  0  0  0  0
   13.7270    5.7144   19.8610 O   0  0  0  0  0  0  0  0  0  0  0  0
    8.3351    5.5235   15.4478 C   0  0  0  0  0  0  0  0  0  0  0  0
    8.7700    7.8434   21.3915 C   0  0  0  0  0  0  0  0  0  0  0  0
   11.7856    6.8851   19.2401 C   0  0  0  0  0  0  0  0  0  0  0  0
   10.5281    7.4276   19.5649 C   0  0  0  0  0  0  0  0  0  0  0  0
   10.0256    7.2907   20.8484 C   0  0  0  0  0  0  0  0  0  0  0  0
    9.3113    5.3049   14.4911 C   0  0  0  0  0  0  0  0  0  0  0  0
    9.4607    7.5646   16.0139 C   0  0  0  0  0  0  0  0  0  0  0  0
   10.4192    7.3157   15.0955 C   0  0  0  0  0  0  0  0  0  0  0  0
   10.2489    6.4227   23.0218 N   0  0  0  0  0  0  0  0  0  0  0  0
    7.2472    8.0746   23.5050 C   0  0  0  0  0  0  0  0  0  0  0  0
    9.2051    6.9101   23.4604 C   0  0  0  0  0  0  0  0  0  0  0  0
   11.9646    6.0299   21.4251 C   0  0  0  0  0  0  0  0  0  0  0  0
  1  5  1  0
  1 13  1  0
  2 20  2  0
  2 28  1  0
  2 29  1  0
  3 19  4  0
  3 25  4  0
  4 23  4  0
  4 27  1  0
  4 30  4  0
  5 17  1  0
  6  8  1  0
  6 29  1  0
  7 24  4  0
  7 26  4  0
  8 28  1  0
  9 13  2  0
 10 18  1  0
 10 21  4  0
 10 30  4  0
 11 17  2  0
 12 18  1  0
 13 15  1  0
 14 24  1  0
 15 25  1  0
 16 28  2  0
 17 20  1  0
 19 24  4  0
 20 23  1  0
 21 22  4  0
 22 23  4  0
 25 26  4  0
 27 29  2  0
M  END
$$$$

 Created by Python create_sdf_string function

 30 33  0  0  0  0  0  0  0  0999 V2000
    8.3036    9.8571   18.4133 C   0  0  0  0  0  0  0  0  0  0  0  0
    8.3694    7.6612   22.6703 C   0  0  0  0  0  0  0  0  0  0  0  0
    8.4143    6.6863   16.2273 C   0  0  0  0  0  0  0  0  0  0  0  0
   10.7581    6.5674   21.7636 C   0  0  0  0  0  0  0  0  0  0  0  0
    8.4452    8.7960   19.2958 O   0  0  0  0  0  0  0  0  0  0  0  0
    8.7122    6.7842   24.8569 C   0  0  0  0  0  0  0  0  0  0  0  0
   10.3400    6.1726   14.3081 C   0  0  0  0  0  0  0  0  0  0  0  0
    7.4297    7.5873   24.8962 C   0  0  0  0  0  0  0  0  0  0  0  0
    8.1566   10.0536   16.0516 O   0  0  0  0  0  0  0  0  0  0  0  0
   12.4989    6.2074   20.1776 C   0  0  0  0  0  0  0  0  0  0  0  0
    6.9192    9.1053   20.9073 O   0  0  0  0  0  0  0  0  0  0  0  0
   14.3979    6.0729   18.7784 C   0  0  0  0  0  0  0  0  0  0  0  0
    8.6811    9.5354   16.9998 C   0  0  0  0  0  0  0  0  0  0  0  0
    9.2512    4.2713   13.7653 O   0  0  0  0  0  0  0  0  0  0  0  0
    9.6495    8.6317   16.8332 N   0  0  0  0  0  0  0  0  0  0  0  0
    6.2934    8.6988   23.1988 O   0  0  0  0  0  0  0  0  0  0  0  0
    7.9806    8.6543   20.5437 C   0  0  0  0  0  0  0  0  0  0  0  0
   13.7270    5.7144   19.8610 O   0  0  0  0  0  0  0  0  0  0  0  0
    8.3351    5.5235   15.4478 C   0  0  0  0  0  0  0  0  0  0  0  0
    8.7700    7.8434   21.3915 C   0  0  0  0  0  0  0  0  0  0  0  0
   11.7856    6.8851   19.2401 C   0  0  0  0  0  0  0  0  0  0  0  0
   10.5281    7.4276   19.5649 C   0  0  0  0  0  0  0  0  0  0  0  0
   10.0256    7.2907   20.8484 C   0  0  0  0  0  0  0  0  0  0  0  0
    9.3113    5.3049   14.4911 C   0  0  0  0  0  0  0  0  0  0  0  0
    9.4607    7.5646   16.0139 C   0  0  0  0  0  0  0  0  0  0  0  0
   10.4192    7.3157   15.0955 C   0  0  0  0  0  0  0  0  0  0  0  0
   10.2489    6.4227   23.0218 N   0  0  0  0  0  0  0  0  0  0  0  0
    7.2472    8.0746   23.5050 C   0  0  0  0  0  0  0  0  0  0  0  0
    9.2051    6.9101   23.4604 C   0  0  0  0  0  0  0  0  0  0  0  0
   11.9646    6.0299   21.4251 C   0  0  0  0  0  0  0  0  0  0  0  0
  1  5  1  0
  1 13  1  0
  2 20  2  0
  2 28  1  0
  2 29  1  0
  3 19  4  0
  3 25  4  0
  4 23  4  0
  4 27  1  0
  4 30  4  0
  5 17  1  0
  6  8  1  0
  6 29  1  0
  7 24  4  0
  7 26  4  0
  8 28  1  0
  9 13  2  0
 10 18  1  0
 10 21  4  0
 10 30  4  0
 11 17  2  0
 12 18  1  0
 13 15  1  0
 14 24  1  0
 15 25  1  0
 16 28  2  0
 17 20  1  0
 19 24  4  0
 20 23  1  0
 21 22  4  0
 22 23  4  0
 25 26  4  0
 27 29  2  0
M  END
$$$$

 Created by Python create_sdf_string function

 30 33  0  0  0  0  0  0  0  0999 V2000
    8.3036    9.8571   18.4133 C   0  0  0  0  0  0  0  0  0  0  0  0
    8.3694    7.6612   22.6703 C   0  0  0  0  0  0  0  0  0  0  0  0
    8.4143    6.6863   16.2273 C   0  0  0  0  0  0  0  0  0  0  0  0
   10.7581    6.5674   21.7636 C   0  0  0  0  0  0  0  0  0  0  0  0
    8.4452    8.7960   19.2958 O   0  0  0  0  0  0  0  0  0  0  0  0
    8.7122    6.7842   24.8569 C   0  0  0  0  0  0  0  0  0  0  0  0
   10.3400    6.1726   14.3081 C   0  0  0  0  0  0  0  0  0  0  0  0
    7.4297    7.5873   24.8962 C   0  0  0  0  0  0  0  0  0  0  0  0
    8.1566   10.0536   16.0516 O   0  0  0  0  0  0  0  0  0  0  0  0
   12.4989    6.2074   20.1776 C   0  0  0  0  0  0  0  0  0  0  0  0
    6.9192    9.1053   20.9073 O   0  0  0  0  0  0  0  0  0  0  0  0
   14.3979    6.0729   18.7784 C   0  0  0  0  0  0  0  0  0  0  0  0
    8.6811    9.5354   16.9998 C   0  0  0  0  0  0  0  0  0  0  0  0
    9.2512    4.2713   13.7653 O   0  0  0  0  0  0  0  0  0  0  0  0
    9.6495    8.6317   16.8332 N   0  0  0  0  0  0  0  0  0  0  0  0
    6.2934    8.6988   23.1988 O   0  0  0  0  0  0  0  0  0  0  0  0
    7.9806    8.6543   20.5437 C   0  0  0  0  0  0  0  0  0  0  0  0
   13.7270    5.7144   19.8610 O   0  0  0  0  0  0  0  0  0  0  0  0
    8.3351    5.5235   15.4478 C   0  0  0  0  0  0  0  0  0  0  0  0
    8.7700    7.8434   21.3915 C   0  0  0  0  0  0  0  0  0  0  0  0
   11.7856    6.8851   19.2401 C   0  0  0  0  0  0  0  0  0  0  0  0
   10.5281    7.4276   19.5649 C   0  0  0  0  0  0  0  0  0  0  0  0
   10.0256    7.2907   20.8484 C   0  0  0  0  0  0  0  0  0  0  0  0
    9.3113    5.3049   14.4911 C   0  0  0  0  0  0  0  0  0  0  0  0
    9.4607    7.5646   16.0139 C   0  0  0  0  0  0  0  0  0  0  0  0
   10.4192    7.3157   15.0955 C   0  0  0  0  0  0  0  0  0  0  0  0
   10.2489    6.4227   23.0218 N   0  0  0  0  0  0  0  0  0  0  0  0
    7.2472    8.0746   23.5050 C   0  0  0  0  0  0  0  0  0  0  0  0
    9.2051    6.9101   23.4604 C   0  0  0  0  0  0  0  0  0  0  0  0
   11.9646    6.0299   21.4251 C   0  0  0  0  0  0  0  0  0  0  0  0
  1  5  1  0
  1 13  1  0
  2 20  2  0
  2 28  1  0
  2 29  1  0
  3 19  4  0
  3 25  4  0
  4 23  4  0
  4 27  1  0
  4 30  4  0
  5 17  1  0
  6  8  1  0
  6 29  1  0
  7 24  4  0
  7 26  4  0
  8 28  1  0
  9 13  2  0
 10 18  1  0
 10 21  4  0
 10 30  4  0
 11 17  2  0
 12 18  1  0
 13 15  1  0
 14 24  1  0
 15 25  1  0
 16 28  2  0
 17 20  1  0
 19 24  4  0
 20 23  1  0
 21 22  4  0
 22 23  4  0
 25 26  4  0
 27 29  2  0
M  END
$$$$

 Created by Python create_sdf_string function

 30 33  0  0  0  0  0  0  0  0999 V2000
    8.3036    9.8571   18.4133 C   0  0  0  0  0  0  0  0  0  0  0  0
    8.3694    7.6612   22.6703 C   0  0  0  0  0  0  0  0  0  0  0  0
    8.4143    6.6863   16.2273 C   0  0  0  0  0  0  0  0  0  0  0  0
   10.7581    6.5674   21.7636 C   0  0  0  0  0  0  0  0  0  0  0  0
    8.4452    8.7960   19.2958 O   0  0  0  0  0  0  0  0  0  0  0  0
    8.7122    6.7842   24.8569 C   0  0  0  0  0  0  0  0  0  0  0  0
   10.3400    6.1726   14.3081 C   0  0  0  0  0  0  0  0  0  0  0  0
    7.4297    7.5873   24.8962 C   0  0  0  0  0  0  0  0  0  0  0  0
    8.1566   10.0536   16.0516 O   0  0  0  0  0  0  0  0  0  0  0  0
   12.4989    6.2074   20.1776 C   0  0  0  0  0  0  0  0  0  0  0  0
    6.9192    9.1053   20.9073 O   0  0  0  0  0  0  0  0  0  0  0  0
   14.3979    6.0729   18.7784 C   0  0  0  0  0  0  0  0  0  0  0  0
    8.6811    9.5354   16.9998 C   0  0  0  0  0  0  0  0  0  0  0  0
    9.2512    4.2713   13.7653 O   0  0  0  0  0  0  0  0  0  0  0  0
    9.6495    8.6317   16.8332 N   0  0  0  0  0  0  0  0  0  0  0  0
    6.2934    8.6988   23.1988 O   0  0  0  0  0  0  0  0  0  0  0  0
    7.9806    8.6543   20.5437 C   0  0  0  0  0  0  0  0  0  0  0  0
   13.7270    5.7144   19.8610 O   0  0  0  0  0  0  0  0  0  0  0  0
    8.3351    5.5235   15.4478 C   0  0  0  0  0  0  0  0  0  0  0  0
    8.7700    7.8434   21.3915 C   0  0  0  0  0  0  0  0  0  0  0  0
   11.7856    6.8851   19.2401 C   0  0  0  0  0  0  0  0  0  0  0  0
   10.5281    7.4276   19.5649 C   0  0  0  0  0  0  0  0  0  0  0  0
   10.0256    7.2907   20.8484 C   0  0  0  0  0  0  0  0  0  0  0  0
    9.3113    5.3049   14.4911 C   0  0  0  0  0  0  0  0  0  0  0  0
    9.4607    7.5646   16.0139 C   0  0  0  0  0  0  0  0  0  0  0  0
   10.4192    7.3157   15.0955 C   0  0  0  0  0  0  0  0  0  0  0  0
   10.2489    6.4227   23.0218 N   0  0  0  0  0  0  0  0  0  0  0  0
    7.2472    8.0746   23.5050 C   0  0  0  0  0  0  0  0  0  0  0  0
    9.2051    6.9101   23.4604 C   0  0  0  0  0  0  0  0  0  0  0  0
   11.9646    6.0299   21.4251 C   0  0  0  0  0  0  0  0  0  0  0  0
  1  5  1  0
  1 13  1  0
  2 20  2  0
  2 28  1  0
  2 29  1  0
  3 19  4  0
  3 25  4  0
  4 23  4  0
  4 27  1  0
  4 30  4  0
  5 17  1  0
  6  8  1  0
  6 29  1  0
  7 24  4  0
  7 26  4  0
  8 28  1  0
  9 13  2  0
 10 18  1  0
 10 21  4  0
 10 30  4  0
 11 17  2  0
 12 18  1  0
 13 15  1  0
 14 24  1  0
 15 25  1  0
 16 28  2  0
 17 20  1  0
 19 24  4  0
 20 23  1  0
 21 22  4  0
 22 23  4  0
 25 26  4  0
 27 29  2  0
M  END
$$$$

 Created by Python create_sdf_string function

 30 33  0  0  0  0  0  0  0  0999 V2000
    8.3036    9.8571   18.4133 C   0  0  0  0  0  0  0  0  0  0  0  0
    8.3694    7.6612   22.6703 C   0  0  0  0  0  0  0  0  0  0  0  0
    8.4143    6.6863   16.2273 C   0  0  0  0  0  0  0  0  0  0  0  0
   10.7581    6.5674   21.7636 C   0  0  0  0  0  0  0  0  0  0  0  0
    8.4452    8.7960   19.2958 O   0  0  0  0  0  0  0  0  0  0  0  0
    8.7122    6.7842   24.8569 C   0  0  0  0  0  0  0  0  0  0  0  0
   10.3400    6.1726   14.3081 C   0  0  0  0  0  0  0  0  0  0  0  0
    7.4297    7.5873   24.8962 C   0  0  0  0  0  0  0  0  0  0  0  0
    8.1566   10.0536   16.0516 O   0  0  0  0  0  0  0  0  0  0  0  0
   12.4989    6.2074   20.1776 C   0  0  0  0  0  0  0  0  0  0  0  0
    6.9192    9.1053   20.9073 O   0  0  0  0  0  0  0  0  0  0  0  0
   14.3979    6.0729   18.7784 C   0  0  0  0  0  0  0  0  0  0  0  0
    8.6811    9.5354   16.9998 C   0  0  0  0  0  0  0  0  0  0  0  0
    9.2512    4.2713   13.7653 O   0  0  0  0  0  0  0  0  0  0  0  0
    9.6495    8.6317   16.8332 N   0  0  0  0  0  0  0  0  0  0  0  0
    6.2934    8.6988   23.1988 O   0  0  0  0  0  0  0  0  0  0  0  0
    7.9806    8.6543   20.5437 C   0  0  0  0  0  0  0  0  0  0  0  0
   13.7270    5.7144   19.8610 O   0  0  0  0  0  0  0  0  0  0  0  0
    8.3351    5.5235   15.4478 C   0  0  0  0  0  0  0  0  0  0  0  0
    8.7700    7.8434   21.3915 C   0  0  0  0  0  0  0  0  0  0  0  0
   11.7856    6.8851   19.2401 C   0  0  0  0  0  0  0  0  0  0  0  0
   10.5281    7.4276   19.5649 C   0  0  0  0  0  0  0  0  0  0  0  0
   10.0256    7.2907   20.8484 C   0  0  0  0  0  0  0  0  0  0  0  0
    9.3113    5.3049   14.4911 C   0  0  0  0  0  0  0  0  0  0  0  0
    9.4607    7.5646   16.0139 C   0  0  0  0  0  0  0  0  0  0  0  0
   10.4192    7.3157   15.0955 C   0  0  0  0  0  0  0  0  0  0  0  0
   10.2489    6.4227   23.0218 N   0  0  0  0  0  0  0  0  0  0  0  0
    7.2472    8.0746   23.5050 C   0  0  0  0  0  0  0  0  0  0  0  0
    9.2051    6.9101   23.4604 C   0  0  0  0  0  0  0  0  0  0  0  0
   11.9646    6.0299   21.4251 C   0  0  0  0  0  0  0  0  0  0  0  0
  1  5  1  0
  1 13  1  0
  2 20  2  0
  2 28  1  0
  2 29  1  0
  3 19  4  0
  3 25  4  0
  4 23  4  0
  4 27  1  0
  4 30  4  0
  5 17  1  0
  6  8  1  0
  6 29  1  0
  7 24  4  0
  7 26  4  0
  8 28  1  0
  9 13  2  0
 10 18  1  0
 10 21  4  0
 10 30  4  0
 11 17  2  0
 12 18  1  0
 13 15  1  0
 14 24  1  0
 15 25  1  0
 16 28  2  0
 17 20  1  0
 19 24  4  0
 20 23  1  0
 21 22  4  0
 22 23  4  0
 25 26  4  0
 27 29  2  0
M  END
$$$$

 Created by Python create_sdf_string function

 30 33  0  0  0  0  0  0  0  0999 V2000
    8.3036    9.8571   18.4133 C   0  0  0  0  0  0  0  0  0  0  0  0
    8.3694    7.6612   22.6703 C   0  0  0  0  0  0  0  0  0  0  0  0
    8.4143    6.6863   16.2273 C   0  0  0  0  0  0  0  0  0  0  0  0
   10.7581    6.5674   21.7636 C   0  0  0  0  0  0  0  0  0  0  0  0
    8.4452    8.7960   19.2958 O   0  0  0  0  0  0  0  0  0  0  0  0
    8.7122    6.7842   24.8569 C   0  0  0  0  0  0  0  0  0  0  0  0
   10.3400    6.1726   14.3081 C   0  0  0  0  0  0  0  0  0  0  0  0
    7.4297    7.5873   24.8962 C   0  0  0  0  0  0  0  0  0  0  0  0
    8.1566   10.0536   16.0516 O   0  0  0  0  0  0  0  0  0  0  0  0
   12.4989    6.2074   20.1776 C   0  0  0  0  0  0  0  0  0  0  0  0
    6.9192    9.1053   20.9073 O   0  0  0  0  0  0  0  0  0  0  0  0
   14.3979    6.0729   18.7784 C   0  0  0  0  0  0  0  0  0  0  0  0
    8.6811    9.5354   16.9998 C   0  0  0  0  0  0  0  0  0  0  0  0
    9.2512    4.2713   13.7653 O   0  0  0  0  0  0  0  0  0  0  0  0
    9.6495    8.6317   16.8332 N   0  0  0  0  0  0  0  0  0  0  0  0
    6.2934    8.6988   23.1988 O   0  0  0  0  0  0  0  0  0  0  0  0
    7.9806    8.6543   20.5437 C   0  0  0  0  0  0  0  0  0  0  0  0
   13.7270    5.7144   19.8610 O   0  0  0  0  0  0  0  0  0  0  0  0
    8.3351    5.5235   15.4478 C   0  0  0  0  0  0  0  0  0  0  0  0
    8.7700    7.8434   21.3915 C   0  0  0  0  0  0  0  0  0  0  0  0
   11.7856    6.8851   19.2401 C   0  0  0  0  0  0  0  0  0  0  0  0
   10.5281    7.4276   19.5649 C   0  0  0  0  0  0  0  0  0  0  0  0
   10.0256    7.2907   20.8484 C   0  0  0  0  0  0  0  0  0  0  0  0
    9.3113    5.3049   14.4911 C   0  0  0  0  0  0  0  0  0  0  0  0
    9.4607    7.5646   16.0139 C   0  0  0  0  0  0  0  0  0  0  0  0
   10.4192    7.3157   15.0955 C   0  0  0  0  0  0  0  0  0  0  0  0
   10.2489    6.4227   23.0218 N   0  0  0  0  0  0  0  0  0  0  0  0
    7.2472    8.0746   23.5050 C   0  0  0  0  0  0  0  0  0  0  0  0
    9.2051    6.9101   23.4604 C   0  0  0  0  0  0  0  0  0  0  0  0
   11.9646    6.0299   21.4251 C   0  0  0  0  0  0  0  0  0  0  0  0
  1  5  1  0
  1 13  1  0
  2 20  2  0
  2 28  1  0
  2 29  1  0
  3 19  4  0
  3 25  4  0
  4 23  4  0
  4 27  1  0
  4 30  4  0
  5 17  1  0
  6  8  1  0
  6 29  1  0
  7 24  4  0
  7 26  4  0
  8 28  1  0
  9 13  2  0
 10 18  1  0
 10 21  4  0
 10 30  4  0
 11 17  2  0
 12 18  1  0
 13 15  1  0
 14 24  1  0
 15 25  1  0
 16 28  2  0
 17 20  1  0
 19 24  4  0
 20 23  1  0
 21 22  4  0
 22 23  4  0
 25 26  4  0
 27 29  2  0
M  END
$$$$

 Created by Python create_sdf_string function

 30 33  0  0  0  0  0  0  0  0999 V2000
    8.3036    9.8571   18.4133 C   0  0  0  0  0  0  0  0  0  0  0  0
    8.3694    7.6612   22.6703 C   0  0  0  0  0  0  0  0  0  0  0  0
    8.4143    6.6863   16.2273 C   0  0  0  0  0  0  0  0  0  0  0  0
   10.7581    6.5674   21.7636 C   0  0  0  0  0  0  0  0  0  0  0  0
    8.4452    8.7960   19.2958 O   0  0  0  0  0  0  0  0  0  0  0  0
    8.7122    6.7842   24.8569 C   0  0  0  0  0  0  0  0  0  0  0  0
   10.3400    6.1726   14.3081 C   0  0  0  0  0  0  0  0  0  0  0  0
    7.4297    7.5873   24.8962 C   0  0  0  0  0  0  0  0  0  0  0  0
    8.1566   10.0536   16.0516 O   0  0  0  0  0  0  0  0  0  0  0  0
   12.4989    6.2074   20.1776 C   0  0  0  0  0  0  0  0  0  0  0  0
    6.9192    9.1053   20.9073 O   0  0  0  0  0  0  0  0  0  0  0  0
   14.3979    6.0729   18.7784 C   0  0  0  0  0  0  0  0  0  0  0  0
    8.6811    9.5354   16.9998 C   0  0  0  0  0  0  0  0  0  0  0  0
    9.2512    4.2713   13.7653 O   0  0  0  0  0  0  0  0  0  0  0  0
    9.6495    8.6317   16.8332 N   0  0  0  0  0  0  0  0  0  0  0  0
    6.2934    8.6988   23.1988 O   0  0  0  0  0  0  0  0  0  0  0  0
    7.9806    8.6543   20.5437 C   0  0  0  0  0  0  0  0  0  0  0  0
   13.7270    5.7144   19.8610 O   0  0  0  0  0  0  0  0  0  0  0  0
    8.3351    5.5235   15.4478 C   0  0  0  0  0  0  0  0  0  0  0  0
    8.7700    7.8434   21.3915 C   0  0  0  0  0  0  0  0  0  0  0  0
   11.7856    6.8851   19.2401 C   0  0  0  0  0  0  0  0  0  0  0  0
   10.5281    7.4276   19.5649 C   0  0  0  0  0  0  0  0  0  0  0  0
   10.0256    7.2907   20.8484 C   0  0  0  0  0  0  0  0  0  0  0  0
    9.3113    5.3049   14.4911 C   0  0  0  0  0  0  0  0  0  0  0  0
    9.4607    7.5646   16.0139 C   0  0  0  0  0  0  0  0  0  0  0  0
   10.4192    7.3157   15.0955 C   0  0  0  0  0  0  0  0  0  0  0  0
   10.2489    6.4227   23.0218 N   0  0  0  0  0  0  0  0  0  0  0  0
    7.2472    8.0746   23.5050 C   0  0  0  0  0  0  0  0  0  0  0  0
    9.2051    6.9101   23.4604 C   0  0  0  0  0  0  0  0  0  0  0  0
   11.9646    6.0299   21.4251 C   0  0  0  0  0  0  0  0  0  0  0  0
  1  5  1  0
  1 13  1  0
  2 20  2  0
  2 28  1  0
  2 29  1  0
  3 19  4  0
  3 25  4  0
  4 23  4  0
  4 27  1  0
  4 30  4  0
  5 17  1  0
  6  8  1  0
  6 29  1  0
  7 24  4  0
  7 26  4  0
  8 28  1  0
  9 13  2  0
 10 18  1  0
 10 21  4  0
 10 30  4  0
 11 17  2  0
 12 18  1  0
 13 15  1  0
 14 24  1  0
 15 25  1  0
 16 28  2  0
 17 20  1  0
 19 24  4  0
 20 23  1  0
 21 22  4  0
 22 23  4  0
 25 26  4  0
 27 29  2  0
M  END
$$$$

 Created by Python create_sdf_string function

 30 33  0  0  0  0  0  0  0  0999 V2000
    8.3036    9.8571   18.4133 C   0  0  0  0  0  0  0  0  0  0  0  0
    8.3694    7.6612   22.6703 C   0  0  0  0  0  0  0  0  0  0  0  0
    8.4143    6.6863   16.2273 C   0  0  0  0  0  0  0  0  0  0  0  0
   10.7581    6.5674   21.7636 C   0  0  0  0  0  0  0  0  0  0  0  0
    8.4452    8.7960   19.2958 O   0  0  0  0  0  0  0  0  0  0  0  0
    8.7122    6.7842   24.8569 C   0  0  0  0  0  0  0  0  0  0  0  0
   10.3400    6.1726   14.3081 C   0  0  0  0  0  0  0  0  0  0  0  0
    7.4297    7.5873   24.8962 C   0  0  0  0  0  0  0  0  0  0  0  0
    8.1566   10.0536   16.0516 O   0  0  0  0  0  0  0  0  0  0  0  0
   12.4989    6.2074   20.1776 C   0  0  0  0  0  0  0  0  0  0  0  0
    6.9192    9.1053   20.9073 O   0  0  0  0  0  0  0  0  0  0  0  0
   14.3979    6.0729   18.7784 C   0  0  0  0  0  0  0  0  0  0  0  0
    8.6811    9.5354   16.9998 C   0  0  0  0  0  0  0  0  0  0  0  0
    9.2512    4.2713   13.7653 O   0  0  0  0  0  0  0  0  0  0  0  0
    9.6495    8.6317   16.8332 N   0  0  0  0  0  0  0  0  0  0  0  0
    6.2934    8.6988   23.1988 O   0  0  0  0  0  0  0  0  0  0  0  0
    7.9806    8.6543   20.5437 C   0  0  0  0  0  0  0  0  0  0  0  0
   13.7270    5.7144   19.8610 O   0  0  0  0  0  0  0  0  0  0  0  0
    8.3351    5.5235   15.4478 C   0  0  0  0  0  0  0  0  0  0  0  0
    8.7700    7.8434   21.3915 C   0  0  0  0  0  0  0  0  0  0  0  0
   11.7856    6.8851   19.2401 C   0  0  0  0  0  0  0  0  0  0  0  0
   10.5281    7.4276   19.5649 C   0  0  0  0  0  0  0  0  0  0  0  0
   10.0256    7.2907   20.8484 C   0  0  0  0  0  0  0  0  0  0  0  0
    9.3113    5.3049   14.4911 C   0  0  0  0  0  0  0  0  0  0  0  0
    9.4607    7.5646   16.0139 C   0  0  0  0  0  0  0  0  0  0  0  0
   10.4192    7.3157   15.0955 C   0  0  0  0  0  0  0  0  0  0  0  0
   10.2489    6.4227   23.0218 N   0  0  0  0  0  0  0  0  0  0  0  0
    7.2472    8.0746   23.5050 C   0  0  0  0  0  0  0  0  0  0  0  0
    9.2051    6.9101   23.4604 C   0  0  0  0  0  0  0  0  0  0  0  0
   11.9646    6.0299   21.4251 C   0  0  0  0  0  0  0  0  0  0  0  0
  1  5  1  0
  1 13  1  0
  2 20  2  0
  2 28  1  0
  2 29  1  0
  3 19  4  0
  3 25  4  0
  4 23  4  0
  4 27  1  0
  4 30  4  0
  5 17  1  0
  6  8  1  0
  6 29  1  0
  7 24  4  0
  7 26  4  0
  8 28  1  0
  9 13  2  0
 10 18  1  0
 10 21  4  0
 10 30  4  0
 11 17  2  0
 12 18  1  0
 13 15  1  0
 14 24  1  0
 15 25  1  0
 16 28  2  0
 17 20  1  0
 19 24  4  0
 20 23  1  0
 21 22  4  0
 22 23  4  0
 25 26  4  0
 27 29  2  0
M  END
$$$$

 Created by Python create_sdf_string function

 30 33  0  0  0  0  0  0  0  0999 V2000
    8.3036    9.8571   18.4133 C   0  0  0  0  0  0  0  0  0  0  0  0
    8.3694    7.6612   22.6703 C   0  0  0  0  0  0  0  0  0  0  0  0
    8.4143    6.6863   16.2273 C   0  0  0  0  0  0  0  0  0  0  0  0
   10.7581    6.5674   21.7636 C   0  0  0  0  0  0  0  0  0  0  0  0
    8.4452    8.7960   19.2958 O   0  0  0  0  0  0  0  0  0  0  0  0
    8.7122    6.7842   24.8569 C   0  0  0  0  0  0  0  0  0  0  0  0
   10.3400    6.1726   14.3081 C   0  0  0  0  0  0  0  0  0  0  0  0
    7.4297    7.5873   24.8962 C   0  0  0  0  0  0  0  0  0  0  0  0
    8.1566   10.0536   16.0516 O   0  0  0  0  0  0  0  0  0  0  0  0
   12.4989    6.2074   20.1776 C   0  0  0  0  0  0  0  0  0  0  0  0
    6.9192    9.1053   20.9073 O   0  0  0  0  0  0  0  0  0  0  0  0
   14.3979    6.0729   18.7784 C   0  0  0  0  0  0  0  0  0  0  0  0
    8.6811    9.5354   16.9998 C   0  0  0  0  0  0  0  0  0  0  0  0
    9.2512    4.2713   13.7653 O   0  0  0  0  0  0  0  0  0  0  0  0
    9.6495    8.6317   16.8332 N   0  0  0  0  0  0  0  0  0  0  0  0
    6.2934    8.6988   23.1988 O   0  0  0  0  0  0  0  0  0  0  0  0
    7.9806    8.6543   20.5437 C   0  0  0  0  0  0  0  0  0  0  0  0
   13.7270    5.7144   19.8610 O   0  0  0  0  0  0  0  0  0  0  0  0
    8.3351    5.5235   15.4478 C   0  0  0  0  0  0  0  0  0  0  0  0
    8.7700    7.8434   21.3915 C   0  0  0  0  0  0  0  0  0  0  0  0
   11.7856    6.8851   19.2401 C   0  0  0  0  0  0  0  0  0  0  0  0
   10.5281    7.4276   19.5649 C   0  0  0  0  0  0  0  0  0  0  0  0
   10.0256    7.2907   20.8484 C   0  0  0  0  0  0  0  0  0  0  0  0
    9.3113    5.3049   14.4911 C   0  0  0  0  0  0  0  0  0  0  0  0
    9.4607    7.5646   16.0139 C   0  0  0  0  0  0  0  0  0  0  0  0
   10.4192    7.3157   15.0955 C   0  0  0  0  0  0  0  0  0  0  0  0
   10.2489    6.4227   23.0218 N   0  0  0  0  0  0  0  0  0  0  0  0
    7.2472    8.0746   23.5050 C   0  0  0  0  0  0  0  0  0  0  0  0
    9.2051    6.9101   23.4604 C   0  0  0  0  0  0  0  0  0  0  0  0
   11.9646    6.0299   21.4251 C   0  0  0  0  0  0  0  0  0  0  0  0
  1  5  1  0
  1 13  1  0
  2 20  2  0
  2 28  1  0
  2 29  1  0
  3 19  4  0
  3 25  4  0
  4 23  4  0
  4 27  1  0
  4 30  4  0
  5 17  1  0
  6  8  1  0
  6 29  1  0
  7 24  4  0
  7 26  4  0
  8 28  1  0
  9 13  2  0
 10 18  1  0
 10 21  4  0
 10 30  4  0
 11 17  2  0
 12 18  1  0
 13 15  1  0
 14 24  1  0
 15 25  1  0
 16 28  2  0
 17 20  1  0
 19 24  4  0
 20 23  1  0
 21 22  4  0
 22 23  4  0
 25 26  4  0
 27 29  2  0
M  END
$$$$

 Created by Python create_sdf_string function

 30 33  0  0  0  0  0  0  0  0999 V2000
    8.3036    9.8571   18.4133 C   0  0  0  0  0  0  0  0  0  0  0  0
    8.3694    7.6612   22.6703 C   0  0  0  0  0  0  0  0  0  0  0  0
    8.4143    6.6863   16.2273 C   0  0  0  0  0  0  0  0  0  0  0  0
   10.7581    6.5674   21.7636 C   0  0  0  0  0  0  0  0  0  0  0  0
    8.4452    8.7960   19.2958 O   0  0  0  0  0  0  0  0  0  0  0  0
    8.7122    6.7842   24.8569 C   0  0  0  0  0  0  0  0  0  0  0  0
   10.3400    6.1726   14.3081 C   0  0  0  0  0  0  0  0  0  0  0  0
    7.4297    7.5873   24.8962 C   0  0  0  0  0  0  0  0  0  0  0  0
    8.1566   10.0536   16.0516 O   0  0  0  0  0  0  0  0  0  0  0  0
   12.4989    6.2074   20.1776 C   0  0  0  0  0  0  0  0  0  0  0  0
    6.9192    9.1053   20.9073 O   0  0  0  0  0  0  0  0  0  0  0  0
   14.3979    6.0729   18.7784 C   0  0  0  0  0  0  0  0  0  0  0  0
    8.6811    9.5354   16.9998 C   0  0  0  0  0  0  0  0  0  0  0  0
    9.2512    4.2713   13.7653 O   0  0  0  0  0  0  0  0  0  0  0  0
    9.6495    8.6317   16.8332 N   0  0  0  0  0  0  0  0  0  0  0  0
    6.2934    8.6988   23.1988 O   0  0  0  0  0  0  0  0  0  0  0  0
    7.9806    8.6543   20.5437 C   0  0  0  0  0  0  0  0  0  0  0  0
   13.7270    5.7144   19.8610 O   0  0  0  0  0  0  0  0  0  0  0  0
    8.3351    5.5235   15.4478 C   0  0  0  0  0  0  0  0  0  0  0  0
    8.7700    7.8434   21.3915 C   0  0  0  0  0  0  0  0  0  0  0  0
   11.7856    6.8851   19.2401 C   0  0  0  0  0  0  0  0  0  0  0  0
   10.5281    7.4276   19.5649 C   0  0  0  0  0  0  0  0  0  0  0  0
   10.0256    7.2907   20.8484 C   0  0  0  0  0  0  0  0  0  0  0  0
    9.3113    5.3049   14.4911 C   0  0  0  0  0  0  0  0  0  0  0  0
    9.4607    7.5646   16.0139 C   0  0  0  0  0  0  0  0  0  0  0  0
   10.4192    7.3157   15.0955 C   0  0  0  0  0  0  0  0  0  0  0  0
   10.2489    6.4227   23.0218 N   0  0  0  0  0  0  0  0  0  0  0  0
    7.2472    8.0746   23.5050 C   0  0  0  0  0  0  0  0  0  0  0  0
    9.2051    6.9101   23.4604 C   0  0  0  0  0  0  0  0  0  0  0  0
   11.9646    6.0299   21.4251 C   0  0  0  0  0  0  0  0  0  0  0  0
  1  5  1  0
  1 13  1  0
  2 20  2  0
  2 28  1  0
  2 29  1  0
  3 19  4  0
  3 25  4  0
  4 23  4  0
  4 27  1  0
  4 30  4  0
  5 17  1  0
  6  8  1  0
  6 29  1  0
  7 24  4  0
  7 26  4  0
  8 28  1  0
  9 13  2  0
 10 18  1  0
 10 21  4  0
 10 30  4  0
 11 17  2  0
 12 18  1  0
 13 15  1  0
 14 24  1  0
 15 25  1  0
 16 28  2  0
 17 20  1  0
 19 24  4  0
 20 23  1  0
 21 22  4  0
 22 23  4  0
 25 26  4  0
 27 29  2  0
M  END
$$$$

 Created by Python create_sdf_string function

 30 33  0  0  0  0  0  0  0  0999 V2000
    8.3036    9.8571   18.4133 C   0  0  0  0  0  0  0  0  0  0  0  0
    8.3694    7.6612   22.6703 C   0  0  0  0  0  0  0  0  0  0  0  0
    8.4143    6.6863   16.2273 C   0  0  0  0  0  0  0  0  0  0  0  0
   10.7581    6.5674   21.7636 C   0  0  0  0  0  0  0  0  0  0  0  0
    8.4452    8.7960   19.2958 O   0  0  0  0  0  0  0  0  0  0  0  0
    8.7122    6.7842   24.8569 C   0  0  0  0  0  0  0  0  0  0  0  0
   10.3400    6.1726   14.3081 C   0  0  0  0  0  0  0  0  0  0  0  0
    7.4297    7.5873   24.8962 C   0  0  0  0  0  0  0  0  0  0  0  0
    8.1566   10.0536   16.0516 O   0  0  0  0  0  0  0  0  0  0  0  0
   12.4989    6.2074   20.1776 C   0  0  0  0  0  0  0  0  0  0  0  0
    6.9192    9.1053   20.9073 O   0  0  0  0  0  0  0  0  0  0  0  0
   14.3979    6.0729   18.7784 C   0  0  0  0  0  0  0  0  0  0  0  0
    8.6811    9.5354   16.9998 C   0  0  0  0  0  0  0  0  0  0  0  0
    9.2512    4.2713   13.7653 O   0  0  0  0  0  0  0  0  0  0  0  0
    9.6495    8.6317   16.8332 N   0  0  0  0  0  0  0  0  0  0  0  0
    6.2934    8.6988   23.1988 O   0  0  0  0  0  0  0  0  0  0  0  0
    7.9806    8.6543   20.5437 C   0  0  0  0  0  0  0  0  0  0  0  0
   13.7270    5.7144   19.8610 O   0  0  0  0  0  0  0  0  0  0  0  0
    8.3351    5.5235   15.4478 C   0  0  0  0  0  0  0  0  0  0  0  0
    8.7700    7.8434   21.3915 C   0  0  0  0  0  0  0  0  0  0  0  0
   11.7856    6.8851   19.2401 C   0  0  0  0  0  0  0  0  0  0  0  0
   10.5281    7.4276   19.5649 C   0  0  0  0  0  0  0  0  0  0  0  0
   10.0256    7.2907   20.8484 C   0  0  0  0  0  0  0  0  0  0  0  0
    9.3113    5.3049   14.4911 C   0  0  0  0  0  0  0  0  0  0  0  0
    9.4607    7.5646   16.0139 C   0  0  0  0  0  0  0  0  0  0  0  0
   10.4192    7.3157   15.0955 C   0  0  0  0  0  0  0  0  0  0  0  0
   10.2489    6.4227   23.0218 N   0  0  0  0  0  0  0  0  0  0  0  0
    7.2472    8.0746   23.5050 C   0  0  0  0  0  0  0  0  0  0  0  0
    9.2051    6.9101   23.4604 C   0  0  0  0  0  0  0  0  0  0  0  0
   11.9646    6.0299   21.4251 C   0  0  0  0  0  0  0  0  0  0  0  0
  1  5  1  0
  1 13  1  0
  2 20  2  0
  2 28  1  0
  2 29  1  0
  3 19  4  0
  3 25  4  0
  4 23  4  0
  4 27  1  0
  4 30  4  0
  5 17  1  0
  6  8  1  0
  6 29  1  0
  7 24  4  0
  7 26  4  0
  8 28  1  0
  9 13  2  0
 10 18  1  0
 10 21  4  0
 10 30  4  0
 11 17  2  0
 12 18  1  0
 13 15  1  0
 14 24  1  0
 15 25  1  0
 16 28  2  0
 17 20  1  0
 19 24  4  0
 20 23  1  0
 21 22  4  0
 22 23  4  0
 25 26  4  0
 27 29  2  0
M  END
$$$$

 Created by Python create_sdf_string function

 30 33  0  0  0  0  0  0  0  0999 V2000
    8.3036    9.8571   18.4133 C   0  0  0  0  0  0  0  0  0  0  0  0
    8.3694    7.6612   22.6703 C   0  0  0  0  0  0  0  0  0  0  0  0
    8.4143    6.6863   16.2273 C   0  0  0  0  0  0  0  0  0  0  0  0
   10.7581    6.5674   21.7636 C   0  0  0  0  0  0  0  0  0  0  0  0
    8.4452    8.7960   19.2958 O   0  0  0  0  0  0  0  0  0  0  0  0
    8.7122    6.7842   24.8569 C   0  0  0  0  0  0  0  0  0  0  0  0
   10.3400    6.1726   14.3081 C   0  0  0  0  0  0  0  0  0  0  0  0
    7.4297    7.5873   24.8962 C   0  0  0  0  0  0  0  0  0  0  0  0
    8.1566   10.0536   16.0516 O   0  0  0  0  0  0  0  0  0  0  0  0
   12.4989    6.2074   20.1776 C   0  0  0  0  0  0  0  0  0  0  0  0
    6.9192    9.1053   20.9073 O   0  0  0  0  0  0  0  0  0  0  0  0
   14.3979    6.0729   18.7784 C   0  0  0  0  0  0  0  0  0  0  0  0
    8.6811    9.5354   16.9998 C   0  0  0  0  0  0  0  0  0  0  0  0
    9.2512    4.2713   13.7653 O   0  0  0  0  0  0  0  0  0  0  0  0
    9.6495    8.6317   16.8332 N   0  0  0  0  0  0  0  0  0  0  0  0
    6.2934    8.6988   23.1988 O   0  0  0  0  0  0  0  0  0  0  0  0
    7.9806    8.6543   20.5437 C   0  0  0  0  0  0  0  0  0  0  0  0
   13.7270    5.7144   19.8610 O   0  0  0  0  0  0  0  0  0  0  0  0
    8.3351    5.5235   15.4478 C   0  0  0  0  0  0  0  0  0  0  0  0
    8.7700    7.8434   21.3915 C   0  0  0  0  0  0  0  0  0  0  0  0
   11.7856    6.8851   19.2401 C   0  0  0  0  0  0  0  0  0  0  0  0
   10.5281    7.4276   19.5649 C   0  0  0  0  0  0  0  0  0  0  0  0
   10.0256    7.2907   20.8484 C   0  0  0  0  0  0  0  0  0  0  0  0
    9.3113    5.3049   14.4911 C   0  0  0  0  0  0  0  0  0  0  0  0
    9.4607    7.5646   16.0139 C   0  0  0  0  0  0  0  0  0  0  0  0
   10.4192    7.3157   15.0955 C   0  0  0  0  0  0  0  0  0  0  0  0
   10.2489    6.4227   23.0218 N   0  0  0  0  0  0  0  0  0  0  0  0
    7.2472    8.0746   23.5050 C   0  0  0  0  0  0  0  0  0  0  0  0
    9.2051    6.9101   23.4604 C   0  0  0  0  0  0  0  0  0  0  0  0
   11.9646    6.0299   21.4251 C   0  0  0  0  0  0  0  0  0  0  0  0
  1  5  1  0
  1 13  1  0
  2 20  2  0
  2 28  1  0
  2 29  1  0
  3 19  4  0
  3 25  4  0
  4 23  4  0
  4 27  1  0
  4 30  4  0
  5 17  1  0
  6  8  1  0
  6 29  1  0
  7 24  4  0
  7 26  4  0
  8 28  1  0
  9 13  2  0
 10 18  1  0
 10 21  4  0
 10 30  4  0
 11 17  2  0
 12 18  1  0
 13 15  1  0
 14 24  1  0
 15 25  1  0
 16 28  2  0
 17 20  1  0
 19 24  4  0
 20 23  1  0
 21 22  4  0
 22 23  4  0
 25 26  4  0
 27 29  2  0
M  END
$$$$

 Created by Python create_sdf_string function

 30 33  0  0  0  0  0  0  0  0999 V2000
    8.3036    9.8571   18.4133 C   0  0  0  0  0  0  0  0  0  0  0  0
    8.3694    7.6612   22.6703 C   0  0  0  0  0  0  0  0  0  0  0  0
    8.4143    6.6863   16.2273 C   0  0  0  0  0  0  0  0  0  0  0  0
   10.7581    6.5674   21.7636 C   0  0  0  0  0  0  0  0  0  0  0  0
    8.4452    8.7960   19.2958 O   0  0  0  0  0  0  0  0  0  0  0  0
    8.7122    6.7842   24.8569 C   0  0  0  0  0  0  0  0  0  0  0  0
   10.3400    6.1726   14.3081 C   0  0  0  0  0  0  0  0  0  0  0  0
    7.4297    7.5873   24.8962 C   0  0  0  0  0  0  0  0  0  0  0  0
    8.1566   10.0536   16.0516 O   0  0  0  0  0  0  0  0  0  0  0  0
   12.4989    6.2074   20.1776 C   0  0  0  0  0  0  0  0  0  0  0  0
    6.9192    9.1053   20.9073 O   0  0  0  0  0  0  0  0  0  0  0  0
   14.3979    6.0729   18.7784 C   0  0  0  0  0  0  0  0  0  0  0  0
    8.6811    9.5354   16.9998 C   0  0  0  0  0  0  0  0  0  0  0  0
    9.2512    4.2713   13.7653 O   0  0  0  0  0  0  0  0  0  0  0  0
    9.6495    8.6317   16.8332 N   0  0  0  0  0  0  0  0  0  0  0  0
    6.2934    8.6988   23.1988 O   0  0  0  0  0  0  0  0  0  0  0  0
    7.9806    8.6543   20.5437 C   0  0  0  0  0  0  0  0  0  0  0  0
   13.7270    5.7144   19.8610 O   0  0  0  0  0  0  0  0  0  0  0  0
    8.3351    5.5235   15.4478 C   0  0  0  0  0  0  0  0  0  0  0  0
    8.7700    7.8434   21.3915 C   0  0  0  0  0  0  0  0  0  0  0  0
   11.7856    6.8851   19.2401 C   0  0  0  0  0  0  0  0  0  0  0  0
   10.5281    7.4276   19.5649 C   0  0  0  0  0  0  0  0  0  0  0  0
   10.0256    7.2907   20.8484 C   0  0  0  0  0  0  0  0  0  0  0  0
    9.3113    5.3049   14.4911 C   0  0  0  0  0  0  0  0  0  0  0  0
    9.4607    7.5646   16.0139 C   0  0  0  0  0  0  0  0  0  0  0  0
   10.4192    7.3157   15.0955 C   0  0  0  0  0  0  0  0  0  0  0  0
   10.2489    6.4227   23.0218 N   0  0  0  0  0  0  0  0  0  0  0  0
    7.2472    8.0746   23.5050 C   0  0  0  0  0  0  0  0  0  0  0  0
    9.2051    6.9101   23.4604 C   0  0  0  0  0  0  0  0  0  0  0  0
   11.9646    6.0299   21.4251 C   0  0  0  0  0  0  0  0  0  0  0  0
  1  5  1  0
  1 13  1  0
  2 20  2  0
  2 28  1  0
  2 29  1  0
  3 19  4  0
  3 25  4  0
  4 23  4  0
  4 27  1  0
  4 30  4  0
  5 17  1  0
  6  8  1  0
  6 29  1  0
  7 24  4  0
  7 26  4  0
  8 28  1  0
  9 13  2  0
 10 18  1  0
 10 21  4  0
 10 30  4  0
 11 17  2  0
 12 18  1  0
 13 15  1  0
 14 24  1  0
 15 25  1  0
 16 28  2  0
 17 20  1  0
 19 24  4  0
 20 23  1  0
 21 22  4  0
 22 23  4  0
 25 26  4  0
 27 29  2  0
M  END
$$$$

 Created by Python create_sdf_string function

 30 33  0  0  0  0  0  0  0  0999 V2000
    8.3036    9.8571   18.4133 C   0  0  0  0  0  0  0  0  0  0  0  0
    8.3694    7.6612   22.6703 C   0  0  0  0  0  0  0  0  0  0  0  0
    8.4143    6.6863   16.2273 C   0  0  0  0  0  0  0  0  0  0  0  0
   10.7581    6.5674   21.7636 C   0  0  0  0  0  0  0  0  0  0  0  0
    8.4452    8.7960   19.2958 O   0  0  0  0  0  0  0  0  0  0  0  0
    8.7122    6.7842   24.8569 C   0  0  0  0  0  0  0  0  0  0  0  0
   10.3400    6.1726   14.3081 C   0  0  0  0  0  0  0  0  0  0  0  0
    7.4297    7.5873   24.8962 C   0  0  0  0  0  0  0  0  0  0  0  0
    8.1566   10.0536   16.0516 O   0  0  0  0  0  0  0  0  0  0  0  0
   12.4989    6.2074   20.1776 C   0  0  0  0  0  0  0  0  0  0  0  0
    6.9192    9.1053   20.9073 O   0  0  0  0  0  0  0  0  0  0  0  0
   14.3979    6.0729   18.7784 C   0  0  0  0  0  0  0  0  0  0  0  0
    8.6811    9.5354   16.9998 C   0  0  0  0  0  0  0  0  0  0  0  0
    9.2512    4.2713   13.7653 O   0  0  0  0  0  0  0  0  0  0  0  0
    9.6495    8.6317   16.8332 N   0  0  0  0  0  0  0  0  0  0  0  0
    6.2934    8.6988   23.1988 O   0  0  0  0  0  0  0  0  0  0  0  0
    7.9806    8.6543   20.5437 C   0  0  0  0  0  0  0  0  0  0  0  0
   13.7270    5.7144   19.8610 O   0  0  0  0  0  0  0  0  0  0  0  0
    8.3351    5.5235   15.4478 C   0  0  0  0  0  0  0  0  0  0  0  0
    8.7700    7.8434   21.3915 C   0  0  0  0  0  0  0  0  0  0  0  0
   11.7856    6.8851   19.2401 C   0  0  0  0  0  0  0  0  0  0  0  0
   10.5281    7.4276   19.5649 C   0  0  0  0  0  0  0  0  0  0  0  0
   10.0256    7.2907   20.8484 C   0  0  0  0  0  0  0  0  0  0  0  0
    9.3113    5.3049   14.4911 C   0  0  0  0  0  0  0  0  0  0  0  0
    9.4607    7.5646   16.0139 C   0  0  0  0  0  0  0  0  0  0  0  0
   10.4192    7.3157   15.0955 C   0  0  0  0  0  0  0  0  0  0  0  0
   10.2489    6.4227   23.0218 N   0  0  0  0  0  0  0  0  0  0  0  0
    7.2472    8.0746   23.5050 C   0  0  0  0  0  0  0  0  0  0  0  0
    9.2051    6.9101   23.4604 C   0  0  0  0  0  0  0  0  0  0  0  0
   11.9646    6.0299   21.4251 C   0  0  0  0  0  0  0  0  0  0  0  0
  1  5  1  0
  1 13  1  0
  2 20  2  0
  2 28  1  0
  2 29  1  0
  3 19  4  0
  3 25  4  0
  4 23  4  0
  4 27  1  0
  4 30  4  0
  5 17  1  0
  6  8  1  0
  6 29  1  0
  7 24  4  0
  7 26  4  0
  8 28  1  0
  9 13  2  0
 10 18  1  0
 10 21  4  0
 10 30  4  0
 11 17  2  0
 12 18  1  0
 13 15  1  0
 14 24  1  0
 15 25  1  0
 16 28  2  0
 17 20  1  0
 19 24  4  0
 20 23  1  0
 21 22  4  0
 22 23  4  0
 25 26  4  0
 27 29  2  0
M  END
$$$$

 Created by Python create_sdf_string function

 30 33  0  0  0  0  0  0  0  0999 V2000
    8.3036    9.8571   18.4133 C   0  0  0  0  0  0  0  0  0  0  0  0
    8.3694    7.6612   22.6703 C   0  0  0  0  0  0  0  0  0  0  0  0
    8.4143    6.6863   16.2273 C   0  0  0  0  0  0  0  0  0  0  0  0
   10.7581    6.5674   21.7636 C   0  0  0  0  0  0  0  0  0  0  0  0
    8.4452    8.7960   19.2958 O   0  0  0  0  0  0  0  0  0  0  0  0
    8.7122    6.7842   24.8569 C   0  0  0  0  0  0  0  0  0  0  0  0
   10.3400    6.1726   14.3081 C   0  0  0  0  0  0  0  0  0  0  0  0
    7.4297    7.5873   24.8962 C   0  0  0  0  0  0  0  0  0  0  0  0
    8.1566   10.0536   16.0516 O   0  0  0  0  0  0  0  0  0  0  0  0
   12.4989    6.2074   20.1776 C   0  0  0  0  0  0  0  0  0  0  0  0
    6.9192    9.1053   20.9073 O   0  0  0  0  0  0  0  0  0  0  0  0
   14.3979    6.0729   18.7784 C   0  0  0  0  0  0  0  0  0  0  0  0
    8.6811    9.5354   16.9998 C   0  0  0  0  0  0  0  0  0  0  0  0
    9.2512    4.2713   13.7653 O   0  0  0  0  0  0  0  0  0  0  0  0
    9.6495    8.6317   16.8332 N   0  0  0  0  0  0  0  0  0  0  0  0
    6.2934    8.6988   23.1988 O   0  0  0  0  0  0  0  0  0  0  0  0
    7.9806    8.6543   20.5437 C   0  0  0  0  0  0  0  0  0  0  0  0
   13.7270    5.7144   19.8610 O   0  0  0  0  0  0  0  0  0  0  0  0
    8.3351    5.5235   15.4478 C   0  0  0  0  0  0  0  0  0  0  0  0
    8.7700    7.8434   21.3915 C   0  0  0  0  0  0  0  0  0  0  0  0
   11.7856    6.8851   19.2401 C   0  0  0  0  0  0  0  0  0  0  0  0
   10.5281    7.4276   19.5649 C   0  0  0  0  0  0  0  0  0  0  0  0
   10.0256    7.2907   20.8484 C   0  0  0  0  0  0  0  0  0  0  0  0
    9.3113    5.3049   14.4911 C   0  0  0  0  0  0  0  0  0  0  0  0
    9.4607    7.5646   16.0139 C   0  0  0  0  0  0  0  0  0  0  0  0
   10.4192    7.3157   15.0955 C   0  0  0  0  0  0  0  0  0  0  0  0
   10.2489    6.4227   23.0218 N   0  0  0  0  0  0  0  0  0  0  0  0
    7.2472    8.0746   23.5050 C   0  0  0  0  0  0  0  0  0  0  0  0
    9.2051    6.9101   23.4604 C   0  0  0  0  0  0  0  0  0  0  0  0
   11.9646    6.0299   21.4251 C   0  0  0  0  0  0  0  0  0  0  0  0
  1  5  1  0
  1 13  1  0
  2 20  2  0
  2 28  1  0
  2 29  1  0
  3 19  4  0
  3 25  4  0
  4 23  4  0
  4 27  1  0
  4 30  4  0
  5 17  1  0
  6  8  1  0
  6 29  1  0
  7 24  4  0
  7 26  4  0
  8 28  1  0
  9 13  2  0
 10 18  1  0
 10 21  4  0
 10 30  4  0
 11 17  2  0
 12 18  1  0
 13 15  1  0
 14 24  1  0
 15 25  1  0
 16 28  2  0
 17 20  1  0
 19 24  4  0
 20 23  1  0
 21 22  4  0
 22 23  4  0
 25 26  4  0
 27 29  2  0
M  END
$$$$

 Created by Python create_sdf_string function

 30 33  0  0  0  0  0  0  0  0999 V2000
    8.3036    9.8571   18.4133 C   0  0  0  0  0  0  0  0  0  0  0  0
    8.3694    7.6612   22.6703 C   0  0  0  0  0  0  0  0  0  0  0  0
    8.4143    6.6863   16.2273 C   0  0  0  0  0  0  0  0  0  0  0  0
   10.7581    6.5674   21.7636 C   0  0  0  0  0  0  0  0  0  0  0  0
    8.4452    8.7960   19.2958 O   0  0  0  0  0  0  0  0  0  0  0  0
    8.7122    6.7842   24.8569 C   0  0  0  0  0  0  0  0  0  0  0  0
   10.3400    6.1726   14.3081 C   0  0  0  0  0  0  0  0  0  0  0  0
    7.4297    7.5873   24.8962 C   0  0  0  0  0  0  0  0  0  0  0  0
    8.1566   10.0536   16.0516 O   0  0  0  0  0  0  0  0  0  0  0  0
   12.4989    6.2074   20.1776 C   0  0  0  0  0  0  0  0  0  0  0  0
    6.9192    9.1053   20.9073 O   0  0  0  0  0  0  0  0  0  0  0  0
   14.3979    6.0729   18.7784 C   0  0  0  0  0  0  0  0  0  0  0  0
    8.6811    9.5354   16.9998 C   0  0  0  0  0  0  0  0  0  0  0  0
    9.2512    4.2713   13.7653 O   0  0  0  0  0  0  0  0  0  0  0  0
    9.6495    8.6317   16.8332 N   0  0  0  0  0  0  0  0  0  0  0  0
    6.2934    8.6988   23.1988 O   0  0  0  0  0  0  0  0  0  0  0  0
    7.9806    8.6543   20.5437 C   0  0  0  0  0  0  0  0  0  0  0  0
   13.7270    5.7144   19.8610 O   0  0  0  0  0  0  0  0  0  0  0  0
    8.3351    5.5235   15.4478 C   0  0  0  0  0  0  0  0  0  0  0  0
    8.7700    7.8434   21.3915 C   0  0  0  0  0  0  0  0  0  0  0  0
   11.7856    6.8851   19.2401 C   0  0  0  0  0  0  0  0  0  0  0  0
   10.5281    7.4276   19.5649 C   0  0  0  0  0  0  0  0  0  0  0  0
   10.0256    7.2907   20.8484 C   0  0  0  0  0  0  0  0  0  0  0  0
    9.3113    5.3049   14.4911 C   0  0  0  0  0  0  0  0  0  0  0  0
    9.4607    7.5646   16.0139 C   0  0  0  0  0  0  0  0  0  0  0  0
   10.4192    7.3157   15.0955 C   0  0  0  0  0  0  0  0  0  0  0  0
   10.2489    6.4227   23.0218 N   0  0  0  0  0  0  0  0  0  0  0  0
    7.2472    8.0746   23.5050 C   0  0  0  0  0  0  0  0  0  0  0  0
    9.2051    6.9101   23.4604 C   0  0  0  0  0  0  0  0  0  0  0  0
   11.9646    6.0299   21.4251 C   0  0  0  0  0  0  0  0  0  0  0  0
  1  5  1  0
  1 13  1  0
  2 20  2  0
  2 28  1  0
  2 29  1  0
  3 19  4  0
  3 25  4  0
  4 23  4  0
  4 27  1  0
  4 30  4  0
  5 17  1  0
  6  8  1  0
  6 29  1  0
  7 24  4  0
  7 26  4  0
  8 28  1  0
  9 13  2  0
 10 18  1  0
 10 21  4  0
 10 30  4  0
 11 17  2  0
 12 18  1  0
 13 15  1  0
 14 24  1  0
 15 25  1  0
 16 28  2  0
 17 20  1  0
 19 24  4  0
 20 23  1  0
 21 22  4  0
 22 23  4  0
 25 26  4  0
 27 29  2  0
M  END
$$$$

 Created by Python create_sdf_string function

 30 33  0  0  0  0  0  0  0  0999 V2000
    8.3036    9.8571   18.4133 C   0  0  0  0  0  0  0  0  0  0  0  0
    8.3694    7.6612   22.6703 C   0  0  0  0  0  0  0  0  0  0  0  0
    8.4143    6.6863   16.2273 C   0  0  0  0  0  0  0  0  0  0  0  0
   10.7581    6.5674   21.7636 C   0  0  0  0  0  0  0  0  0  0  0  0
    8.4452    8.7960   19.2958 O   0  0  0  0  0  0  0  0  0  0  0  0
    8.7122    6.7842   24.8569 C   0  0  0  0  0  0  0  0  0  0  0  0
   10.3400    6.1726   14.3081 C   0  0  0  0  0  0  0  0  0  0  0  0
    7.4297    7.5873   24.8962 C   0  0  0  0  0  0  0  0  0  0  0  0
    8.1566   10.0536   16.0516 O   0  0  0  0  0  0  0  0  0  0  0  0
   12.4989    6.2074   20.1776 C   0  0  0  0  0  0  0  0  0  0  0  0
    6.9192    9.1053   20.9073 O   0  0  0  0  0  0  0  0  0  0  0  0
   14.3979    6.0729   18.7784 C   0  0  0  0  0  0  0  0  0  0  0  0
    8.6811    9.5354   16.9998 C   0  0  0  0  0  0  0  0  0  0  0  0
    9.2512    4.2713   13.7653 O   0  0  0  0  0  0  0  0  0  0  0  0
    9.6495    8.6317   16.8332 N   0  0  0  0  0  0  0  0  0  0  0  0
    6.2934    8.6988   23.1988 O   0  0  0  0  0  0  0  0  0  0  0  0
    7.9806    8.6543   20.5437 C   0  0  0  0  0  0  0  0  0  0  0  0
   13.7270    5.7144   19.8610 O   0  0  0  0  0  0  0  0  0  0  0  0
    8.3351    5.5235   15.4478 C   0  0  0  0  0  0  0  0  0  0  0  0
    8.7700    7.8434   21.3915 C   0  0  0  0  0  0  0  0  0  0  0  0
   11.7856    6.8851   19.2401 C   0  0  0  0  0  0  0  0  0  0  0  0
   10.5281    7.4276   19.5649 C   0  0  0  0  0  0  0  0  0  0  0  0
   10.0256    7.2907   20.8484 C   0  0  0  0  0  0  0  0  0  0  0  0
    9.3113    5.3049   14.4911 C   0  0  0  0  0  0  0  0  0  0  0  0
    9.4607    7.5646   16.0139 C   0  0  0  0  0  0  0  0  0  0  0  0
   10.4192    7.3157   15.0955 C   0  0  0  0  0  0  0  0  0  0  0  0
   10.2489    6.4227   23.0218 N   0  0  0  0  0  0  0  0  0  0  0  0
    7.2472    8.0746   23.5050 C   0  0  0  0  0  0  0  0  0  0  0  0
    9.2051    6.9101   23.4604 C   0  0  0  0  0  0  0  0  0  0  0  0
   11.9646    6.0299   21.4251 C   0  0  0  0  0  0  0  0  0  0  0  0
  1  5  1  0
  1 13  1  0
  2 20  2  0
  2 28  1  0
  2 29  1  0
  3 19  4  0
  3 25  4  0
  4 23  4  0
  4 27  1  0
  4 30  4  0
  5 17  1  0
  6  8  1  0
  6 29  1  0
  7 24  4  0
  7 26  4  0
  8 28  1  0
  9 13  2  0
 10 18  1  0
 10 21  4  0
 10 30  4  0
 11 17  2  0
 12 18  1  0
 13 15  1  0
 14 24  1  0
 15 25  1  0
 16 28  2  0
 17 20  1  0
 19 24  4  0
 20 23  1  0
 21 22  4  0
 22 23  4  0
 25 26  4  0
 27 29  2  0
M  END
$$$$

 Created by Python create_sdf_string function

 30 33  0  0  0  0  0  0  0  0999 V2000
    8.3036    9.8571   18.4133 C   0  0  0  0  0  0  0  0  0  0  0  0
    8.3694    7.6612   22.6703 C   0  0  0  0  0  0  0  0  0  0  0  0
    8.4143    6.6863   16.2273 C   0  0  0  0  0  0  0  0  0  0  0  0
   10.7581    6.5674   21.7636 C   0  0  0  0  0  0  0  0  0  0  0  0
    8.4452    8.7960   19.2958 O   0  0  0  0  0  0  0  0  0  0  0  0
    8.7122    6.7842   24.8569 C   0  0  0  0  0  0  0  0  0  0  0  0
   10.3400    6.1726   14.3081 C   0  0  0  0  0  0  0  0  0  0  0  0
    7.4297    7.5873   24.8962 C   0  0  0  0  0  0  0  0  0  0  0  0
    8.1566   10.0536   16.0516 O   0  0  0  0  0  0  0  0  0  0  0  0
   12.4989    6.2074   20.1776 C   0  0  0  0  0  0  0  0  0  0  0  0
    6.9192    9.1053   20.9073 O   0  0  0  0  0  0  0  0  0  0  0  0
   14.3979    6.0729   18.7784 C   0  0  0  0  0  0  0  0  0  0  0  0
    8.6811    9.5354   16.9998 C   0  0  0  0  0  0  0  0  0  0  0  0
    9.2512    4.2713   13.7653 O   0  0  0  0  0  0  0  0  0  0  0  0
    9.6495    8.6317   16.8332 N   0  0  0  0  0  0  0  0  0  0  0  0
    6.2934    8.6988   23.1988 O   0  0  0  0  0  0  0  0  0  0  0  0
    7.9806    8.6543   20.5437 C   0  0  0  0  0  0  0  0  0  0  0  0
   13.7270    5.7144   19.8610 O   0  0  0  0  0  0  0  0  0  0  0  0
    8.3351    5.5235   15.4478 C   0  0  0  0  0  0  0  0  0  0  0  0
    8.7700    7.8434   21.3915 C   0  0  0  0  0  0  0  0  0  0  0  0
   11.7856    6.8851   19.2401 C   0  0  0  0  0  0  0  0  0  0  0  0
   10.5281    7.4276   19.5649 C   0  0  0  0  0  0  0  0  0  0  0  0
   10.0256    7.2907   20.8484 C   0  0  0  0  0  0  0  0  0  0  0  0
    9.3113    5.3049   14.4911 C   0  0  0  0  0  0  0  0  0  0  0  0
    9.4607    7.5646   16.0139 C   0  0  0  0  0  0  0  0  0  0  0  0
   10.4192    7.3157   15.0955 C   0  0  0  0  0  0  0  0  0  0  0  0
   10.2489    6.4227   23.0218 N   0  0  0  0  0  0  0  0  0  0  0  0
    7.2472    8.0746   23.5050 C   0  0  0  0  0  0  0  0  0  0  0  0
    9.2051    6.9101   23.4604 C   0  0  0  0  0  0  0  0  0  0  0  0
   11.9646    6.0299   21.4251 C   0  0  0  0  0  0  0  0  0  0  0  0
  1  5  1  0
  1 13  1  0
  2 20  2  0
  2 28  1  0
  2 29  1  0
  3 19  4  0
  3 25  4  0
  4 23  4  0
  4 27  1  0
  4 30  4  0
  5 17  1  0
  6  8  1  0
  6 29  1  0
  7 24  4  0
  7 26  4  0
  8 28  1  0
  9 13  2  0
 10 18  1  0
 10 21  4  0
 10 30  4  0
 11 17  2  0
 12 18  1  0
 13 15  1  0
 14 24  1  0
 15 25  1  0
 16 28  2  0
 17 20  1  0
 19 24  4  0
 20 23  1  0
 21 22  4  0
 22 23  4  0
 25 26  4  0
 27 29  2  0
M  END
$$$$

 Created by Python create_sdf_string function

 30 33  0  0  0  0  0  0  0  0999 V2000
    8.3036    9.8571   18.4133 C   0  0  0  0  0  0  0  0  0  0  0  0
    8.3694    7.6612   22.6703 C   0  0  0  0  0  0  0  0  0  0  0  0
    8.4143    6.6863   16.2273 C   0  0  0  0  0  0  0  0  0  0  0  0
   10.7581    6.5674   21.7636 C   0  0  0  0  0  0  0  0  0  0  0  0
    8.4452    8.7960   19.2958 O   0  0  0  0  0  0  0  0  0  0  0  0
    8.7122    6.7842   24.8569 C   0  0  0  0  0  0  0  0  0  0  0  0
   10.3400    6.1726   14.3081 C   0  0  0  0  0  0  0  0  0  0  0  0
    7.4297    7.5873   24.8962 C   0  0  0  0  0  0  0  0  0  0  0  0
    8.1566   10.0536   16.0516 O   0  0  0  0  0  0  0  0  0  0  0  0
   12.4989    6.2074   20.1776 C   0  0  0  0  0  0  0  0  0  0  0  0
    6.9192    9.1053   20.9073 O   0  0  0  0  0  0  0  0  0  0  0  0
   14.3979    6.0729   18.7784 C   0  0  0  0  0  0  0  0  0  0  0  0
    8.6811    9.5354   16.9998 C   0  0  0  0  0  0  0  0  0  0  0  0
    9.2512    4.2713   13.7653 O   0  0  0  0  0  0  0  0  0  0  0  0
    9.6495    8.6317   16.8332 N   0  0  0  0  0  0  0  0  0  0  0  0
    6.2934    8.6988   23.1988 O   0  0  0  0  0  0  0  0  0  0  0  0
    7.9806    8.6543   20.5437 C   0  0  0  0  0  0  0  0  0  0  0  0
   13.7270    5.7144   19.8610 O   0  0  0  0  0  0  0  0  0  0  0  0
    8.3351    5.5235   15.4478 C   0  0  0  0  0  0  0  0  0  0  0  0
    8.7700    7.8434   21.3915 C   0  0  0  0  0  0  0  0  0  0  0  0
   11.7856    6.8851   19.2401 C   0  0  0  0  0  0  0  0  0  0  0  0
   10.5281    7.4276   19.5649 C   0  0  0  0  0  0  0  0  0  0  0  0
   10.0256    7.2907   20.8484 C   0  0  0  0  0  0  0  0  0  0  0  0
    9.3113    5.3049   14.4911 C   0  0  0  0  0  0  0  0  0  0  0  0
    9.4607    7.5646   16.0139 C   0  0  0  0  0  0  0  0  0  0  0  0
   10.4192    7.3157   15.0955 C   0  0  0  0  0  0  0  0  0  0  0  0
   10.2489    6.4227   23.0218 N   0  0  0  0  0  0  0  0  0  0  0  0
    7.2472    8.0746   23.5050 C   0  0  0  0  0  0  0  0  0  0  0  0
    9.2051    6.9101   23.4604 C   0  0  0  0  0  0  0  0  0  0  0  0
   11.9646    6.0299   21.4251 C   0  0  0  0  0  0  0  0  0  0  0  0
  1  5  1  0
  1 13  1  0
  2 20  2  0
  2 28  1  0
  2 29  1  0
  3 19  4  0
  3 25  4  0
  4 23  4  0
  4 27  1  0
  4 30  4  0
  5 17  1  0
  6  8  1  0
  6 29  1  0
  7 24  4  0
  7 26  4  0
  8 28  1  0
  9 13  2  0
 10 18  1  0
 10 21  4  0
 10 30  4  0
 11 17  2  0
 12 18  1  0
 13 15  1  0
 14 24  1  0
 15 25  1  0
 16 28  2  0
 17 20  1  0
 19 24  4  0
 20 23  1  0
 21 22  4  0
 22 23  4  0
 25 26  4  0
 27 29  2  0
M  END
$$$$

 Created by Python create_sdf_string function

 30 33  0  0  0  0  0  0  0  0999 V2000
    8.3036    9.8571   18.4133 C   0  0  0  0  0  0  0  0  0  0  0  0
    8.3694    7.6612   22.6703 C   0  0  0  0  0  0  0  0  0  0  0  0
    8.4143    6.6863   16.2273 C   0  0  0  0  0  0  0  0  0  0  0  0
   10.7581    6.5674   21.7636 C   0  0  0  0  0  0  0  0  0  0  0  0
    8.4452    8.7960   19.2958 O   0  0  0  0  0  0  0  0  0  0  0  0
    8.7122    6.7842   24.8569 C   0  0  0  0  0  0  0  0  0  0  0  0
   10.3400    6.1726   14.3081 C   0  0  0  0  0  0  0  0  0  0  0  0
    7.4297    7.5873   24.8962 C   0  0  0  0  0  0  0  0  0  0  0  0
    8.1566   10.0536   16.0516 O   0  0  0  0  0  0  0  0  0  0  0  0
   12.4989    6.2074   20.1776 C   0  0  0  0  0  0  0  0  0  0  0  0
    6.9192    9.1053   20.9073 O   0  0  0  0  0  0  0  0  0  0  0  0
   14.3979    6.0729   18.7784 C   0  0  0  0  0  0  0  0  0  0  0  0
    8.6811    9.5354   16.9998 C   0  0  0  0  0  0  0  0  0  0  0  0
    9.2512    4.2713   13.7653 O   0  0  0  0  0  0  0  0  0  0  0  0
    9.6495    8.6317   16.8332 N   0  0  0  0  0  0  0  0  0  0  0  0
    6.2934    8.6988   23.1988 O   0  0  0  0  0  0  0  0  0  0  0  0
    7.9806    8.6543   20.5437 C   0  0  0  0  0  0  0  0  0  0  0  0
   13.7270    5.7144   19.8610 O   0  0  0  0  0  0  0  0  0  0  0  0
    8.3351    5.5235   15.4478 C   0  0  0  0  0  0  0  0  0  0  0  0
    8.7700    7.8434   21.3915 C   0  0  0  0  0  0  0  0  0  0  0  0
   11.7856    6.8851   19.2401 C   0  0  0  0  0  0  0  0  0  0  0  0
   10.5281    7.4276   19.5649 C   0  0  0  0  0  0  0  0  0  0  0  0
   10.0256    7.2907   20.8484 C   0  0  0  0  0  0  0  0  0  0  0  0
    9.3113    5.3049   14.4911 C   0  0  0  0  0  0  0  0  0  0  0  0
    9.4607    7.5646   16.0139 C   0  0  0  0  0  0  0  0  0  0  0  0
   10.4192    7.3157   15.0955 C   0  0  0  0  0  0  0  0  0  0  0  0
   10.2489    6.4227   23.0218 N   0  0  0  0  0  0  0  0  0  0  0  0
    7.2472    8.0746   23.5050 C   0  0  0  0  0  0  0  0  0  0  0  0
    9.2051    6.9101   23.4604 C   0  0  0  0  0  0  0  0  0  0  0  0
   11.9646    6.0299   21.4251 C   0  0  0  0  0  0  0  0  0  0  0  0
  1  5  1  0
  1 13  1  0
  2 20  2  0
  2 28  1  0
  2 29  1  0
  3 19  4  0
  3 25  4  0
  4 23  4  0
  4 27  1  0
  4 30  4  0
  5 17  1  0
  6  8  1  0
  6 29  1  0
  7 24  4  0
  7 26  4  0
  8 28  1  0
  9 13  2  0
 10 18  1  0
 10 21  4  0
 10 30  4  0
 11 17  2  0
 12 18  1  0
 13 15  1  0
 14 24  1  0
 15 25  1  0
 16 28  2  0
 17 20  1  0
 19 24  4  0
 20 23  1  0
 21 22  4  0
 22 23  4  0
 25 26  4  0
 27 29  2  0
M  END
$$$$

 Created by Python create_sdf_string function

 30 33  0  0  0  0  0  0  0  0999 V2000
    8.3036    9.8571   18.4133 C   0  0  0  0  0  0  0  0  0  0  0  0
    8.3694    7.6612   22.6703 C   0  0  0  0  0  0  0  0  0  0  0  0
    8.4143    6.6863   16.2273 C   0  0  0  0  0  0  0  0  0  0  0  0
   10.7581    6.5674   21.7636 C   0  0  0  0  0  0  0  0  0  0  0  0
    8.4452    8.7960   19.2958 O   0  0  0  0  0  0  0  0  0  0  0  0
    8.7122    6.7842   24.8569 C   0  0  0  0  0  0  0  0  0  0  0  0
   10.3400    6.1726   14.3081 C   0  0  0  0  0  0  0  0  0  0  0  0
    7.4297    7.5873   24.8962 C   0  0  0  0  0  0  0  0  0  0  0  0
    8.1566   10.0536   16.0516 O   0  0  0  0  0  0  0  0  0  0  0  0
   12.4989    6.2074   20.1776 C   0  0  0  0  0  0  0  0  0  0  0  0
    6.9192    9.1053   20.9073 O   0  0  0  0  0  0  0  0  0  0  0  0
   14.3979    6.0729   18.7784 C   0  0  0  0  0  0  0  0  0  0  0  0
    8.6811    9.5354   16.9998 C   0  0  0  0  0  0  0  0  0  0  0  0
    9.2512    4.2713   13.7653 O   0  0  0  0  0  0  0  0  0  0  0  0
    9.6495    8.6317   16.8332 N   0  0  0  0  0  0  0  0  0  0  0  0
    6.2934    8.6988   23.1988 O   0  0  0  0  0  0  0  0  0  0  0  0
    7.9806    8.6543   20.5437 C   0  0  0  0  0  0  0  0  0  0  0  0
   13.7270    5.7144   19.8610 O   0  0  0  0  0  0  0  0  0  0  0  0
    8.3351    5.5235   15.4478 C   0  0  0  0  0  0  0  0  0  0  0  0
    8.7700    7.8434   21.3915 C   0  0  0  0  0  0  0  0  0  0  0  0
   11.7856    6.8851   19.2401 C   0  0  0  0  0  0  0  0  0  0  0  0
   10.5281    7.4276   19.5649 C   0  0  0  0  0  0  0  0  0  0  0  0
   10.0256    7.2907   20.8484 C   0  0  0  0  0  0  0  0  0  0  0  0
    9.3113    5.3049   14.4911 C   0  0  0  0  0  0  0  0  0  0  0  0
    9.4607    7.5646   16.0139 C   0  0  0  0  0  0  0  0  0  0  0  0
   10.4192    7.3157   15.0955 C   0  0  0  0  0  0  0  0  0  0  0  0
   10.2489    6.4227   23.0218 N   0  0  0  0  0  0  0  0  0  0  0  0
    7.2472    8.0746   23.5050 C   0  0  0  0  0  0  0  0  0  0  0  0
    9.2051    6.9101   23.4604 C   0  0  0  0  0  0  0  0  0  0  0  0
   11.9646    6.0299   21.4251 C   0  0  0  0  0  0  0  0  0  0  0  0
  1  5  1  0
  1 13  1  0
  2 20  2  0
  2 28  1  0
  2 29  1  0
  3 19  4  0
  3 25  4  0
  4 23  4  0
  4 27  1  0
  4 30  4  0
  5 17  1  0
  6  8  1  0
  6 29  1  0
  7 24  4  0
  7 26  4  0
  8 28  1  0
  9 13  2  0
 10 18  1  0
 10 21  4  0
 10 30  4  0
 11 17  2  0
 12 18  1  0
 13 15  1  0
 14 24  1  0
 15 25  1  0
 16 28  2  0
 17 20  1  0
 19 24  4  0
 20 23  1  0
 21 22  4  0
 22 23  4  0
 25 26  4  0
 27 29  2  0
M  END
$$$$

 Created by Python create_sdf_string function

 30 33  0  0  0  0  0  0  0  0999 V2000
    8.3036    9.8571   18.4133 C   0  0  0  0  0  0  0  0  0  0  0  0
    8.3694    7.6612   22.6703 C   0  0  0  0  0  0  0  0  0  0  0  0
    8.4143    6.6863   16.2273 C   0  0  0  0  0  0  0  0  0  0  0  0
   10.7581    6.5674   21.7636 C   0  0  0  0  0  0  0  0  0  0  0  0
    8.4452    8.7960   19.2958 O   0  0  0  0  0  0  0  0  0  0  0  0
    8.7122    6.7842   24.8569 C   0  0  0  0  0  0  0  0  0  0  0  0
   10.3400    6.1726   14.3081 C   0  0  0  0  0  0  0  0  0  0  0  0
    7.4297    7.5873   24.8962 C   0  0  0  0  0  0  0  0  0  0  0  0
    8.1566   10.0536   16.0516 O   0  0  0  0  0  0  0  0  0  0  0  0
   12.4989    6.2074   20.1776 C   0  0  0  0  0  0  0  0  0  0  0  0
    6.9192    9.1053   20.9073 O   0  0  0  0  0  0  0  0  0  0  0  0
   14.3979    6.0729   18.7784 C   0  0  0  0  0  0  0  0  0  0  0  0
    8.6811    9.5354   16.9998 C   0  0  0  0  0  0  0  0  0  0  0  0
    9.2512    4.2713   13.7653 O   0  0  0  0  0  0  0  0  0  0  0  0
    9.6495    8.6317   16.8332 N   0  0  0  0  0  0  0  0  0  0  0  0
    6.2934    8.6988   23.1988 O   0  0  0  0  0  0  0  0  0  0  0  0
    7.9806    8.6543   20.5437 C   0  0  0  0  0  0  0  0  0  0  0  0
   13.7270    5.7144   19.8610 O   0  0  0  0  0  0  0  0  0  0  0  0
    8.3351    5.5235   15.4478 C   0  0  0  0  0  0  0  0  0  0  0  0
    8.7700    7.8434   21.3915 C   0  0  0  0  0  0  0  0  0  0  0  0
   11.7856    6.8851   19.2401 C   0  0  0  0  0  0  0  0  0  0  0  0
   10.5281    7.4276   19.5649 C   0  0  0  0  0  0  0  0  0  0  0  0
   10.0256    7.2907   20.8484 C   0  0  0  0  0  0  0  0  0  0  0  0
    9.3113    5.3049   14.4911 C   0  0  0  0  0  0  0  0  0  0  0  0
    9.4607    7.5646   16.0139 C   0  0  0  0  0  0  0  0  0  0  0  0
   10.4192    7.3157   15.0955 C   0  0  0  0  0  0  0  0  0  0  0  0
   10.2489    6.4227   23.0218 N   0  0  0  0  0  0  0  0  0  0  0  0
    7.2472    8.0746   23.5050 C   0  0  0  0  0  0  0  0  0  0  0  0
    9.2051    6.9101   23.4604 C   0  0  0  0  0  0  0  0  0  0  0  0
   11.9646    6.0299   21.4251 C   0  0  0  0  0  0  0  0  0  0  0  0
  1  5  1  0
  1 13  1  0
  2 20  2  0
  2 28  1  0
  2 29  1  0
  3 19  4  0
  3 25  4  0
  4 23  4  0
  4 27  1  0
  4 30  4  0
  5 17  1  0
  6  8  1  0
  6 29  1  0
  7 24  4  0
  7 26  4  0
  8 28  1  0
  9 13  2  0
 10 18  1  0
 10 21  4  0
 10 30  4  0
 11 17  2  0
 12 18  1  0
 13 15  1  0
 14 24  1  0
 15 25  1  0
 16 28  2  0
 17 20  1  0
 19 24  4  0
 20 23  1  0
 21 22  4  0
 22 23  4  0
 25 26  4  0
 27 29  2  0
M  END
$$$$

 Created by Python create_sdf_string function

 30 33  0  0  0  0  0  0  0  0999 V2000
    8.3036    9.8571   18.4133 C   0  0  0  0  0  0  0  0  0  0  0  0
    8.3694    7.6612   22.6703 C   0  0  0  0  0  0  0  0  0  0  0  0
    8.4143    6.6863   16.2273 C   0  0  0  0  0  0  0  0  0  0  0  0
   10.7581    6.5674   21.7636 C   0  0  0  0  0  0  0  0  0  0  0  0
    8.4452    8.7960   19.2958 O   0  0  0  0  0  0  0  0  0  0  0  0
    8.7122    6.7842   24.8569 C   0  0  0  0  0  0  0  0  0  0  0  0
   10.3400    6.1726   14.3081 C   0  0  0  0  0  0  0  0  0  0  0  0
    7.4297    7.5873   24.8962 C   0  0  0  0  0  0  0  0  0  0  0  0
    8.1566   10.0536   16.0516 O   0  0  0  0  0  0  0  0  0  0  0  0
   12.4989    6.2074   20.1776 C   0  0  0  0  0  0  0  0  0  0  0  0
    6.9192    9.1053   20.9073 O   0  0  0  0  0  0  0  0  0  0  0  0
   14.3979    6.0729   18.7784 C   0  0  0  0  0  0  0  0  0  0  0  0
    8.6811    9.5354   16.9998 C   0  0  0  0  0  0  0  0  0  0  0  0
    9.2512    4.2713   13.7653 O   0  0  0  0  0  0  0  0  0  0  0  0
    9.6495    8.6317   16.8332 N   0  0  0  0  0  0  0  0  0  0  0  0
    6.2934    8.6988   23.1988 O   0  0  0  0  0  0  0  0  0  0  0  0
    7.9806    8.6543   20.5437 C   0  0  0  0  0  0  0  0  0  0  0  0
   13.7270    5.7144   19.8610 O   0  0  0  0  0  0  0  0  0  0  0  0
    8.3351    5.5235   15.4478 C   0  0  0  0  0  0  0  0  0  0  0  0
    8.7700    7.8434   21.3915 C   0  0  0  0  0  0  0  0  0  0  0  0
   11.7856    6.8851   19.2401 C   0  0  0  0  0  0  0  0  0  0  0  0
   10.5281    7.4276   19.5649 C   0  0  0  0  0  0  0  0  0  0  0  0
   10.0256    7.2907   20.8484 C   0  0  0  0  0  0  0  0  0  0  0  0
    9.3113    5.3049   14.4911 C   0  0  0  0  0  0  0  0  0  0  0  0
    9.4607    7.5646   16.0139 C   0  0  0  0  0  0  0  0  0  0  0  0
   10.4192    7.3157   15.0955 C   0  0  0  0  0  0  0  0  0  0  0  0
   10.2489    6.4227   23.0218 N   0  0  0  0  0  0  0  0  0  0  0  0
    7.2472    8.0746   23.5050 C   0  0  0  0  0  0  0  0  0  0  0  0
    9.2051    6.9101   23.4604 C   0  0  0  0  0  0  0  0  0  0  0  0
   11.9646    6.0299   21.4251 C   0  0  0  0  0  0  0  0  0  0  0  0
  1  5  1  0
  1 13  1  0
  2 20  2  0
  2 28  1  0
  2 29  1  0
  3 19  4  0
  3 25  4  0
  4 23  4  0
  4 27  1  0
  4 30  4  0
  5 17  1  0
  6  8  1  0
  6 29  1  0
  7 24  4  0
  7 26  4  0
  8 28  1  0
  9 13  2  0
 10 18  1  0
 10 21  4  0
 10 30  4  0
 11 17  2  0
 12 18  1  0
 13 15  1  0
 14 24  1  0
 15 25  1  0
 16 28  2  0
 17 20  1  0
 19 24  4  0
 20 23  1  0
 21 22  4  0
 22 23  4  0
 25 26  4  0
 27 29  2  0
M  END
$$$$

 Created by Python create_sdf_string function

 30 33  0  0  0  0  0  0  0  0999 V2000
    8.3036    9.8571   18.4133 C   0  0  0  0  0  0  0  0  0  0  0  0
    8.3694    7.6612   22.6703 C   0  0  0  0  0  0  0  0  0  0  0  0
    8.4143    6.6863   16.2273 C   0  0  0  0  0  0  0  0  0  0  0  0
   10.7581    6.5674   21.7636 C   0  0  0  0  0  0  0  0  0  0  0  0
    8.4452    8.7960   19.2958 O   0  0  0  0  0  0  0  0  0  0  0  0
    8.7122    6.7842   24.8569 C   0  0  0  0  0  0  0  0  0  0  0  0
   10.3400    6.1726   14.3081 C   0  0  0  0  0  0  0  0  0  0  0  0
    7.4297    7.5873   24.8962 C   0  0  0  0  0  0  0  0  0  0  0  0
    8.1566   10.0536   16.0516 O   0  0  0  0  0  0  0  0  0  0  0  0
   12.4989    6.2074   20.1776 C   0  0  0  0  0  0  0  0  0  0  0  0
    6.9192    9.1053   20.9073 O   0  0  0  0  0  0  0  0  0  0  0  0
   14.3979    6.0729   18.7784 C   0  0  0  0  0  0  0  0  0  0  0  0
    8.6811    9.5354   16.9998 C   0  0  0  0  0  0  0  0  0  0  0  0
    9.2512    4.2713   13.7653 O   0  0  0  0  0  0  0  0  0  0  0  0
    9.6495    8.6317   16.8332 N   0  0  0  0  0  0  0  0  0  0  0  0
    6.2934    8.6988   23.1988 O   0  0  0  0  0  0  0  0  0  0  0  0
    7.9806    8.6543   20.5437 C   0  0  0  0  0  0  0  0  0  0  0  0
   13.7270    5.7144   19.8610 O   0  0  0  0  0  0  0  0  0  0  0  0
    8.3351    5.5235   15.4478 C   0  0  0  0  0  0  0  0  0  0  0  0
    8.7700    7.8434   21.3915 C   0  0  0  0  0  0  0  0  0  0  0  0
   11.7856    6.8851   19.2401 C   0  0  0  0  0  0  0  0  0  0  0  0
   10.5281    7.4276   19.5649 C   0  0  0  0  0  0  0  0  0  0  0  0
   10.0256    7.2907   20.8484 C   0  0  0  0  0  0  0  0  0  0  0  0
    9.3113    5.3049   14.4911 C   0  0  0  0  0  0  0  0  0  0  0  0
    9.4607    7.5646   16.0139 C   0  0  0  0  0  0  0  0  0  0  0  0
   10.4192    7.3157   15.0955 C   0  0  0  0  0  0  0  0  0  0  0  0
   10.2489    6.4227   23.0218 N   0  0  0  0  0  0  0  0  0  0  0  0
    7.2472    8.0746   23.5050 C   0  0  0  0  0  0  0  0  0  0  0  0
    9.2051    6.9101   23.4604 C   0  0  0  0  0  0  0  0  0  0  0  0
   11.9646    6.0299   21.4251 C   0  0  0  0  0  0  0  0  0  0  0  0
  1  5  1  0
  1 13  1  0
  2 20  2  0
  2 28  1  0
  2 29  1  0
  3 19  4  0
  3 25  4  0
  4 23  4  0
  4 27  1  0
  4 30  4  0
  5 17  1  0
  6  8  1  0
  6 29  1  0
  7 24  4  0
  7 26  4  0
  8 28  1  0
  9 13  2  0
 10 18  1  0
 10 21  4  0
 10 30  4  0
 11 17  2  0
 12 18  1  0
 13 15  1  0
 14 24  1  0
 15 25  1  0
 16 28  2  0
 17 20  1  0
 19 24  4  0
 20 23  1  0
 21 22  4  0
 22 23  4  0
 25 26  4  0
 27 29  2  0
M  END
$$$$

 Created by Python create_sdf_string function

 30 33  0  0  0  0  0  0  0  0999 V2000
    8.3036    9.8571   18.4133 C   0  0  0  0  0  0  0  0  0  0  0  0
    8.3694    7.6612   22.6703 C   0  0  0  0  0  0  0  0  0  0  0  0
    8.4143    6.6863   16.2273 C   0  0  0  0  0  0  0  0  0  0  0  0
   10.7581    6.5674   21.7636 C   0  0  0  0  0  0  0  0  0  0  0  0
    8.4452    8.7960   19.2958 O   0  0  0  0  0  0  0  0  0  0  0  0
    8.7122    6.7842   24.8569 C   0  0  0  0  0  0  0  0  0  0  0  0
   10.3400    6.1726   14.3081 C   0  0  0  0  0  0  0  0  0  0  0  0
    7.4297    7.5873   24.8962 C   0  0  0  0  0  0  0  0  0  0  0  0
    8.1566   10.0536   16.0516 O   0  0  0  0  0  0  0  0  0  0  0  0
   12.4989    6.2074   20.1776 C   0  0  0  0  0  0  0  0  0  0  0  0
    6.9192    9.1053   20.9073 O   0  0  0  0  0  0  0  0  0  0  0  0
   14.3979    6.0729   18.7784 C   0  0  0  0  0  0  0  0  0  0  0  0
    8.6811    9.5354   16.9998 C   0  0  0  0  0  0  0  0  0  0  0  0
    9.2512    4.2713   13.7653 O   0  0  0  0  0  0  0  0  0  0  0  0
    9.6495    8.6317   16.8332 N   0  0  0  0  0  0  0  0  0  0  0  0
    6.2934    8.6988   23.1988 O   0  0  0  0  0  0  0  0  0  0  0  0
    7.9806    8.6543   20.5437 C   0  0  0  0  0  0  0  0  0  0  0  0
   13.7270    5.7144   19.8610 O   0  0  0  0  0  0  0  0  0  0  0  0
    8.3351    5.5235   15.4478 C   0  0  0  0  0  0  0  0  0  0  0  0
    8.7700    7.8434   21.3915 C   0  0  0  0  0  0  0  0  0  0  0  0
   11.7856    6.8851   19.2401 C   0  0  0  0  0  0  0  0  0  0  0  0
   10.5281    7.4276   19.5649 C   0  0  0  0  0  0  0  0  0  0  0  0
   10.0256    7.2907   20.8484 C   0  0  0  0  0  0  0  0  0  0  0  0
    9.3113    5.3049   14.4911 C   0  0  0  0  0  0  0  0  0  0  0  0
    9.4607    7.5646   16.0139 C   0  0  0  0  0  0  0  0  0  0  0  0
   10.4192    7.3157   15.0955 C   0  0  0  0  0  0  0  0  0  0  0  0
   10.2489    6.4227   23.0218 N   0  0  0  0  0  0  0  0  0  0  0  0
    7.2472    8.0746   23.5050 C   0  0  0  0  0  0  0  0  0  0  0  0
    9.2051    6.9101   23.4604 C   0  0  0  0  0  0  0  0  0  0  0  0
   11.9646    6.0299   21.4251 C   0  0  0  0  0  0  0  0  0  0  0  0
  1  5  1  0
  1 13  1  0
  2 20  2  0
  2 28  1  0
  2 29  1  0
  3 19  4  0
  3 25  4  0
  4 23  4  0
  4 27  1  0
  4 30  4  0
  5 17  1  0
  6  8  1  0
  6 29  1  0
  7 24  4  0
  7 26  4  0
  8 28  1  0
  9 13  2  0
 10 18  1  0
 10 21  4  0
 10 30  4  0
 11 17  2  0
 12 18  1  0
 13 15  1  0
 14 24  1  0
 15 25  1  0
 16 28  2  0
 17 20  1  0
 19 24  4  0
 20 23  1  0
 21 22  4  0
 22 23  4  0
 25 26  4  0
 27 29  2  0
M  END
$$$$

 Created by Python create_sdf_string function

 30 33  0  0  0  0  0  0  0  0999 V2000
    8.3036    9.8571   18.4133 C   0  0  0  0  0  0  0  0  0  0  0  0
    8.3694    7.6612   22.6703 C   0  0  0  0  0  0  0  0  0  0  0  0
    8.4143    6.6863   16.2273 C   0  0  0  0  0  0  0  0  0  0  0  0
   10.7581    6.5674   21.7636 C   0  0  0  0  0  0  0  0  0  0  0  0
    8.4452    8.7960   19.2958 O   0  0  0  0  0  0  0  0  0  0  0  0
    8.7122    6.7842   24.8569 C   0  0  0  0  0  0  0  0  0  0  0  0
   10.3400    6.1726   14.3081 C   0  0  0  0  0  0  0  0  0  0  0  0
    7.4297    7.5873   24.8962 C   0  0  0  0  0  0  0  0  0  0  0  0
    8.1566   10.0536   16.0516 O   0  0  0  0  0  0  0  0  0  0  0  0
   12.4989    6.2074   20.1776 C   0  0  0  0  0  0  0  0  0  0  0  0
    6.9192    9.1053   20.9073 O   0  0  0  0  0  0  0  0  0  0  0  0
   14.3979    6.0729   18.7784 C   0  0  0  0  0  0  0  0  0  0  0  0
    8.6811    9.5354   16.9998 C   0  0  0  0  0  0  0  0  0  0  0  0
    9.2512    4.2713   13.7653 O   0  0  0  0  0  0  0  0  0  0  0  0
    9.6495    8.6317   16.8332 N   0  0  0  0  0  0  0  0  0  0  0  0
    6.2934    8.6988   23.1988 O   0  0  0  0  0  0  0  0  0  0  0  0
    7.9806    8.6543   20.5437 C   0  0  0  0  0  0  0  0  0  0  0  0
   13.7270    5.7144   19.8610 O   0  0  0  0  0  0  0  0  0  0  0  0
    8.3351    5.5235   15.4478 C   0  0  0  0  0  0  0  0  0  0  0  0
    8.7700    7.8434   21.3915 C   0  0  0  0  0  0  0  0  0  0  0  0
   11.7856    6.8851   19.2401 C   0  0  0  0  0  0  0  0  0  0  0  0
   10.5281    7.4276   19.5649 C   0  0  0  0  0  0  0  0  0  0  0  0
   10.0256    7.2907   20.8484 C   0  0  0  0  0  0  0  0  0  0  0  0
    9.3113    5.3049   14.4911 C   0  0  0  0  0  0  0  0  0  0  0  0
    9.4607    7.5646   16.0139 C   0  0  0  0  0  0  0  0  0  0  0  0
   10.4192    7.3157   15.0955 C   0  0  0  0  0  0  0  0  0  0  0  0
   10.2489    6.4227   23.0218 N   0  0  0  0  0  0  0  0  0  0  0  0
    7.2472    8.0746   23.5050 C   0  0  0  0  0  0  0  0  0  0  0  0
    9.2051    6.9101   23.4604 C   0  0  0  0  0  0  0  0  0  0  0  0
   11.9646    6.0299   21.4251 C   0  0  0  0  0  0  0  0  0  0  0  0
  1  5  1  0
  1 13  1  0
  2 20  2  0
  2 28  1  0
  2 29  1  0
  3 19  4  0
  3 25  4  0
  4 23  4  0
  4 27  1  0
  4 30  4  0
  5 17  1  0
  6  8  1  0
  6 29  1  0
  7 24  4  0
  7 26  4  0
  8 28  1  0
  9 13  2  0
 10 18  1  0
 10 21  4  0
 10 30  4  0
 11 17  2  0
 12 18  1  0
 13 15  1  0
 14 24  1  0
 15 25  1  0
 16 28  2  0
 17 20  1  0
 19 24  4  0
 20 23  1  0
 21 22  4  0
 22 23  4  0
 25 26  4  0
 27 29  2  0
M  END
$$$$

 Created by Python create_sdf_string function

 30 33  0  0  0  0  0  0  0  0999 V2000
    8.3036    9.8571   18.4133 C   0  0  0  0  0  0  0  0  0  0  0  0
    8.3694    7.6612   22.6703 C   0  0  0  0  0  0  0  0  0  0  0  0
    8.4143    6.6863   16.2273 C   0  0  0  0  0  0  0  0  0  0  0  0
   10.7581    6.5674   21.7636 C   0  0  0  0  0  0  0  0  0  0  0  0
    8.4452    8.7960   19.2958 O   0  0  0  0  0  0  0  0  0  0  0  0
    8.7122    6.7842   24.8569 C   0  0  0  0  0  0  0  0  0  0  0  0
   10.3400    6.1726   14.3081 C   0  0  0  0  0  0  0  0  0  0  0  0
    7.4297    7.5873   24.8962 C   0  0  0  0  0  0  0  0  0  0  0  0
    8.1566   10.0536   16.0516 O   0  0  0  0  0  0  0  0  0  0  0  0
   12.4989    6.2074   20.1776 C   0  0  0  0  0  0  0  0  0  0  0  0
    6.9192    9.1053   20.9073 O   0  0  0  0  0  0  0  0  0  0  0  0
   14.3979    6.0729   18.7784 C   0  0  0  0  0  0  0  0  0  0  0  0
    8.6811    9.5354   16.9998 C   0  0  0  0  0  0  0  0  0  0  0  0
    9.2512    4.2713   13.7653 O   0  0  0  0  0  0  0  0  0  0  0  0
    9.6495    8.6317   16.8332 N   0  0  0  0  0  0  0  0  0  0  0  0
    6.2934    8.6988   23.1988 O   0  0  0  0  0  0  0  0  0  0  0  0
    7.9806    8.6543   20.5437 C   0  0  0  0  0  0  0  0  0  0  0  0
   13.7270    5.7144   19.8610 O   0  0  0  0  0  0  0  0  0  0  0  0
    8.3351    5.5235   15.4478 C   0  0  0  0  0  0  0  0  0  0  0  0
    8.7700    7.8434   21.3915 C   0  0  0  0  0  0  0  0  0  0  0  0
   11.7856    6.8851   19.2401 C   0  0  0  0  0  0  0  0  0  0  0  0
   10.5281    7.4276   19.5649 C   0  0  0  0  0  0  0  0  0  0  0  0
   10.0256    7.2907   20.8484 C   0  0  0  0  0  0  0  0  0  0  0  0
    9.3113    5.3049   14.4911 C   0  0  0  0  0  0  0  0  0  0  0  0
    9.4607    7.5646   16.0139 C   0  0  0  0  0  0  0  0  0  0  0  0
   10.4192    7.3157   15.0955 C   0  0  0  0  0  0  0  0  0  0  0  0
   10.2489    6.4227   23.0218 N   0  0  0  0  0  0  0  0  0  0  0  0
    7.2472    8.0746   23.5050 C   0  0  0  0  0  0  0  0  0  0  0  0
    9.2051    6.9101   23.4604 C   0  0  0  0  0  0  0  0  0  0  0  0
   11.9646    6.0299   21.4251 C   0  0  0  0  0  0  0  0  0  0  0  0
  1  5  1  0
  1 13  1  0
  2 20  2  0
  2 28  1  0
  2 29  1  0
  3 19  4  0
  3 25  4  0
  4 23  4  0
  4 27  1  0
  4 30  4  0
  5 17  1  0
  6  8  1  0
  6 29  1  0
  7 24  4  0
  7 26  4  0
  8 28  1  0
  9 13  2  0
 10 18  1  0
 10 21  4  0
 10 30  4  0
 11 17  2  0
 12 18  1  0
 13 15  1  0
 14 24  1  0
 15 25  1  0
 16 28  2  0
 17 20  1  0
 19 24  4  0
 20 23  1  0
 21 22  4  0
 22 23  4  0
 25 26  4  0
 27 29  2  0
M  END
$$$$

 Created by Python create_sdf_string function

 30 33  0  0  0  0  0  0  0  0999 V2000
    8.3036    9.8571   18.4133 C   0  0  0  0  0  0  0  0  0  0  0  0
    8.3694    7.6612   22.6703 C   0  0  0  0  0  0  0  0  0  0  0  0
    8.4143    6.6863   16.2273 C   0  0  0  0  0  0  0  0  0  0  0  0
   10.7581    6.5674   21.7636 C   0  0  0  0  0  0  0  0  0  0  0  0
    8.4452    8.7960   19.2958 O   0  0  0  0  0  0  0  0  0  0  0  0
    8.7122    6.7842   24.8569 C   0  0  0  0  0  0  0  0  0  0  0  0
   10.3400    6.1726   14.3081 C   0  0  0  0  0  0  0  0  0  0  0  0
    7.4297    7.5873   24.8962 C   0  0  0  0  0  0  0  0  0  0  0  0
    8.1566   10.0536   16.0516 O   0  0  0  0  0  0  0  0  0  0  0  0
   12.4989    6.2074   20.1776 C   0  0  0  0  0  0  0  0  0  0  0  0
    6.9192    9.1053   20.9073 O   0  0  0  0  0  0  0  0  0  0  0  0
   14.3979    6.0729   18.7784 C   0  0  0  0  0  0  0  0  0  0  0  0
    8.6811    9.5354   16.9998 C   0  0  0  0  0  0  0  0  0  0  0  0
    9.2512    4.2713   13.7653 O   0  0  0  0  0  0  0  0  0  0  0  0
    9.6495    8.6317   16.8332 N   0  0  0  0  0  0  0  0  0  0  0  0
    6.2934    8.6988   23.1988 O   0  0  0  0  0  0  0  0  0  0  0  0
    7.9806    8.6543   20.5437 C   0  0  0  0  0  0  0  0  0  0  0  0
   13.7270    5.7144   19.8610 O   0  0  0  0  0  0  0  0  0  0  0  0
    8.3351    5.5235   15.4478 C   0  0  0  0  0  0  0  0  0  0  0  0
    8.7700    7.8434   21.3915 C   0  0  0  0  0  0  0  0  0  0  0  0
   11.7856    6.8851   19.2401 C   0  0  0  0  0  0  0  0  0  0  0  0
   10.5281    7.4276   19.5649 C   0  0  0  0  0  0  0  0  0  0  0  0
   10.0256    7.2907   20.8484 C   0  0  0  0  0  0  0  0  0  0  0  0
    9.3113    5.3049   14.4911 C   0  0  0  0  0  0  0  0  0  0  0  0
    9.4607    7.5646   16.0139 C   0  0  0  0  0  0  0  0  0  0  0  0
   10.4192    7.3157   15.0955 C   0  0  0  0  0  0  0  0  0  0  0  0
   10.2489    6.4227   23.0218 N   0  0  0  0  0  0  0  0  0  0  0  0
    7.2472    8.0746   23.5050 C   0  0  0  0  0  0  0  0  0  0  0  0
    9.2051    6.9101   23.4604 C   0  0  0  0  0  0  0  0  0  0  0  0
   11.9646    6.0299   21.4251 C   0  0  0  0  0  0  0  0  0  0  0  0
  1  5  1  0
  1 13  1  0
  2 20  2  0
  2 28  1  0
  2 29  1  0
  3 19  4  0
  3 25  4  0
  4 23  4  0
  4 27  1  0
  4 30  4  0
  5 17  1  0
  6  8  1  0
  6 29  1  0
  7 24  4  0
  7 26  4  0
  8 28  1  0
  9 13  2  0
 10 18  1  0
 10 21  4  0
 10 30  4  0
 11 17  2  0
 12 18  1  0
 13 15  1  0
 14 24  1  0
 15 25  1  0
 16 28  2  0
 17 20  1  0
 19 24  4  0
 20 23  1  0
 21 22  4  0
 22 23  4  0
 25 26  4  0
 27 29  2  0
M  END
$$$$

 Created by Python create_sdf_string function

 30 33  0  0  0  0  0  0  0  0999 V2000
    8.3036    9.8571   18.4133 C   0  0  0  0  0  0  0  0  0  0  0  0
    8.3694    7.6612   22.6703 C   0  0  0  0  0  0  0  0  0  0  0  0
    8.4143    6.6863   16.2273 C   0  0  0  0  0  0  0  0  0  0  0  0
   10.7581    6.5674   21.7636 C   0  0  0  0  0  0  0  0  0  0  0  0
    8.4452    8.7960   19.2958 O   0  0  0  0  0  0  0  0  0  0  0  0
    8.7122    6.7842   24.8569 C   0  0  0  0  0  0  0  0  0  0  0  0
   10.3400    6.1726   14.3081 C   0  0  0  0  0  0  0  0  0  0  0  0
    7.4297    7.5873   24.8962 C   0  0  0  0  0  0  0  0  0  0  0  0
    8.1566   10.0536   16.0516 O   0  0  0  0  0  0  0  0  0  0  0  0
   12.4989    6.2074   20.1776 C   0  0  0  0  0  0  0  0  0  0  0  0
    6.9192    9.1053   20.9073 O   0  0  0  0  0  0  0  0  0  0  0  0
   14.3979    6.0729   18.7784 C   0  0  0  0  0  0  0  0  0  0  0  0
    8.6811    9.5354   16.9998 C   0  0  0  0  0  0  0  0  0  0  0  0
    9.2512    4.2713   13.7653 O   0  0  0  0  0  0  0  0  0  0  0  0
    9.6495    8.6317   16.8332 N   0  0  0  0  0  0  0  0  0  0  0  0
    6.2934    8.6988   23.1988 O   0  0  0  0  0  0  0  0  0  0  0  0
    7.9806    8.6543   20.5437 C   0  0  0  0  0  0  0  0  0  0  0  0
   13.7270    5.7144   19.8610 O   0  0  0  0  0  0  0  0  0  0  0  0
    8.3351    5.5235   15.4478 C   0  0  0  0  0  0  0  0  0  0  0  0
    8.7700    7.8434   21.3915 C   0  0  0  0  0  0  0  0  0  0  0  0
   11.7856    6.8851   19.2401 C   0  0  0  0  0  0  0  0  0  0  0  0
   10.5281    7.4276   19.5649 C   0  0  0  0  0  0  0  0  0  0  0  0
   10.0256    7.2907   20.8484 C   0  0  0  0  0  0  0  0  0  0  0  0
    9.3113    5.3049   14.4911 C   0  0  0  0  0  0  0  0  0  0  0  0
    9.4607    7.5646   16.0139 C   0  0  0  0  0  0  0  0  0  0  0  0
   10.4192    7.3157   15.0955 C   0  0  0  0  0  0  0  0  0  0  0  0
   10.2489    6.4227   23.0218 N   0  0  0  0  0  0  0  0  0  0  0  0
    7.2472    8.0746   23.5050 C   0  0  0  0  0  0  0  0  0  0  0  0
    9.2051    6.9101   23.4604 C   0  0  0  0  0  0  0  0  0  0  0  0
   11.9646    6.0299   21.4251 C   0  0  0  0  0  0  0  0  0  0  0  0
  1  5  1  0
  1 13  1  0
  2 20  2  0
  2 28  1  0
  2 29  1  0
  3 19  4  0
  3 25  4  0
  4 23  4  0
  4 27  1  0
  4 30  4  0
  5 17  1  0
  6  8  1  0
  6 29  1  0
  7 24  4  0
  7 26  4  0
  8 28  1  0
  9 13  2  0
 10 18  1  0
 10 21  4  0
 10 30  4  0
 11 17  2  0
 12 18  1  0
 13 15  1  0
 14 24  1  0
 15 25  1  0
 16 28  2  0
 17 20  1  0
 19 24  4  0
 20 23  1  0
 21 22  4  0
 22 23  4  0
 25 26  4  0
 27 29  2  0
M  END
$$$$

 Created by Python create_sdf_string function

 30 33  0  0  0  0  0  0  0  0999 V2000
    8.3036    9.8571   18.4133 C   0  0  0  0  0  0  0  0  0  0  0  0
    8.3694    7.6612   22.6703 C   0  0  0  0  0  0  0  0  0  0  0  0
    8.4143    6.6863   16.2273 C   0  0  0  0  0  0  0  0  0  0  0  0
   10.7581    6.5674   21.7636 C   0  0  0  0  0  0  0  0  0  0  0  0
    8.4452    8.7960   19.2958 O   0  0  0  0  0  0  0  0  0  0  0  0
    8.7122    6.7842   24.8569 C   0  0  0  0  0  0  0  0  0  0  0  0
   10.3400    6.1726   14.3081 C   0  0  0  0  0  0  0  0  0  0  0  0
    7.4297    7.5873   24.8962 C   0  0  0  0  0  0  0  0  0  0  0  0
    8.1566   10.0536   16.0516 O   0  0  0  0  0  0  0  0  0  0  0  0
   12.4989    6.2074   20.1776 C   0  0  0  0  0  0  0  0  0  0  0  0
    6.9192    9.1053   20.9073 O   0  0  0  0  0  0  0  0  0  0  0  0
   14.3979    6.0729   18.7784 C   0  0  0  0  0  0  0  0  0  0  0  0
    8.6811    9.5354   16.9998 C   0  0  0  0  0  0  0  0  0  0  0  0
    9.2512    4.2713   13.7653 O   0  0  0  0  0  0  0  0  0  0  0  0
    9.6495    8.6317   16.8332 N   0  0  0  0  0  0  0  0  0  0  0  0
    6.2934    8.6988   23.1988 O   0  0  0  0  0  0  0  0  0  0  0  0
    7.9806    8.6543   20.5437 C   0  0  0  0  0  0  0  0  0  0  0  0
   13.7270    5.7144   19.8610 O   0  0  0  0  0  0  0  0  0  0  0  0
    8.3351    5.5235   15.4478 C   0  0  0  0  0  0  0  0  0  0  0  0
    8.7700    7.8434   21.3915 C   0  0  0  0  0  0  0  0  0  0  0  0
   11.7856    6.8851   19.2401 C   0  0  0  0  0  0  0  0  0  0  0  0
   10.5281    7.4276   19.5649 C   0  0  0  0  0  0  0  0  0  0  0  0
   10.0256    7.2907   20.8484 C   0  0  0  0  0  0  0  0  0  0  0  0
    9.3113    5.3049   14.4911 C   0  0  0  0  0  0  0  0  0  0  0  0
    9.4607    7.5646   16.0139 C   0  0  0  0  0  0  0  0  0  0  0  0
   10.4192    7.3157   15.0955 C   0  0  0  0  0  0  0  0  0  0  0  0
   10.2489    6.4227   23.0218 N   0  0  0  0  0  0  0  0  0  0  0  0
    7.2472    8.0746   23.5050 C   0  0  0  0  0  0  0  0  0  0  0  0
    9.2051    6.9101   23.4604 C   0  0  0  0  0  0  0  0  0  0  0  0
   11.9646    6.0299   21.4251 C   0  0  0  0  0  0  0  0  0  0  0  0
  1  5  1  0
  1 13  1  0
  2 20  2  0
  2 28  1  0
  2 29  1  0
  3 19  4  0
  3 25  4  0
  4 23  4  0
  4 27  1  0
  4 30  4  0
  5 17  1  0
  6  8  1  0
  6 29  1  0
  7 24  4  0
  7 26  4  0
  8 28  1  0
  9 13  2  0
 10 18  1  0
 10 21  4  0
 10 30  4  0
 11 17  2  0
 12 18  1  0
 13 15  1  0
 14 24  1  0
 15 25  1  0
 16 28  2  0
 17 20  1  0
 19 24  4  0
 20 23  1  0
 21 22  4  0
 22 23  4  0
 25 26  4  0
 27 29  2  0
M  END
$$$$

 Created by Python create_sdf_string function

 30 33  0  0  0  0  0  0  0  0999 V2000
    8.3036    9.8571   18.4133 C   0  0  0  0  0  0  0  0  0  0  0  0
    8.3694    7.6612   22.6703 C   0  0  0  0  0  0  0  0  0  0  0  0
    8.4143    6.6863   16.2273 C   0  0  0  0  0  0  0  0  0  0  0  0
   10.7581    6.5674   21.7636 C   0  0  0  0  0  0  0  0  0  0  0  0
    8.4452    8.7960   19.2958 O   0  0  0  0  0  0  0  0  0  0  0  0
    8.7122    6.7842   24.8569 C   0  0  0  0  0  0  0  0  0  0  0  0
   10.3400    6.1726   14.3081 C   0  0  0  0  0  0  0  0  0  0  0  0
    7.4297    7.5873   24.8962 C   0  0  0  0  0  0  0  0  0  0  0  0
    8.1566   10.0536   16.0516 O   0  0  0  0  0  0  0  0  0  0  0  0
   12.4989    6.2074   20.1776 C   0  0  0  0  0  0  0  0  0  0  0  0
    6.9192    9.1053   20.9073 O   0  0  0  0  0  0  0  0  0  0  0  0
   14.3979    6.0729   18.7784 C   0  0  0  0  0  0  0  0  0  0  0  0
    8.6811    9.5354   16.9998 C   0  0  0  0  0  0  0  0  0  0  0  0
    9.2512    4.2713   13.7653 O   0  0  0  0  0  0  0  0  0  0  0  0
    9.6495    8.6317   16.8332 N   0  0  0  0  0  0  0  0  0  0  0  0
    6.2934    8.6988   23.1988 O   0  0  0  0  0  0  0  0  0  0  0  0
    7.9806    8.6543   20.5437 C   0  0  0  0  0  0  0  0  0  0  0  0
   13.7270    5.7144   19.8610 O   0  0  0  0  0  0  0  0  0  0  0  0
    8.3351    5.5235   15.4478 C   0  0  0  0  0  0  0  0  0  0  0  0
    8.7700    7.8434   21.3915 C   0  0  0  0  0  0  0  0  0  0  0  0
   11.7856    6.8851   19.2401 C   0  0  0  0  0  0  0  0  0  0  0  0
   10.5281    7.4276   19.5649 C   0  0  0  0  0  0  0  0  0  0  0  0
   10.0256    7.2907   20.8484 C   0  0  0  0  0  0  0  0  0  0  0  0
    9.3113    5.3049   14.4911 C   0  0  0  0  0  0  0  0  0  0  0  0
    9.4607    7.5646   16.0139 C   0  0  0  0  0  0  0  0  0  0  0  0
   10.4192    7.3157   15.0955 C   0  0  0  0  0  0  0  0  0  0  0  0
   10.2489    6.4227   23.0218 N   0  0  0  0  0  0  0  0  0  0  0  0
    7.2472    8.0746   23.5050 C   0  0  0  0  0  0  0  0  0  0  0  0
    9.2051    6.9101   23.4604 C   0  0  0  0  0  0  0  0  0  0  0  0
   11.9646    6.0299   21.4251 C   0  0  0  0  0  0  0  0  0  0  0  0
  1  5  1  0
  1 13  1  0
  2 20  2  0
  2 28  1  0
  2 29  1  0
  3 19  4  0
  3 25  4  0
  4 23  4  0
  4 27  1  0
  4 30  4  0
  5 17  1  0
  6  8  1  0
  6 29  1  0
  7 24  4  0
  7 26  4  0
  8 28  1  0
  9 13  2  0
 10 18  1  0
 10 21  4  0
 10 30  4  0
 11 17  2  0
 12 18  1  0
 13 15  1  0
 14 24  1  0
 15 25  1  0
 16 28  2  0
 17 20  1  0
 19 24  4  0
 20 23  1  0
 21 22  4  0
 22 23  4  0
 25 26  4  0
 27 29  2  0
M  END
$$$$

 Created by Python create_sdf_string function

 30 33  0  0  0  0  0  0  0  0999 V2000
    8.3036    9.8571   18.4133 C   0  0  0  0  0  0  0  0  0  0  0  0
    8.3694    7.6612   22.6703 C   0  0  0  0  0  0  0  0  0  0  0  0
    8.4143    6.6863   16.2273 C   0  0  0  0  0  0  0  0  0  0  0  0
   10.7581    6.5674   21.7636 C   0  0  0  0  0  0  0  0  0  0  0  0
    8.4452    8.7960   19.2958 O   0  0  0  0  0  0  0  0  0  0  0  0
    8.7122    6.7842   24.8569 C   0  0  0  0  0  0  0  0  0  0  0  0
   10.3400    6.1726   14.3081 C   0  0  0  0  0  0  0  0  0  0  0  0
    7.4297    7.5873   24.8962 C   0  0  0  0  0  0  0  0  0  0  0  0
    8.1566   10.0536   16.0516 O   0  0  0  0  0  0  0  0  0  0  0  0
   12.4989    6.2074   20.1776 C   0  0  0  0  0  0  0  0  0  0  0  0
    6.9192    9.1053   20.9073 O   0  0  0  0  0  0  0  0  0  0  0  0
   14.3979    6.0729   18.7784 C   0  0  0  0  0  0  0  0  0  0  0  0
    8.6811    9.5354   16.9998 C   0  0  0  0  0  0  0  0  0  0  0  0
    9.2512    4.2713   13.7653 O   0  0  0  0  0  0  0  0  0  0  0  0
    9.6495    8.6317   16.8332 N   0  0  0  0  0  0  0  0  0  0  0  0
    6.2934    8.6988   23.1988 O   0  0  0  0  0  0  0  0  0  0  0  0
    7.9806    8.6543   20.5437 C   0  0  0  0  0  0  0  0  0  0  0  0
   13.7270    5.7144   19.8610 O   0  0  0  0  0  0  0  0  0  0  0  0
    8.3351    5.5235   15.4478 C   0  0  0  0  0  0  0  0  0  0  0  0
    8.7700    7.8434   21.3915 C   0  0  0  0  0  0  0  0  0  0  0  0
   11.7856    6.8851   19.2401 C   0  0  0  0  0  0  0  0  0  0  0  0
   10.5281    7.4276   19.5649 C   0  0  0  0  0  0  0  0  0  0  0  0
   10.0256    7.2907   20.8484 C   0  0  0  0  0  0  0  0  0  0  0  0
    9.3113    5.3049   14.4911 C   0  0  0  0  0  0  0  0  0  0  0  0
    9.4607    7.5646   16.0139 C   0  0  0  0  0  0  0  0  0  0  0  0
   10.4192    7.3157   15.0955 C   0  0  0  0  0  0  0  0  0  0  0  0
   10.2489    6.4227   23.0218 N   0  0  0  0  0  0  0  0  0  0  0  0
    7.2472    8.0746   23.5050 C   0  0  0  0  0  0  0  0  0  0  0  0
    9.2051    6.9101   23.4604 C   0  0  0  0  0  0  0  0  0  0  0  0
   11.9646    6.0299   21.4251 C   0  0  0  0  0  0  0  0  0  0  0  0
  1  5  1  0
  1 13  1  0
  2 20  2  0
  2 28  1  0
  2 29  1  0
  3 19  4  0
  3 25  4  0
  4 23  4  0
  4 27  1  0
  4 30  4  0
  5 17  1  0
  6  8  1  0
  6 29  1  0
  7 24  4  0
  7 26  4  0
  8 28  1  0
  9 13  2  0
 10 18  1  0
 10 21  4  0
 10 30  4  0
 11 17  2  0
 12 18  1  0
 13 15  1  0
 14 24  1  0
 15 25  1  0
 16 28  2  0
 17 20  1  0
 19 24  4  0
 20 23  1  0
 21 22  4  0
 22 23  4  0
 25 26  4  0
 27 29  2  0
M  END
$$$$

 Created by Python create_sdf_string function

 30 33  0  0  0  0  0  0  0  0999 V2000
    8.3036    9.8571   18.4133 C   0  0  0  0  0  0  0  0  0  0  0  0
    8.3694    7.6612   22.6703 C   0  0  0  0  0  0  0  0  0  0  0  0
    8.4143    6.6863   16.2273 C   0  0  0  0  0  0  0  0  0  0  0  0
   10.7581    6.5674   21.7636 C   0  0  0  0  0  0  0  0  0  0  0  0
    8.4452    8.7960   19.2958 O   0  0  0  0  0  0  0  0  0  0  0  0
    8.7122    6.7842   24.8569 C   0  0  0  0  0  0  0  0  0  0  0  0
   10.3400    6.1726   14.3081 C   0  0  0  0  0  0  0  0  0  0  0  0
    7.4297    7.5873   24.8962 C   0  0  0  0  0  0  0  0  0  0  0  0
    8.1566   10.0536   16.0516 O   0  0  0  0  0  0  0  0  0  0  0  0
   12.4989    6.2074   20.1776 C   0  0  0  0  0  0  0  0  0  0  0  0
    6.9192    9.1053   20.9073 O   0  0  0  0  0  0  0  0  0  0  0  0
   14.3979    6.0729   18.7784 C   0  0  0  0  0  0  0  0  0  0  0  0
    8.6811    9.5354   16.9998 C   0  0  0  0  0  0  0  0  0  0  0  0
    9.2512    4.2713   13.7653 O   0  0  0  0  0  0  0  0  0  0  0  0
    9.6495    8.6317   16.8332 N   0  0  0  0  0  0  0  0  0  0  0  0
    6.2934    8.6988   23.1988 O   0  0  0  0  0  0  0  0  0  0  0  0
    7.9806    8.6543   20.5437 C   0  0  0  0  0  0  0  0  0  0  0  0
   13.7270    5.7144   19.8610 O   0  0  0  0  0  0  0  0  0  0  0  0
    8.3351    5.5235   15.4478 C   0  0  0  0  0  0  0  0  0  0  0  0
    8.7700    7.8434   21.3915 C   0  0  0  0  0  0  0  0  0  0  0  0
   11.7856    6.8851   19.2401 C   0  0  0  0  0  0  0  0  0  0  0  0
   10.5281    7.4276   19.5649 C   0  0  0  0  0  0  0  0  0  0  0  0
   10.0256    7.2907   20.8484 C   0  0  0  0  0  0  0  0  0  0  0  0
    9.3113    5.3049   14.4911 C   0  0  0  0  0  0  0  0  0  0  0  0
    9.4607    7.5646   16.0139 C   0  0  0  0  0  0  0  0  0  0  0  0
   10.4192    7.3157   15.0955 C   0  0  0  0  0  0  0  0  0  0  0  0
   10.2489    6.4227   23.0218 N   0  0  0  0  0  0  0  0  0  0  0  0
    7.2472    8.0746   23.5050 C   0  0  0  0  0  0  0  0  0  0  0  0
    9.2051    6.9101   23.4604 C   0  0  0  0  0  0  0  0  0  0  0  0
   11.9646    6.0299   21.4251 C   0  0  0  0  0  0  0  0  0  0  0  0
  1  5  1  0
  1 13  1  0
  2 20  2  0
  2 28  1  0
  2 29  1  0
  3 19  4  0
  3 25  4  0
  4 23  4  0
  4 27  1  0
  4 30  4  0
  5 17  1  0
  6  8  1  0
  6 29  1  0
  7 24  4  0
  7 26  4  0
  8 28  1  0
  9 13  2  0
 10 18  1  0
 10 21  4  0
 10 30  4  0
 11 17  2  0
 12 18  1  0
 13 15  1  0
 14 24  1  0
 15 25  1  0
 16 28  2  0
 17 20  1  0
 19 24  4  0
 20 23  1  0
 21 22  4  0
 22 23  4  0
 25 26  4  0
 27 29  2  0
M  END
$$$$

 Created by Python create_sdf_string function

 30 33  0  0  0  0  0  0  0  0999 V2000
    8.3036    9.8571   18.4133 C   0  0  0  0  0  0  0  0  0  0  0  0
    8.3694    7.6612   22.6703 C   0  0  0  0  0  0  0  0  0  0  0  0
    8.4143    6.6863   16.2273 C   0  0  0  0  0  0  0  0  0  0  0  0
   10.7581    6.5674   21.7636 C   0  0  0  0  0  0  0  0  0  0  0  0
    8.4452    8.7960   19.2958 O   0  0  0  0  0  0  0  0  0  0  0  0
    8.7122    6.7842   24.8569 C   0  0  0  0  0  0  0  0  0  0  0  0
   10.3400    6.1726   14.3081 C   0  0  0  0  0  0  0  0  0  0  0  0
    7.4297    7.5873   24.8962 C   0  0  0  0  0  0  0  0  0  0  0  0
    8.1566   10.0536   16.0516 O   0  0  0  0  0  0  0  0  0  0  0  0
   12.4989    6.2074   20.1776 C   0  0  0  0  0  0  0  0  0  0  0  0
    6.9192    9.1053   20.9073 O   0  0  0  0  0  0  0  0  0  0  0  0
   14.3979    6.0729   18.7784 C   0  0  0  0  0  0  0  0  0  0  0  0
    8.6811    9.5354   16.9998 C   0  0  0  0  0  0  0  0  0  0  0  0
    9.2512    4.2713   13.7653 O   0  0  0  0  0  0  0  0  0  0  0  0
    9.6495    8.6317   16.8332 N   0  0  0  0  0  0  0  0  0  0  0  0
    6.2934    8.6988   23.1988 O   0  0  0  0  0  0  0  0  0  0  0  0
    7.9806    8.6543   20.5437 C   0  0  0  0  0  0  0  0  0  0  0  0
   13.7270    5.7144   19.8610 O   0  0  0  0  0  0  0  0  0  0  0  0
    8.3351    5.5235   15.4478 C   0  0  0  0  0  0  0  0  0  0  0  0
    8.7700    7.8434   21.3915 C   0  0  0  0  0  0  0  0  0  0  0  0
   11.7856    6.8851   19.2401 C   0  0  0  0  0  0  0  0  0  0  0  0
   10.5281    7.4276   19.5649 C   0  0  0  0  0  0  0  0  0  0  0  0
   10.0256    7.2907   20.8484 C   0  0  0  0  0  0  0  0  0  0  0  0
    9.3113    5.3049   14.4911 C   0  0  0  0  0  0  0  0  0  0  0  0
    9.4607    7.5646   16.0139 C   0  0  0  0  0  0  0  0  0  0  0  0
   10.4192    7.3157   15.0955 C   0  0  0  0  0  0  0  0  0  0  0  0
   10.2489    6.4227   23.0218 N   0  0  0  0  0  0  0  0  0  0  0  0
    7.2472    8.0746   23.5050 C   0  0  0  0  0  0  0  0  0  0  0  0
    9.2051    6.9101   23.4604 C   0  0  0  0  0  0  0  0  0  0  0  0
   11.9646    6.0299   21.4251 C   0  0  0  0  0  0  0  0  0  0  0  0
  1  5  1  0
  1 13  1  0
  2 20  2  0
  2 28  1  0
  2 29  1  0
  3 19  4  0
  3 25  4  0
  4 23  4  0
  4 27  1  0
  4 30  4  0
  5 17  1  0
  6  8  1  0
  6 29  1  0
  7 24  4  0
  7 26  4  0
  8 28  1  0
  9 13  2  0
 10 18  1  0
 10 21  4  0
 10 30  4  0
 11 17  2  0
 12 18  1  0
 13 15  1  0
 14 24  1  0
 15 25  1  0
 16 28  2  0
 17 20  1  0
 19 24  4  0
 20 23  1  0
 21 22  4  0
 22 23  4  0
 25 26  4  0
 27 29  2  0
M  END
$$$$

 Created by Python create_sdf_string function

 30 33  0  0  0  0  0  0  0  0999 V2000
    8.3036    9.8571   18.4133 C   0  0  0  0  0  0  0  0  0  0  0  0
    8.3694    7.6612   22.6703 C   0  0  0  0  0  0  0  0  0  0  0  0
    8.4143    6.6863   16.2273 C   0  0  0  0  0  0  0  0  0  0  0  0
   10.7581    6.5674   21.7636 C   0  0  0  0  0  0  0  0  0  0  0  0
    8.4452    8.7960   19.2958 O   0  0  0  0  0  0  0  0  0  0  0  0
    8.7122    6.7842   24.8569 C   0  0  0  0  0  0  0  0  0  0  0  0
   10.3400    6.1726   14.3081 C   0  0  0  0  0  0  0  0  0  0  0  0
    7.4297    7.5873   24.8962 C   0  0  0  0  0  0  0  0  0  0  0  0
    8.1566   10.0536   16.0516 O   0  0  0  0  0  0  0  0  0  0  0  0
   12.4989    6.2074   20.1776 C   0  0  0  0  0  0  0  0  0  0  0  0
    6.9192    9.1053   20.9073 O   0  0  0  0  0  0  0  0  0  0  0  0
   14.3979    6.0729   18.7784 C   0  0  0  0  0  0  0  0  0  0  0  0
    8.6811    9.5354   16.9998 C   0  0  0  0  0  0  0  0  0  0  0  0
    9.2512    4.2713   13.7653 O   0  0  0  0  0  0  0  0  0  0  0  0
    9.6495    8.6317   16.8332 N   0  0  0  0  0  0  0  0  0  0  0  0
    6.2934    8.6988   23.1988 O   0  0  0  0  0  0  0  0  0  0  0  0
    7.9806    8.6543   20.5437 C   0  0  0  0  0  0  0  0  0  0  0  0
   13.7270    5.7144   19.8610 O   0  0  0  0  0  0  0  0  0  0  0  0
    8.3351    5.5235   15.4478 C   0  0  0  0  0  0  0  0  0  0  0  0
    8.7700    7.8434   21.3915 C   0  0  0  0  0  0  0  0  0  0  0  0
   11.7856    6.8851   19.2401 C   0  0  0  0  0  0  0  0  0  0  0  0
   10.5281    7.4276   19.5649 C   0  0  0  0  0  0  0  0  0  0  0  0
   10.0256    7.2907   20.8484 C   0  0  0  0  0  0  0  0  0  0  0  0
    9.3113    5.3049   14.4911 C   0  0  0  0  0  0  0  0  0  0  0  0
    9.4607    7.5646   16.0139 C   0  0  0  0  0  0  0  0  0  0  0  0
   10.4192    7.3157   15.0955 C   0  0  0  0  0  0  0  0  0  0  0  0
   10.2489    6.4227   23.0218 N   0  0  0  0  0  0  0  0  0  0  0  0
    7.2472    8.0746   23.5050 C   0  0  0  0  0  0  0  0  0  0  0  0
    9.2051    6.9101   23.4604 C   0  0  0  0  0  0  0  0  0  0  0  0
   11.9646    6.0299   21.4251 C   0  0  0  0  0  0  0  0  0  0  0  0
  1  5  1  0
  1 13  1  0
  2 20  2  0
  2 28  1  0
  2 29  1  0
  3 19  4  0
  3 25  4  0
  4 23  4  0
  4 27  1  0
  4 30  4  0
  5 17  1  0
  6  8  1  0
  6 29  1  0
  7 24  4  0
  7 26  4  0
  8 28  1  0
  9 13  2  0
 10 18  1  0
 10 21  4  0
 10 30  4  0
 11 17  2  0
 12 18  1  0
 13 15  1  0
 14 24  1  0
 15 25  1  0
 16 28  2  0
 17 20  1  0
 19 24  4  0
 20 23  1  0
 21 22  4  0
 22 23  4  0
 25 26  4  0
 27 29  2  0
M  END
$$$$

 Created by Python create_sdf_string function

 30 33  0  0  0  0  0  0  0  0999 V2000
    8.3036    9.8571   18.4133 C   0  0  0  0  0  0  0  0  0  0  0  0
    8.3694    7.6612   22.6703 C   0  0  0  0  0  0  0  0  0  0  0  0
    8.4143    6.6863   16.2273 C   0  0  0  0  0  0  0  0  0  0  0  0
   10.7581    6.5674   21.7636 C   0  0  0  0  0  0  0  0  0  0  0  0
    8.4452    8.7960   19.2958 O   0  0  0  0  0  0  0  0  0  0  0  0
    8.7122    6.7842   24.8569 C   0  0  0  0  0  0  0  0  0  0  0  0
   10.3400    6.1726   14.3081 C   0  0  0  0  0  0  0  0  0  0  0  0
    7.4297    7.5873   24.8962 C   0  0  0  0  0  0  0  0  0  0  0  0
    8.1566   10.0536   16.0516 O   0  0  0  0  0  0  0  0  0  0  0  0
   12.4989    6.2074   20.1776 C   0  0  0  0  0  0  0  0  0  0  0  0
    6.9192    9.1053   20.9073 O   0  0  0  0  0  0  0  0  0  0  0  0
   14.3979    6.0729   18.7784 C   0  0  0  0  0  0  0  0  0  0  0  0
    8.6811    9.5354   16.9998 C   0  0  0  0  0  0  0  0  0  0  0  0
    9.2512    4.2713   13.7653 O   0  0  0  0  0  0  0  0  0  0  0  0
    9.6495    8.6317   16.8332 N   0  0  0  0  0  0  0  0  0  0  0  0
    6.2934    8.6988   23.1988 O   0  0  0  0  0  0  0  0  0  0  0  0
    7.9806    8.6543   20.5437 C   0  0  0  0  0  0  0  0  0  0  0  0
   13.7270    5.7144   19.8610 O   0  0  0  0  0  0  0  0  0  0  0  0
    8.3351    5.5235   15.4478 C   0  0  0  0  0  0  0  0  0  0  0  0
    8.7700    7.8434   21.3915 C   0  0  0  0  0  0  0  0  0  0  0  0
   11.7856    6.8851   19.2401 C   0  0  0  0  0  0  0  0  0  0  0  0
   10.5281    7.4276   19.5649 C   0  0  0  0  0  0  0  0  0  0  0  0
   10.0256    7.2907   20.8484 C   0  0  0  0  0  0  0  0  0  0  0  0
    9.3113    5.3049   14.4911 C   0  0  0  0  0  0  0  0  0  0  0  0
    9.4607    7.5646   16.0139 C   0  0  0  0  0  0  0  0  0  0  0  0
   10.4192    7.3157   15.0955 C   0  0  0  0  0  0  0  0  0  0  0  0
   10.2489    6.4227   23.0218 N   0  0  0  0  0  0  0  0  0  0  0  0
    7.2472    8.0746   23.5050 C   0  0  0  0  0  0  0  0  0  0  0  0
    9.2051    6.9101   23.4604 C   0  0  0  0  0  0  0  0  0  0  0  0
   11.9646    6.0299   21.4251 C   0  0  0  0  0  0  0  0  0  0  0  0
  1  5  1  0
  1 13  1  0
  2 20  2  0
  2 28  1  0
  2 29  1  0
  3 19  4  0
  3 25  4  0
  4 23  4  0
  4 27  1  0
  4 30  4  0
  5 17  1  0
  6  8  1  0
  6 29  1  0
  7 24  4  0
  7 26  4  0
  8 28  1  0
  9 13  2  0
 10 18  1  0
 10 21  4  0
 10 30  4  0
 11 17  2  0
 12 18  1  0
 13 15  1  0
 14 24  1  0
 15 25  1  0
 16 28  2  0
 17 20  1  0
 19 24  4  0
 20 23  1  0
 21 22  4  0
 22 23  4  0
 25 26  4  0
 27 29  2  0
M  END
$$$$

 Created by Python create_sdf_string function

 30 33  0  0  0  0  0  0  0  0999 V2000
    8.3036    9.8571   18.4133 C   0  0  0  0  0  0  0  0  0  0  0  0
    8.3694    7.6612   22.6703 C   0  0  0  0  0  0  0  0  0  0  0  0
    8.4143    6.6863   16.2273 C   0  0  0  0  0  0  0  0  0  0  0  0
   10.7581    6.5674   21.7636 C   0  0  0  0  0  0  0  0  0  0  0  0
    8.4452    8.7960   19.2958 O   0  0  0  0  0  0  0  0  0  0  0  0
    8.7122    6.7842   24.8569 C   0  0  0  0  0  0  0  0  0  0  0  0
   10.3400    6.1726   14.3081 C   0  0  0  0  0  0  0  0  0  0  0  0
    7.4297    7.5873   24.8962 C   0  0  0  0  0  0  0  0  0  0  0  0
    8.1566   10.0536   16.0516 O   0  0  0  0  0  0  0  0  0  0  0  0
   12.4989    6.2074   20.1776 C   0  0  0  0  0  0  0  0  0  0  0  0
    6.9192    9.1053   20.9073 O   0  0  0  0  0  0  0  0  0  0  0  0
   14.3979    6.0729   18.7784 C   0  0  0  0  0  0  0  0  0  0  0  0
    8.6811    9.5354   16.9998 C   0  0  0  0  0  0  0  0  0  0  0  0
    9.2512    4.2713   13.7653 O   0  0  0  0  0  0  0  0  0  0  0  0
    9.6495    8.6317   16.8332 N   0  0  0  0  0  0  0  0  0  0  0  0
    6.2934    8.6988   23.1988 O   0  0  0  0  0  0  0  0  0  0  0  0
    7.9806    8.6543   20.5437 C   0  0  0  0  0  0  0  0  0  0  0  0
   13.7270    5.7144   19.8610 O   0  0  0  0  0  0  0  0  0  0  0  0
    8.3351    5.5235   15.4478 C   0  0  0  0  0  0  0  0  0  0  0  0
    8.7700    7.8434   21.3915 C   0  0  0  0  0  0  0  0  0  0  0  0
   11.7856    6.8851   19.2401 C   0  0  0  0  0  0  0  0  0  0  0  0
   10.5281    7.4276   19.5649 C   0  0  0  0  0  0  0  0  0  0  0  0
   10.0256    7.2907   20.8484 C   0  0  0  0  0  0  0  0  0  0  0  0
    9.3113    5.3049   14.4911 C   0  0  0  0  0  0  0  0  0  0  0  0
    9.4607    7.5646   16.0139 C   0  0  0  0  0  0  0  0  0  0  0  0
   10.4192    7.3157   15.0955 C   0  0  0  0  0  0  0  0  0  0  0  0
   10.2489    6.4227   23.0218 N   0  0  0  0  0  0  0  0  0  0  0  0
    7.2472    8.0746   23.5050 C   0  0  0  0  0  0  0  0  0  0  0  0
    9.2051    6.9101   23.4604 C   0  0  0  0  0  0  0  0  0  0  0  0
   11.9646    6.0299   21.4251 C   0  0  0  0  0  0  0  0  0  0  0  0
  1  5  1  0
  1 13  1  0
  2 20  2  0
  2 28  1  0
  2 29  1  0
  3 19  4  0
  3 25  4  0
  4 23  4  0
  4 27  1  0
  4 30  4  0
  5 17  1  0
  6  8  1  0
  6 29  1  0
  7 24  4  0
  7 26  4  0
  8 28  1  0
  9 13  2  0
 10 18  1  0
 10 21  4  0
 10 30  4  0
 11 17  2  0
 12 18  1  0
 13 15  1  0
 14 24  1  0
 15 25  1  0
 16 28  2  0
 17 20  1  0
 19 24  4  0
 20 23  1  0
 21 22  4  0
 22 23  4  0
 25 26  4  0
 27 29  2  0
M  END
$$$$

 Created by Python create_sdf_string function

 30 33  0  0  0  0  0  0  0  0999 V2000
    8.3036    9.8571   18.4133 C   0  0  0  0  0  0  0  0  0  0  0  0
    8.3694    7.6612   22.6703 C   0  0  0  0  0  0  0  0  0  0  0  0
    8.4143    6.6863   16.2273 C   0  0  0  0  0  0  0  0  0  0  0  0
   10.7581    6.5674   21.7636 C   0  0  0  0  0  0  0  0  0  0  0  0
    8.4452    8.7960   19.2958 O   0  0  0  0  0  0  0  0  0  0  0  0
    8.7122    6.7842   24.8569 C   0  0  0  0  0  0  0  0  0  0  0  0
   10.3400    6.1726   14.3081 C   0  0  0  0  0  0  0  0  0  0  0  0
    7.4297    7.5873   24.8962 C   0  0  0  0  0  0  0  0  0  0  0  0
    8.1566   10.0536   16.0516 O   0  0  0  0  0  0  0  0  0  0  0  0
   12.4989    6.2074   20.1776 C   0  0  0  0  0  0  0  0  0  0  0  0
    6.9192    9.1053   20.9073 O   0  0  0  0  0  0  0  0  0  0  0  0
   14.3979    6.0729   18.7784 C   0  0  0  0  0  0  0  0  0  0  0  0
    8.6811    9.5354   16.9998 C   0  0  0  0  0  0  0  0  0  0  0  0
    9.2512    4.2713   13.7653 O   0  0  0  0  0  0  0  0  0  0  0  0
    9.6495    8.6317   16.8332 N   0  0  0  0  0  0  0  0  0  0  0  0
    6.2934    8.6988   23.1988 O   0  0  0  0  0  0  0  0  0  0  0  0
    7.9806    8.6543   20.5437 C   0  0  0  0  0  0  0  0  0  0  0  0
   13.7270    5.7144   19.8610 O   0  0  0  0  0  0  0  0  0  0  0  0
    8.3351    5.5235   15.4478 C   0  0  0  0  0  0  0  0  0  0  0  0
    8.7700    7.8434   21.3915 C   0  0  0  0  0  0  0  0  0  0  0  0
   11.7856    6.8851   19.2401 C   0  0  0  0  0  0  0  0  0  0  0  0
   10.5281    7.4276   19.5649 C   0  0  0  0  0  0  0  0  0  0  0  0
   10.0256    7.2907   20.8484 C   0  0  0  0  0  0  0  0  0  0  0  0
    9.3113    5.3049   14.4911 C   0  0  0  0  0  0  0  0  0  0  0  0
    9.4607    7.5646   16.0139 C   0  0  0  0  0  0  0  0  0  0  0  0
   10.4192    7.3157   15.0955 C   0  0  0  0  0  0  0  0  0  0  0  0
   10.2489    6.4227   23.0218 N   0  0  0  0  0  0  0  0  0  0  0  0
    7.2472    8.0746   23.5050 C   0  0  0  0  0  0  0  0  0  0  0  0
    9.2051    6.9101   23.4604 C   0  0  0  0  0  0  0  0  0  0  0  0
   11.9646    6.0299   21.4251 C   0  0  0  0  0  0  0  0  0  0  0  0
  1  5  1  0
  1 13  1  0
  2 20  2  0
  2 28  1  0
  2 29  1  0
  3 19  4  0
  3 25  4  0
  4 23  4  0
  4 27  1  0
  4 30  4  0
  5 17  1  0
  6  8  1  0
  6 29  1  0
  7 24  4  0
  7 26  4  0
  8 28  1  0
  9 13  2  0
 10 18  1  0
 10 21  4  0
 10 30  4  0
 11 17  2  0
 12 18  1  0
 13 15  1  0
 14 24  1  0
 15 25  1  0
 16 28  2  0
 17 20  1  0
 19 24  4  0
 20 23  1  0
 21 22  4  0
 22 23  4  0
 25 26  4  0
 27 29  2  0
M  END
$$$$

 Created by Python create_sdf_string function

 30 33  0  0  0  0  0  0  0  0999 V2000
    8.3036    9.8571   18.4133 C   0  0  0  0  0  0  0  0  0  0  0  0
    8.3694    7.6612   22.6703 C   0  0  0  0  0  0  0  0  0  0  0  0
    8.4143    6.6863   16.2273 C   0  0  0  0  0  0  0  0  0  0  0  0
   10.7581    6.5674   21.7636 C   0  0  0  0  0  0  0  0  0  0  0  0
    8.4452    8.7960   19.2958 O   0  0  0  0  0  0  0  0  0  0  0  0
    8.7122    6.7842   24.8569 C   0  0  0  0  0  0  0  0  0  0  0  0
   10.3400    6.1726   14.3081 C   0  0  0  0  0  0  0  0  0  0  0  0
    7.4297    7.5873   24.8962 C   0  0  0  0  0  0  0  0  0  0  0  0
    8.1566   10.0536   16.0516 O   0  0  0  0  0  0  0  0  0  0  0  0
   12.4989    6.2074   20.1776 C   0  0  0  0  0  0  0  0  0  0  0  0
    6.9192    9.1053   20.9073 O   0  0  0  0  0  0  0  0  0  0  0  0
   14.3979    6.0729   18.7784 C   0  0  0  0  0  0  0  0  0  0  0  0
    8.6811    9.5354   16.9998 C   0  0  0  0  0  0  0  0  0  0  0  0
    9.2512    4.2713   13.7653 O   0  0  0  0  0  0  0  0  0  0  0  0
    9.6495    8.6317   16.8332 N   0  0  0  0  0  0  0  0  0  0  0  0
    6.2934    8.6988   23.1988 O   0  0  0  0  0  0  0  0  0  0  0  0
    7.9806    8.6543   20.5437 C   0  0  0  0  0  0  0  0  0  0  0  0
   13.7270    5.7144   19.8610 O   0  0  0  0  0  0  0  0  0  0  0  0
    8.3351    5.5235   15.4478 C   0  0  0  0  0  0  0  0  0  0  0  0
    8.7700    7.8434   21.3915 C   0  0  0  0  0  0  0  0  0  0  0  0
   11.7856    6.8851   19.2401 C   0  0  0  0  0  0  0  0  0  0  0  0
   10.5281    7.4276   19.5649 C   0  0  0  0  0  0  0  0  0  0  0  0
   10.0256    7.2907   20.8484 C   0  0  0  0  0  0  0  0  0  0  0  0
    9.3113    5.3049   14.4911 C   0  0  0  0  0  0  0  0  0  0  0  0
    9.4607    7.5646   16.0139 C   0  0  0  0  0  0  0  0  0  0  0  0
   10.4192    7.3157   15.0955 C   0  0  0  0  0  0  0  0  0  0  0  0
   10.2489    6.4227   23.0218 N   0  0  0  0  0  0  0  0  0  0  0  0
    7.2472    8.0746   23.5050 C   0  0  0  0  0  0  0  0  0  0  0  0
    9.2051    6.9101   23.4604 C   0  0  0  0  0  0  0  0  0  0  0  0
   11.9646    6.0299   21.4251 C   0  0  0  0  0  0  0  0  0  0  0  0
  1  5  1  0
  1 13  1  0
  2 20  2  0
  2 28  1  0
  2 29  1  0
  3 19  4  0
  3 25  4  0
  4 23  4  0
  4 27  1  0
  4 30  4  0
  5 17  1  0
  6  8  1  0
  6 29  1  0
  7 24  4  0
  7 26  4  0
  8 28  1  0
  9 13  2  0
 10 18  1  0
 10 21  4  0
 10 30  4  0
 11 17  2  0
 12 18  1  0
 13 15  1  0
 14 24  1  0
 15 25  1  0
 16 28  2  0
 17 20  1  0
 19 24  4  0
 20 23  1  0
 21 22  4  0
 22 23  4  0
 25 26  4  0
 27 29  2  0
M  END
$$$$

 Created by Python create_sdf_string function

 30 33  0  0  0  0  0  0  0  0999 V2000
    8.3036    9.8571   18.4133 C   0  0  0  0  0  0  0  0  0  0  0  0
    8.3694    7.6612   22.6703 C   0  0  0  0  0  0  0  0  0  0  0  0
    8.4143    6.6863   16.2273 C   0  0  0  0  0  0  0  0  0  0  0  0
   10.7581    6.5674   21.7636 C   0  0  0  0  0  0  0  0  0  0  0  0
    8.4452    8.7960   19.2958 O   0  0  0  0  0  0  0  0  0  0  0  0
    8.7122    6.7842   24.8569 C   0  0  0  0  0  0  0  0  0  0  0  0
   10.3400    6.1726   14.3081 C   0  0  0  0  0  0  0  0  0  0  0  0
    7.4297    7.5873   24.8962 C   0  0  0  0  0  0  0  0  0  0  0  0
    8.1566   10.0536   16.0516 O   0  0  0  0  0  0  0  0  0  0  0  0
   12.4989    6.2074   20.1776 C   0  0  0  0  0  0  0  0  0  0  0  0
    6.9192    9.1053   20.9073 O   0  0  0  0  0  0  0  0  0  0  0  0
   14.3979    6.0729   18.7784 C   0  0  0  0  0  0  0  0  0  0  0  0
    8.6811    9.5354   16.9998 C   0  0  0  0  0  0  0  0  0  0  0  0
    9.2512    4.2713   13.7653 O   0  0  0  0  0  0  0  0  0  0  0  0
    9.6495    8.6317   16.8332 N   0  0  0  0  0  0  0  0  0  0  0  0
    6.2934    8.6988   23.1988 O   0  0  0  0  0  0  0  0  0  0  0  0
    7.9806    8.6543   20.5437 C   0  0  0  0  0  0  0  0  0  0  0  0
   13.7270    5.7144   19.8610 O   0  0  0  0  0  0  0  0  0  0  0  0
    8.3351    5.5235   15.4478 C   0  0  0  0  0  0  0  0  0  0  0  0
    8.7700    7.8434   21.3915 C   0  0  0  0  0  0  0  0  0  0  0  0
   11.7856    6.8851   19.2401 C   0  0  0  0  0  0  0  0  0  0  0  0
   10.5281    7.4276   19.5649 C   0  0  0  0  0  0  0  0  0  0  0  0
   10.0256    7.2907   20.8484 C   0  0  0  0  0  0  0  0  0  0  0  0
    9.3113    5.3049   14.4911 C   0  0  0  0  0  0  0  0  0  0  0  0
    9.4607    7.5646   16.0139 C   0  0  0  0  0  0  0  0  0  0  0  0
   10.4192    7.3157   15.0955 C   0  0  0  0  0  0  0  0  0  0  0  0
   10.2489    6.4227   23.0218 N   0  0  0  0  0  0  0  0  0  0  0  0
    7.2472    8.0746   23.5050 C   0  0  0  0  0  0  0  0  0  0  0  0
    9.2051    6.9101   23.4604 C   0  0  0  0  0  0  0  0  0  0  0  0
   11.9646    6.0299   21.4251 C   0  0  0  0  0  0  0  0  0  0  0  0
  1  5  1  0
  1 13  1  0
  2 20  2  0
  2 28  1  0
  2 29  1  0
  3 19  4  0
  3 25  4  0
  4 23  4  0
  4 27  1  0
  4 30  4  0
  5 17  1  0
  6  8  1  0
  6 29  1  0
  7 24  4  0
  7 26  4  0
  8 28  1  0
  9 13  2  0
 10 18  1  0
 10 21  4  0
 10 30  4  0
 11 17  2  0
 12 18  1  0
 13 15  1  0
 14 24  1  0
 15 25  1  0
 16 28  2  0
 17 20  1  0
 19 24  4  0
 20 23  1  0
 21 22  4  0
 22 23  4  0
 25 26  4  0
 27 29  2  0
M  END
$$$$

 Created by Python create_sdf_string function

 30 33  0  0  0  0  0  0  0  0999 V2000
    8.3036    9.8571   18.4133 C   0  0  0  0  0  0  0  0  0  0  0  0
    8.3694    7.6612   22.6703 C   0  0  0  0  0  0  0  0  0  0  0  0
    8.4143    6.6863   16.2273 C   0  0  0  0  0  0  0  0  0  0  0  0
   10.7581    6.5674   21.7636 C   0  0  0  0  0  0  0  0  0  0  0  0
    8.4452    8.7960   19.2958 O   0  0  0  0  0  0  0  0  0  0  0  0
    8.7122    6.7842   24.8569 C   0  0  0  0  0  0  0  0  0  0  0  0
   10.3400    6.1726   14.3081 C   0  0  0  0  0  0  0  0  0  0  0  0
    7.4297    7.5873   24.8962 C   0  0  0  0  0  0  0  0  0  0  0  0
    8.1566   10.0536   16.0516 O   0  0  0  0  0  0  0  0  0  0  0  0
   12.4989    6.2074   20.1776 C   0  0  0  0  0  0  0  0  0  0  0  0
    6.9192    9.1053   20.9073 O   0  0  0  0  0  0  0  0  0  0  0  0
   14.3979    6.0729   18.7784 C   0  0  0  0  0  0  0  0  0  0  0  0
    8.6811    9.5354   16.9998 C   0  0  0  0  0  0  0  0  0  0  0  0
    9.2512    4.2713   13.7653 O   0  0  0  0  0  0  0  0  0  0  0  0
    9.6495    8.6317   16.8332 N   0  0  0  0  0  0  0  0  0  0  0  0
    6.2934    8.6988   23.1988 O   0  0  0  0  0  0  0  0  0  0  0  0
    7.9806    8.6543   20.5437 C   0  0  0  0  0  0  0  0  0  0  0  0
   13.7270    5.7144   19.8610 O   0  0  0  0  0  0  0  0  0  0  0  0
    8.3351    5.5235   15.4478 C   0  0  0  0  0  0  0  0  0  0  0  0
    8.7700    7.8434   21.3915 C   0  0  0  0  0  0  0  0  0  0  0  0
   11.7856    6.8851   19.2401 C   0  0  0  0  0  0  0  0  0  0  0  0
   10.5281    7.4276   19.5649 C   0  0  0  0  0  0  0  0  0  0  0  0
   10.0256    7.2907   20.8484 C   0  0  0  0  0  0  0  0  0  0  0  0
    9.3113    5.3049   14.4911 C   0  0  0  0  0  0  0  0  0  0  0  0
    9.4607    7.5646   16.0139 C   0  0  0  0  0  0  0  0  0  0  0  0
   10.4192    7.3157   15.0955 C   0  0  0  0  0  0  0  0  0  0  0  0
   10.2489    6.4227   23.0218 N   0  0  0  0  0  0  0  0  0  0  0  0
    7.2472    8.0746   23.5050 C   0  0  0  0  0  0  0  0  0  0  0  0
    9.2051    6.9101   23.4604 C   0  0  0  0  0  0  0  0  0  0  0  0
   11.9646    6.0299   21.4251 C   0  0  0  0  0  0  0  0  0  0  0  0
  1  5  1  0
  1 13  1  0
  2 20  2  0
  2 28  1  0
  2 29  1  0
  3 19  4  0
  3 25  4  0
  4 23  4  0
  4 27  1  0
  4 30  4  0
  5 17  1  0
  6  8  1  0
  6 29  1  0
  7 24  4  0
  7 26  4  0
  8 28  1  0
  9 13  2  0
 10 18  1  0
 10 21  4  0
 10 30  4  0
 11 17  2  0
 12 18  1  0
 13 15  1  0
 14 24  1  0
 15 25  1  0
 16 28  2  0
 17 20  1  0
 19 24  4  0
 20 23  1  0
 21 22  4  0
 22 23  4  0
 25 26  4  0
 27 29  2  0
M  END
$$$$

 Created by Python create_sdf_string function

 30 33  0  0  0  0  0  0  0  0999 V2000
    8.3036    9.8571   18.4133 C   0  0  0  0  0  0  0  0  0  0  0  0
    8.3694    7.6612   22.6703 C   0  0  0  0  0  0  0  0  0  0  0  0
    8.4143    6.6863   16.2273 C   0  0  0  0  0  0  0  0  0  0  0  0
   10.7581    6.5674   21.7636 C   0  0  0  0  0  0  0  0  0  0  0  0
    8.4452    8.7960   19.2958 O   0  0  0  0  0  0  0  0  0  0  0  0
    8.7122    6.7842   24.8569 C   0  0  0  0  0  0  0  0  0  0  0  0
   10.3400    6.1726   14.3081 C   0  0  0  0  0  0  0  0  0  0  0  0
    7.4297    7.5873   24.8962 C   0  0  0  0  0  0  0  0  0  0  0  0
    8.1566   10.0536   16.0516 O   0  0  0  0  0  0  0  0  0  0  0  0
   12.4989    6.2074   20.1776 C   0  0  0  0  0  0  0  0  0  0  0  0
    6.9192    9.1053   20.9073 O   0  0  0  0  0  0  0  0  0  0  0  0
   14.3979    6.0729   18.7784 C   0  0  0  0  0  0  0  0  0  0  0  0
    8.6811    9.5354   16.9998 C   0  0  0  0  0  0  0  0  0  0  0  0
    9.2512    4.2713   13.7653 O   0  0  0  0  0  0  0  0  0  0  0  0
    9.6495    8.6317   16.8332 N   0  0  0  0  0  0  0  0  0  0  0  0
    6.2934    8.6988   23.1988 O   0  0  0  0  0  0  0  0  0  0  0  0
    7.9806    8.6543   20.5437 C   0  0  0  0  0  0  0  0  0  0  0  0
   13.7270    5.7144   19.8610 O   0  0  0  0  0  0  0  0  0  0  0  0
    8.3351    5.5235   15.4478 C   0  0  0  0  0  0  0  0  0  0  0  0
    8.7700    7.8434   21.3915 C   0  0  0  0  0  0  0  0  0  0  0  0
   11.7856    6.8851   19.2401 C   0  0  0  0  0  0  0  0  0  0  0  0
   10.5281    7.4276   19.5649 C   0  0  0  0  0  0  0  0  0  0  0  0
   10.0256    7.2907   20.8484 C   0  0  0  0  0  0  0  0  0  0  0  0
    9.3113    5.3049   14.4911 C   0  0  0  0  0  0  0  0  0  0  0  0
    9.4607    7.5646   16.0139 C   0  0  0  0  0  0  0  0  0  0  0  0
   10.4192    7.3157   15.0955 C   0  0  0  0  0  0  0  0  0  0  0  0
   10.2489    6.4227   23.0218 N   0  0  0  0  0  0  0  0  0  0  0  0
    7.2472    8.0746   23.5050 C   0  0  0  0  0  0  0  0  0  0  0  0
    9.2051    6.9101   23.4604 C   0  0  0  0  0  0  0  0  0  0  0  0
   11.9646    6.0299   21.4251 C   0  0  0  0  0  0  0  0  0  0  0  0
  1  5  1  0
  1 13  1  0
  2 20  2  0
  2 28  1  0
  2 29  1  0
  3 19  4  0
  3 25  4  0
  4 23  4  0
  4 27  1  0
  4 30  4  0
  5 17  1  0
  6  8  1  0
  6 29  1  0
  7 24  4  0
  7 26  4  0
  8 28  1  0
  9 13  2  0
 10 18  1  0
 10 21  4  0
 10 30  4  0
 11 17  2  0
 12 18  1  0
 13 15  1  0
 14 24  1  0
 15 25  1  0
 16 28  2  0
 17 20  1  0
 19 24  4  0
 20 23  1  0
 21 22  4  0
 22 23  4  0
 25 26  4  0
 27 29  2  0
M  END
$$$$

 Created by Python create_sdf_string function

 30 33  0  0  0  0  0  0  0  0999 V2000
    8.3036    9.8571   18.4133 C   0  0  0  0  0  0  0  0  0  0  0  0
    8.3694    7.6612   22.6703 C   0  0  0  0  0  0  0  0  0  0  0  0
    8.4143    6.6863   16.2273 C   0  0  0  0  0  0  0  0  0  0  0  0
   10.7581    6.5674   21.7636 C   0  0  0  0  0  0  0  0  0  0  0  0
    8.4452    8.7960   19.2958 O   0  0  0  0  0  0  0  0  0  0  0  0
    8.7122    6.7842   24.8569 C   0  0  0  0  0  0  0  0  0  0  0  0
   10.3400    6.1726   14.3081 C   0  0  0  0  0  0  0  0  0  0  0  0
    7.4297    7.5873   24.8962 C   0  0  0  0  0  0  0  0  0  0  0  0
    8.1566   10.0536   16.0516 O   0  0  0  0  0  0  0  0  0  0  0  0
   12.4989    6.2074   20.1776 C   0  0  0  0  0  0  0  0  0  0  0  0
    6.9192    9.1053   20.9073 O   0  0  0  0  0  0  0  0  0  0  0  0
   14.3979    6.0729   18.7784 C   0  0  0  0  0  0  0  0  0  0  0  0
    8.6811    9.5354   16.9998 C   0  0  0  0  0  0  0  0  0  0  0  0
    9.2512    4.2713   13.7653 O   0  0  0  0  0  0  0  0  0  0  0  0
    9.6495    8.6317   16.8332 N   0  0  0  0  0  0  0  0  0  0  0  0
    6.2934    8.6988   23.1988 O   0  0  0  0  0  0  0  0  0  0  0  0
    7.9806    8.6543   20.5437 C   0  0  0  0  0  0  0  0  0  0  0  0
   13.7270    5.7144   19.8610 O   0  0  0  0  0  0  0  0  0  0  0  0
    8.3351    5.5235   15.4478 C   0  0  0  0  0  0  0  0  0  0  0  0
    8.7700    7.8434   21.3915 C   0  0  0  0  0  0  0  0  0  0  0  0
   11.7856    6.8851   19.2401 C   0  0  0  0  0  0  0  0  0  0  0  0
   10.5281    7.4276   19.5649 C   0  0  0  0  0  0  0  0  0  0  0  0
   10.0256    7.2907   20.8484 C   0  0  0  0  0  0  0  0  0  0  0  0
    9.3113    5.3049   14.4911 C   0  0  0  0  0  0  0  0  0  0  0  0
    9.4607    7.5646   16.0139 C   0  0  0  0  0  0  0  0  0  0  0  0
   10.4192    7.3157   15.0955 C   0  0  0  0  0  0  0  0  0  0  0  0
   10.2489    6.4227   23.0218 N   0  0  0  0  0  0  0  0  0  0  0  0
    7.2472    8.0746   23.5050 C   0  0  0  0  0  0  0  0  0  0  0  0
    9.2051    6.9101   23.4604 C   0  0  0  0  0  0  0  0  0  0  0  0
   11.9646    6.0299   21.4251 C   0  0  0  0  0  0  0  0  0  0  0  0
  1  5  1  0
  1 13  1  0
  2 20  2  0
  2 28  1  0
  2 29  1  0
  3 19  4  0
  3 25  4  0
  4 23  4  0
  4 27  1  0
  4 30  4  0
  5 17  1  0
  6  8  1  0
  6 29  1  0
  7 24  4  0
  7 26  4  0
  8 28  1  0
  9 13  2  0
 10 18  1  0
 10 21  4  0
 10 30  4  0
 11 17  2  0
 12 18  1  0
 13 15  1  0
 14 24  1  0
 15 25  1  0
 16 28  2  0
 17 20  1  0
 19 24  4  0
 20 23  1  0
 21 22  4  0
 22 23  4  0
 25 26  4  0
 27 29  2  0
M  END
$$$$

 Created by Python create_sdf_string function

 30 33  0  0  0  0  0  0  0  0999 V2000
    8.3036    9.8571   18.4133 C   0  0  0  0  0  0  0  0  0  0  0  0
    8.3694    7.6612   22.6703 C   0  0  0  0  0  0  0  0  0  0  0  0
    8.4143    6.6863   16.2273 C   0  0  0  0  0  0  0  0  0  0  0  0
   10.7581    6.5674   21.7636 C   0  0  0  0  0  0  0  0  0  0  0  0
    8.4452    8.7960   19.2958 O   0  0  0  0  0  0  0  0  0  0  0  0
    8.7122    6.7842   24.8569 C   0  0  0  0  0  0  0  0  0  0  0  0
   10.3400    6.1726   14.3081 C   0  0  0  0  0  0  0  0  0  0  0  0
    7.4297    7.5873   24.8962 C   0  0  0  0  0  0  0  0  0  0  0  0
    8.1566   10.0536   16.0516 O   0  0  0  0  0  0  0  0  0  0  0  0
   12.4989    6.2074   20.1776 C   0  0  0  0  0  0  0  0  0  0  0  0
    6.9192    9.1053   20.9073 O   0  0  0  0  0  0  0  0  0  0  0  0
   14.3979    6.0729   18.7784 C   0  0  0  0  0  0  0  0  0  0  0  0
    8.6811    9.5354   16.9998 C   0  0  0  0  0  0  0  0  0  0  0  0
    9.2512    4.2713   13.7653 O   0  0  0  0  0  0  0  0  0  0  0  0
    9.6495    8.6317   16.8332 N   0  0  0  0  0  0  0  0  0  0  0  0
    6.2934    8.6988   23.1988 O   0  0  0  0  0  0  0  0  0  0  0  0
    7.9806    8.6543   20.5437 C   0  0  0  0  0  0  0  0  0  0  0  0
   13.7270    5.7144   19.8610 O   0  0  0  0  0  0  0  0  0  0  0  0
    8.3351    5.5235   15.4478 C   0  0  0  0  0  0  0  0  0  0  0  0
    8.7700    7.8434   21.3915 C   0  0  0  0  0  0  0  0  0  0  0  0
   11.7856    6.8851   19.2401 C   0  0  0  0  0  0  0  0  0  0  0  0
   10.5281    7.4276   19.5649 C   0  0  0  0  0  0  0  0  0  0  0  0
   10.0256    7.2907   20.8484 C   0  0  0  0  0  0  0  0  0  0  0  0
    9.3113    5.3049   14.4911 C   0  0  0  0  0  0  0  0  0  0  0  0
    9.4607    7.5646   16.0139 C   0  0  0  0  0  0  0  0  0  0  0  0
   10.4192    7.3157   15.0955 C   0  0  0  0  0  0  0  0  0  0  0  0
   10.2489    6.4227   23.0218 N   0  0  0  0  0  0  0  0  0  0  0  0
    7.2472    8.0746   23.5050 C   0  0  0  0  0  0  0  0  0  0  0  0
    9.2051    6.9101   23.4604 C   0  0  0  0  0  0  0  0  0  0  0  0
   11.9646    6.0299   21.4251 C   0  0  0  0  0  0  0  0  0  0  0  0
  1  5  1  0
  1 13  1  0
  2 20  2  0
  2 28  1  0
  2 29  1  0
  3 19  4  0
  3 25  4  0
  4 23  4  0
  4 27  1  0
  4 30  4  0
  5 17  1  0
  6  8  1  0
  6 29  1  0
  7 24  4  0
  7 26  4  0
  8 28  1  0
  9 13  2  0
 10 18  1  0
 10 21  4  0
 10 30  4  0
 11 17  2  0
 12 18  1  0
 13 15  1  0
 14 24  1  0
 15 25  1  0
 16 28  2  0
 17 20  1  0
 19 24  4  0
 20 23  1  0
 21 22  4  0
 22 23  4  0
 25 26  4  0
 27 29  2  0
M  END
$$$$

 Created by Python create_sdf_string function

 30 33  0  0  0  0  0  0  0  0999 V2000
    8.3036    9.8571   18.4133 C   0  0  0  0  0  0  0  0  0  0  0  0
    8.3694    7.6612   22.6703 C   0  0  0  0  0  0  0  0  0  0  0  0
    8.4143    6.6863   16.2273 C   0  0  0  0  0  0  0  0  0  0  0  0
   10.7581    6.5674   21.7636 C   0  0  0  0  0  0  0  0  0  0  0  0
    8.4452    8.7960   19.2958 O   0  0  0  0  0  0  0  0  0  0  0  0
    8.7122    6.7842   24.8569 C   0  0  0  0  0  0  0  0  0  0  0  0
   10.3400    6.1726   14.3081 C   0  0  0  0  0  0  0  0  0  0  0  0
    7.4297    7.5873   24.8962 C   0  0  0  0  0  0  0  0  0  0  0  0
    8.1566   10.0536   16.0516 O   0  0  0  0  0  0  0  0  0  0  0  0
   12.4989    6.2074   20.1776 C   0  0  0  0  0  0  0  0  0  0  0  0
    6.9192    9.1053   20.9073 O   0  0  0  0  0  0  0  0  0  0  0  0
   14.3979    6.0729   18.7784 C   0  0  0  0  0  0  0  0  0  0  0  0
    8.6811    9.5354   16.9998 C   0  0  0  0  0  0  0  0  0  0  0  0
    9.2512    4.2713   13.7653 O   0  0  0  0  0  0  0  0  0  0  0  0
    9.6495    8.6317   16.8332 N   0  0  0  0  0  0  0  0  0  0  0  0
    6.2934    8.6988   23.1988 O   0  0  0  0  0  0  0  0  0  0  0  0
    7.9806    8.6543   20.5437 C   0  0  0  0  0  0  0  0  0  0  0  0
   13.7270    5.7144   19.8610 O   0  0  0  0  0  0  0  0  0  0  0  0
    8.3351    5.5235   15.4478 C   0  0  0  0  0  0  0  0  0  0  0  0
    8.7700    7.8434   21.3915 C   0  0  0  0  0  0  0  0  0  0  0  0
   11.7856    6.8851   19.2401 C   0  0  0  0  0  0  0  0  0  0  0  0
   10.5281    7.4276   19.5649 C   0  0  0  0  0  0  0  0  0  0  0  0
   10.0256    7.2907   20.8484 C   0  0  0  0  0  0  0  0  0  0  0  0
    9.3113    5.3049   14.4911 C   0  0  0  0  0  0  0  0  0  0  0  0
    9.4607    7.5646   16.0139 C   0  0  0  0  0  0  0  0  0  0  0  0
   10.4192    7.3157   15.0955 C   0  0  0  0  0  0  0  0  0  0  0  0
   10.2489    6.4227   23.0218 N   0  0  0  0  0  0  0  0  0  0  0  0
    7.2472    8.0746   23.5050 C   0  0  0  0  0  0  0  0  0  0  0  0
    9.2051    6.9101   23.4604 C   0  0  0  0  0  0  0  0  0  0  0  0
   11.9646    6.0299   21.4251 C   0  0  0  0  0  0  0  0  0  0  0  0
  1  5  1  0
  1 13  1  0
  2 20  2  0
  2 28  1  0
  2 29  1  0
  3 19  4  0
  3 25  4  0
  4 23  4  0
  4 27  1  0
  4 30  4  0
  5 17  1  0
  6  8  1  0
  6 29  1  0
  7 24  4  0
  7 26  4  0
  8 28  1  0
  9 13  2  0
 10 18  1  0
 10 21  4  0
 10 30  4  0
 11 17  2  0
 12 18  1  0
 13 15  1  0
 14 24  1  0
 15 25  1  0
 16 28  2  0
 17 20  1  0
 19 24  4  0
 20 23  1  0
 21 22  4  0
 22 23  4  0
 25 26  4  0
 27 29  2  0
M  END
$$$$

 Created by Python create_sdf_string function

 30 33  0  0  0  0  0  0  0  0999 V2000
    8.3036    9.8571   18.4133 C   0  0  0  0  0  0  0  0  0  0  0  0
    8.3694    7.6612   22.6703 C   0  0  0  0  0  0  0  0  0  0  0  0
    8.4143    6.6863   16.2273 C   0  0  0  0  0  0  0  0  0  0  0  0
   10.7581    6.5674   21.7636 C   0  0  0  0  0  0  0  0  0  0  0  0
    8.4452    8.7960   19.2958 O   0  0  0  0  0  0  0  0  0  0  0  0
    8.7122    6.7842   24.8569 C   0  0  0  0  0  0  0  0  0  0  0  0
   10.3400    6.1726   14.3081 C   0  0  0  0  0  0  0  0  0  0  0  0
    7.4297    7.5873   24.8962 C   0  0  0  0  0  0  0  0  0  0  0  0
    8.1566   10.0536   16.0516 O   0  0  0  0  0  0  0  0  0  0  0  0
   12.4989    6.2074   20.1776 C   0  0  0  0  0  0  0  0  0  0  0  0
    6.9192    9.1053   20.9073 O   0  0  0  0  0  0  0  0  0  0  0  0
   14.3979    6.0729   18.7784 C   0  0  0  0  0  0  0  0  0  0  0  0
    8.6811    9.5354   16.9998 C   0  0  0  0  0  0  0  0  0  0  0  0
    9.2512    4.2713   13.7653 O   0  0  0  0  0  0  0  0  0  0  0  0
    9.6495    8.6317   16.8332 N   0  0  0  0  0  0  0  0  0  0  0  0
    6.2934    8.6988   23.1988 O   0  0  0  0  0  0  0  0  0  0  0  0
    7.9806    8.6543   20.5437 C   0  0  0  0  0  0  0  0  0  0  0  0
   13.7270    5.7144   19.8610 O   0  0  0  0  0  0  0  0  0  0  0  0
    8.3351    5.5235   15.4478 C   0  0  0  0  0  0  0  0  0  0  0  0
    8.7700    7.8434   21.3915 C   0  0  0  0  0  0  0  0  0  0  0  0
   11.7856    6.8851   19.2401 C   0  0  0  0  0  0  0  0  0  0  0  0
   10.5281    7.4276   19.5649 C   0  0  0  0  0  0  0  0  0  0  0  0
   10.0256    7.2907   20.8484 C   0  0  0  0  0  0  0  0  0  0  0  0
    9.3113    5.3049   14.4911 C   0  0  0  0  0  0  0  0  0  0  0  0
    9.4607    7.5646   16.0139 C   0  0  0  0  0  0  0  0  0  0  0  0
   10.4192    7.3157   15.0955 C   0  0  0  0  0  0  0  0  0  0  0  0
   10.2489    6.4227   23.0218 N   0  0  0  0  0  0  0  0  0  0  0  0
    7.2472    8.0746   23.5050 C   0  0  0  0  0  0  0  0  0  0  0  0
    9.2051    6.9101   23.4604 C   0  0  0  0  0  0  0  0  0  0  0  0
   11.9646    6.0299   21.4251 C   0  0  0  0  0  0  0  0  0  0  0  0
  1  5  1  0
  1 13  1  0
  2 20  2  0
  2 28  1  0
  2 29  1  0
  3 19  4  0
  3 25  4  0
  4 23  4  0
  4 27  1  0
  4 30  4  0
  5 17  1  0
  6  8  1  0
  6 29  1  0
  7 24  4  0
  7 26  4  0
  8 28  1  0
  9 13  2  0
 10 18  1  0
 10 21  4  0
 10 30  4  0
 11 17  2  0
 12 18  1  0
 13 15  1  0
 14 24  1  0
 15 25  1  0
 16 28  2  0
 17 20  1  0
 19 24  4  0
 20 23  1  0
 21 22  4  0
 22 23  4  0
 25 26  4  0
 27 29  2  0
M  END
$$$$

 Created by Python create_sdf_string function

 30 33  0  0  0  0  0  0  0  0999 V2000
    8.3036    9.8571   18.4133 C   0  0  0  0  0  0  0  0  0  0  0  0
    8.3694    7.6612   22.6703 C   0  0  0  0  0  0  0  0  0  0  0  0
    8.4143    6.6863   16.2273 C   0  0  0  0  0  0  0  0  0  0  0  0
   10.7581    6.5674   21.7636 C   0  0  0  0  0  0  0  0  0  0  0  0
    8.4452    8.7960   19.2958 O   0  0  0  0  0  0  0  0  0  0  0  0
    8.7122    6.7842   24.8569 C   0  0  0  0  0  0  0  0  0  0  0  0
   10.3400    6.1726   14.3081 C   0  0  0  0  0  0  0  0  0  0  0  0
    7.4297    7.5873   24.8962 C   0  0  0  0  0  0  0  0  0  0  0  0
    8.1566   10.0536   16.0516 O   0  0  0  0  0  0  0  0  0  0  0  0
   12.4989    6.2074   20.1776 C   0  0  0  0  0  0  0  0  0  0  0  0
    6.9192    9.1053   20.9073 O   0  0  0  0  0  0  0  0  0  0  0  0
   14.3979    6.0729   18.7784 C   0  0  0  0  0  0  0  0  0  0  0  0
    8.6811    9.5354   16.9998 C   0  0  0  0  0  0  0  0  0  0  0  0
    9.2512    4.2713   13.7653 O   0  0  0  0  0  0  0  0  0  0  0  0
    9.6495    8.6317   16.8332 N   0  0  0  0  0  0  0  0  0  0  0  0
    6.2934    8.6988   23.1988 O   0  0  0  0  0  0  0  0  0  0  0  0
    7.9806    8.6543   20.5437 C   0  0  0  0  0  0  0  0  0  0  0  0
   13.7270    5.7144   19.8610 O   0  0  0  0  0  0  0  0  0  0  0  0
    8.3351    5.5235   15.4478 C   0  0  0  0  0  0  0  0  0  0  0  0
    8.7700    7.8434   21.3915 C   0  0  0  0  0  0  0  0  0  0  0  0
   11.7856    6.8851   19.2401 C   0  0  0  0  0  0  0  0  0  0  0  0
   10.5281    7.4276   19.5649 C   0  0  0  0  0  0  0  0  0  0  0  0
   10.0256    7.2907   20.8484 C   0  0  0  0  0  0  0  0  0  0  0  0
    9.3113    5.3049   14.4911 C   0  0  0  0  0  0  0  0  0  0  0  0
    9.4607    7.5646   16.0139 C   0  0  0  0  0  0  0  0  0  0  0  0
   10.4192    7.3157   15.0955 C   0  0  0  0  0  0  0  0  0  0  0  0
   10.2489    6.4227   23.0218 N   0  0  0  0  0  0  0  0  0  0  0  0
    7.2472    8.0746   23.5050 C   0  0  0  0  0  0  0  0  0  0  0  0
    9.2051    6.9101   23.4604 C   0  0  0  0  0  0  0  0  0  0  0  0
   11.9646    6.0299   21.4251 C   0  0  0  0  0  0  0  0  0  0  0  0
  1  5  1  0
  1 13  1  0
  2 20  2  0
  2 28  1  0
  2 29  1  0
  3 19  4  0
  3 25  4  0
  4 23  4  0
  4 27  1  0
  4 30  4  0
  5 17  1  0
  6  8  1  0
  6 29  1  0
  7 24  4  0
  7 26  4  0
  8 28  1  0
  9 13  2  0
 10 18  1  0
 10 21  4  0
 10 30  4  0
 11 17  2  0
 12 18  1  0
 13 15  1  0
 14 24  1  0
 15 25  1  0
 16 28  2  0
 17 20  1  0
 19 24  4  0
 20 23  1  0
 21 22  4  0
 22 23  4  0
 25 26  4  0
 27 29  2  0
M  END
$$$$

 Created by Python create_sdf_string function

 30 33  0  0  0  0  0  0  0  0999 V2000
    8.3036    9.8571   18.4133 C   0  0  0  0  0  0  0  0  0  0  0  0
    8.3694    7.6612   22.6703 C   0  0  0  0  0  0  0  0  0  0  0  0
    8.4143    6.6863   16.2273 C   0  0  0  0  0  0  0  0  0  0  0  0
   10.7581    6.5674   21.7636 C   0  0  0  0  0  0  0  0  0  0  0  0
    8.4452    8.7960   19.2958 O   0  0  0  0  0  0  0  0  0  0  0  0
    8.7122    6.7842   24.8569 C   0  0  0  0  0  0  0  0  0  0  0  0
   10.3400    6.1726   14.3081 C   0  0  0  0  0  0  0  0  0  0  0  0
    7.4297    7.5873   24.8962 C   0  0  0  0  0  0  0  0  0  0  0  0
    8.1566   10.0536   16.0516 O   0  0  0  0  0  0  0  0  0  0  0  0
   12.4989    6.2074   20.1776 C   0  0  0  0  0  0  0  0  0  0  0  0
    6.9192    9.1053   20.9073 O   0  0  0  0  0  0  0  0  0  0  0  0
   14.3979    6.0729   18.7784 C   0  0  0  0  0  0  0  0  0  0  0  0
    8.6811    9.5354   16.9998 C   0  0  0  0  0  0  0  0  0  0  0  0
    9.2512    4.2713   13.7653 O   0  0  0  0  0  0  0  0  0  0  0  0
    9.6495    8.6317   16.8332 N   0  0  0  0  0  0  0  0  0  0  0  0
    6.2934    8.6988   23.1988 O   0  0  0  0  0  0  0  0  0  0  0  0
    7.9806    8.6543   20.5437 C   0  0  0  0  0  0  0  0  0  0  0  0
   13.7270    5.7144   19.8610 O   0  0  0  0  0  0  0  0  0  0  0  0
    8.3351    5.5235   15.4478 C   0  0  0  0  0  0  0  0  0  0  0  0
    8.7700    7.8434   21.3915 C   0  0  0  0  0  0  0  0  0  0  0  0
   11.7856    6.8851   19.2401 C   0  0  0  0  0  0  0  0  0  0  0  0
   10.5281    7.4276   19.5649 C   0  0  0  0  0  0  0  0  0  0  0  0
   10.0256    7.2907   20.8484 C   0  0  0  0  0  0  0  0  0  0  0  0
    9.3113    5.3049   14.4911 C   0  0  0  0  0  0  0  0  0  0  0  0
    9.4607    7.5646   16.0139 C   0  0  0  0  0  0  0  0  0  0  0  0
   10.4192    7.3157   15.0955 C   0  0  0  0  0  0  0  0  0  0  0  0
   10.2489    6.4227   23.0218 N   0  0  0  0  0  0  0  0  0  0  0  0
    7.2472    8.0746   23.5050 C   0  0  0  0  0  0  0  0  0  0  0  0
    9.2051    6.9101   23.4604 C   0  0  0  0  0  0  0  0  0  0  0  0
   11.9646    6.0299   21.4251 C   0  0  0  0  0  0  0  0  0  0  0  0
  1  5  1  0
  1 13  1  0
  2 20  2  0
  2 28  1  0
  2 29  1  0
  3 19  4  0
  3 25  4  0
  4 23  4  0
  4 27  1  0
  4 30  4  0
  5 17  1  0
  6  8  1  0
  6 29  1  0
  7 24  4  0
  7 26  4  0
  8 28  1  0
  9 13  2  0
 10 18  1  0
 10 21  4  0
 10 30  4  0
 11 17  2  0
 12 18  1  0
 13 15  1  0
 14 24  1  0
 15 25  1  0
 16 28  2  0
 17 20  1  0
 19 24  4  0
 20 23  1  0
 21 22  4  0
 22 23  4  0
 25 26  4  0
 27 29  2  0
M  END
$$$$

 Created by Python create_sdf_string function

 30 33  0  0  0  0  0  0  0  0999 V2000
    8.3036    9.8571   18.4133 C   0  0  0  0  0  0  0  0  0  0  0  0
    8.3694    7.6612   22.6703 C   0  0  0  0  0  0  0  0  0  0  0  0
    8.4143    6.6863   16.2273 C   0  0  0  0  0  0  0  0  0  0  0  0
   10.7581    6.5674   21.7636 C   0  0  0  0  0  0  0  0  0  0  0  0
    8.4452    8.7960   19.2958 O   0  0  0  0  0  0  0  0  0  0  0  0
    8.7122    6.7842   24.8569 C   0  0  0  0  0  0  0  0  0  0  0  0
   10.3400    6.1726   14.3081 C   0  0  0  0  0  0  0  0  0  0  0  0
    7.4297    7.5873   24.8962 C   0  0  0  0  0  0  0  0  0  0  0  0
    8.1566   10.0536   16.0516 O   0  0  0  0  0  0  0  0  0  0  0  0
   12.4989    6.2074   20.1776 C   0  0  0  0  0  0  0  0  0  0  0  0
    6.9192    9.1053   20.9073 O   0  0  0  0  0  0  0  0  0  0  0  0
   14.3979    6.0729   18.7784 C   0  0  0  0  0  0  0  0  0  0  0  0
    8.6811    9.5354   16.9998 C   0  0  0  0  0  0  0  0  0  0  0  0
    9.2512    4.2713   13.7653 O   0  0  0  0  0  0  0  0  0  0  0  0
    9.6495    8.6317   16.8332 N   0  0  0  0  0  0  0  0  0  0  0  0
    6.2934    8.6988   23.1988 O   0  0  0  0  0  0  0  0  0  0  0  0
    7.9806    8.6543   20.5437 C   0  0  0  0  0  0  0  0  0  0  0  0
   13.7270    5.7144   19.8610 O   0  0  0  0  0  0  0  0  0  0  0  0
    8.3351    5.5235   15.4478 C   0  0  0  0  0  0  0  0  0  0  0  0
    8.7700    7.8434   21.3915 C   0  0  0  0  0  0  0  0  0  0  0  0
   11.7856    6.8851   19.2401 C   0  0  0  0  0  0  0  0  0  0  0  0
   10.5281    7.4276   19.5649 C   0  0  0  0  0  0  0  0  0  0  0  0
   10.0256    7.2907   20.8484 C   0  0  0  0  0  0  0  0  0  0  0  0
    9.3113    5.3049   14.4911 C   0  0  0  0  0  0  0  0  0  0  0  0
    9.4607    7.5646   16.0139 C   0  0  0  0  0  0  0  0  0  0  0  0
   10.4192    7.3157   15.0955 C   0  0  0  0  0  0  0  0  0  0  0  0
   10.2489    6.4227   23.0218 N   0  0  0  0  0  0  0  0  0  0  0  0
    7.2472    8.0746   23.5050 C   0  0  0  0  0  0  0  0  0  0  0  0
    9.2051    6.9101   23.4604 C   0  0  0  0  0  0  0  0  0  0  0  0
   11.9646    6.0299   21.4251 C   0  0  0  0  0  0  0  0  0  0  0  0
  1  5  1  0
  1 13  1  0
  2 20  2  0
  2 28  1  0
  2 29  1  0
  3 19  4  0
  3 25  4  0
  4 23  4  0
  4 27  1  0
  4 30  4  0
  5 17  1  0
  6  8  1  0
  6 29  1  0
  7 24  4  0
  7 26  4  0
  8 28  1  0
  9 13  2  0
 10 18  1  0
 10 21  4  0
 10 30  4  0
 11 17  2  0
 12 18  1  0
 13 15  1  0
 14 24  1  0
 15 25  1  0
 16 28  2  0
 17 20  1  0
 19 24  4  0
 20 23  1  0
 21 22  4  0
 22 23  4  0
 25 26  4  0
 27 29  2  0
M  END
$$$$

 Created by Python create_sdf_string function

 30 33  0  0  0  0  0  0  0  0999 V2000
    8.3036    9.8571   18.4133 C   0  0  0  0  0  0  0  0  0  0  0  0
    8.3694    7.6612   22.6703 C   0  0  0  0  0  0  0  0  0  0  0  0
    8.4143    6.6863   16.2273 C   0  0  0  0  0  0  0  0  0  0  0  0
   10.7581    6.5674   21.7636 C   0  0  0  0  0  0  0  0  0  0  0  0
    8.4452    8.7960   19.2958 O   0  0  0  0  0  0  0  0  0  0  0  0
    8.7122    6.7842   24.8569 C   0  0  0  0  0  0  0  0  0  0  0  0
   10.3400    6.1726   14.3081 C   0  0  0  0  0  0  0  0  0  0  0  0
    7.4297    7.5873   24.8962 C   0  0  0  0  0  0  0  0  0  0  0  0
    8.1566   10.0536   16.0516 O   0  0  0  0  0  0  0  0  0  0  0  0
   12.4989    6.2074   20.1776 C   0  0  0  0  0  0  0  0  0  0  0  0
    6.9192    9.1053   20.9073 O   0  0  0  0  0  0  0  0  0  0  0  0
   14.3979    6.0729   18.7784 C   0  0  0  0  0  0  0  0  0  0  0  0
    8.6811    9.5354   16.9998 C   0  0  0  0  0  0  0  0  0  0  0  0
    9.2512    4.2713   13.7653 O   0  0  0  0  0  0  0  0  0  0  0  0
    9.6495    8.6317   16.8332 N   0  0  0  0  0  0  0  0  0  0  0  0
    6.2934    8.6988   23.1988 O   0  0  0  0  0  0  0  0  0  0  0  0
    7.9806    8.6543   20.5437 C   0  0  0  0  0  0  0  0  0  0  0  0
   13.7270    5.7144   19.8610 O   0  0  0  0  0  0  0  0  0  0  0  0
    8.3351    5.5235   15.4478 C   0  0  0  0  0  0  0  0  0  0  0  0
    8.7700    7.8434   21.3915 C   0  0  0  0  0  0  0  0  0  0  0  0
   11.7856    6.8851   19.2401 C   0  0  0  0  0  0  0  0  0  0  0  0
   10.5281    7.4276   19.5649 C   0  0  0  0  0  0  0  0  0  0  0  0
   10.0256    7.2907   20.8484 C   0  0  0  0  0  0  0  0  0  0  0  0
    9.3113    5.3049   14.4911 C   0  0  0  0  0  0  0  0  0  0  0  0
    9.4607    7.5646   16.0139 C   0  0  0  0  0  0  0  0  0  0  0  0
   10.4192    7.3157   15.0955 C   0  0  0  0  0  0  0  0  0  0  0  0
   10.2489    6.4227   23.0218 N   0  0  0  0  0  0  0  0  0  0  0  0
    7.2472    8.0746   23.5050 C   0  0  0  0  0  0  0  0  0  0  0  0
    9.2051    6.9101   23.4604 C   0  0  0  0  0  0  0  0  0  0  0  0
   11.9646    6.0299   21.4251 C   0  0  0  0  0  0  0  0  0  0  0  0
  1  5  1  0
  1 13  1  0
  2 20  2  0
  2 28  1  0
  2 29  1  0
  3 19  4  0
  3 25  4  0
  4 23  4  0
  4 27  1  0
  4 30  4  0
  5 17  1  0
  6  8  1  0
  6 29  1  0
  7 24  4  0
  7 26  4  0
  8 28  1  0
  9 13  2  0
 10 18  1  0
 10 21  4  0
 10 30  4  0
 11 17  2  0
 12 18  1  0
 13 15  1  0
 14 24  1  0
 15 25  1  0
 16 28  2  0
 17 20  1  0
 19 24  4  0
 20 23  1  0
 21 22  4  0
 22 23  4  0
 25 26  4  0
 27 29  2  0
M  END
$$$$

 Created by Python create_sdf_string function

 30 33  0  0  0  0  0  0  0  0999 V2000
    8.3036    9.8571   18.4133 C   0  0  0  0  0  0  0  0  0  0  0  0
    8.3694    7.6612   22.6703 C   0  0  0  0  0  0  0  0  0  0  0  0
    8.4143    6.6863   16.2273 C   0  0  0  0  0  0  0  0  0  0  0  0
   10.7581    6.5674   21.7636 C   0  0  0  0  0  0  0  0  0  0  0  0
    8.4452    8.7960   19.2958 O   0  0  0  0  0  0  0  0  0  0  0  0
    8.7122    6.7842   24.8569 C   0  0  0  0  0  0  0  0  0  0  0  0
   10.3400    6.1726   14.3081 C   0  0  0  0  0  0  0  0  0  0  0  0
    7.4297    7.5873   24.8962 C   0  0  0  0  0  0  0  0  0  0  0  0
    8.1566   10.0536   16.0516 O   0  0  0  0  0  0  0  0  0  0  0  0
   12.4989    6.2074   20.1776 C   0  0  0  0  0  0  0  0  0  0  0  0
    6.9192    9.1053   20.9073 O   0  0  0  0  0  0  0  0  0  0  0  0
   14.3979    6.0729   18.7784 C   0  0  0  0  0  0  0  0  0  0  0  0
    8.6811    9.5354   16.9998 C   0  0  0  0  0  0  0  0  0  0  0  0
    9.2512    4.2713   13.7653 O   0  0  0  0  0  0  0  0  0  0  0  0
    9.6495    8.6317   16.8332 N   0  0  0  0  0  0  0  0  0  0  0  0
    6.2934    8.6988   23.1988 O   0  0  0  0  0  0  0  0  0  0  0  0
    7.9806    8.6543   20.5437 C   0  0  0  0  0  0  0  0  0  0  0  0
   13.7270    5.7144   19.8610 O   0  0  0  0  0  0  0  0  0  0  0  0
    8.3351    5.5235   15.4478 C   0  0  0  0  0  0  0  0  0  0  0  0
    8.7700    7.8434   21.3915 C   0  0  0  0  0  0  0  0  0  0  0  0
   11.7856    6.8851   19.2401 C   0  0  0  0  0  0  0  0  0  0  0  0
   10.5281    7.4276   19.5649 C   0  0  0  0  0  0  0  0  0  0  0  0
   10.0256    7.2907   20.8484 C   0  0  0  0  0  0  0  0  0  0  0  0
    9.3113    5.3049   14.4911 C   0  0  0  0  0  0  0  0  0  0  0  0
    9.4607    7.5646   16.0139 C   0  0  0  0  0  0  0  0  0  0  0  0
   10.4192    7.3157   15.0955 C   0  0  0  0  0  0  0  0  0  0  0  0
   10.2489    6.4227   23.0218 N   0  0  0  0  0  0  0  0  0  0  0  0
    7.2472    8.0746   23.5050 C   0  0  0  0  0  0  0  0  0  0  0  0
    9.2051    6.9101   23.4604 C   0  0  0  0  0  0  0  0  0  0  0  0
   11.9646    6.0299   21.4251 C   0  0  0  0  0  0  0  0  0  0  0  0
  1  5  1  0
  1 13  1  0
  2 20  2  0
  2 28  1  0
  2 29  1  0
  3 19  4  0
  3 25  4  0
  4 23  4  0
  4 27  1  0
  4 30  4  0
  5 17  1  0
  6  8  1  0
  6 29  1  0
  7 24  4  0
  7 26  4  0
  8 28  1  0
  9 13  2  0
 10 18  1  0
 10 21  4  0
 10 30  4  0
 11 17  2  0
 12 18  1  0
 13 15  1  0
 14 24  1  0
 15 25  1  0
 16 28  2  0
 17 20  1  0
 19 24  4  0
 20 23  1  0
 21 22  4  0
 22 23  4  0
 25 26  4  0
 27 29  2  0
M  END
$$$$

 Created by Python create_sdf_string function

 30 33  0  0  0  0  0  0  0  0999 V2000
    8.3036    9.8571   18.4133 C   0  0  0  0  0  0  0  0  0  0  0  0
    8.3694    7.6612   22.6703 C   0  0  0  0  0  0  0  0  0  0  0  0
    8.4143    6.6863   16.2273 C   0  0  0  0  0  0  0  0  0  0  0  0
   10.7581    6.5674   21.7636 C   0  0  0  0  0  0  0  0  0  0  0  0
    8.4452    8.7960   19.2958 O   0  0  0  0  0  0  0  0  0  0  0  0
    8.7122    6.7842   24.8569 C   0  0  0  0  0  0  0  0  0  0  0  0
   10.3400    6.1726   14.3081 C   0  0  0  0  0  0  0  0  0  0  0  0
    7.4297    7.5873   24.8962 C   0  0  0  0  0  0  0  0  0  0  0  0
    8.1566   10.0536   16.0516 O   0  0  0  0  0  0  0  0  0  0  0  0
   12.4989    6.2074   20.1776 C   0  0  0  0  0  0  0  0  0  0  0  0
    6.9192    9.1053   20.9073 O   0  0  0  0  0  0  0  0  0  0  0  0
   14.3979    6.0729   18.7784 C   0  0  0  0  0  0  0  0  0  0  0  0
    8.6811    9.5354   16.9998 C   0  0  0  0  0  0  0  0  0  0  0  0
    9.2512    4.2713   13.7653 O   0  0  0  0  0  0  0  0  0  0  0  0
    9.6495    8.6317   16.8332 N   0  0  0  0  0  0  0  0  0  0  0  0
    6.2934    8.6988   23.1988 O   0  0  0  0  0  0  0  0  0  0  0  0
    7.9806    8.6543   20.5437 C   0  0  0  0  0  0  0  0  0  0  0  0
   13.7270    5.7144   19.8610 O   0  0  0  0  0  0  0  0  0  0  0  0
    8.3351    5.5235   15.4478 C   0  0  0  0  0  0  0  0  0  0  0  0
    8.7700    7.8434   21.3915 C   0  0  0  0  0  0  0  0  0  0  0  0
   11.7856    6.8851   19.2401 C   0  0  0  0  0  0  0  0  0  0  0  0
   10.5281    7.4276   19.5649 C   0  0  0  0  0  0  0  0  0  0  0  0
   10.0256    7.2907   20.8484 C   0  0  0  0  0  0  0  0  0  0  0  0
    9.3113    5.3049   14.4911 C   0  0  0  0  0  0  0  0  0  0  0  0
    9.4607    7.5646   16.0139 C   0  0  0  0  0  0  0  0  0  0  0  0
   10.4192    7.3157   15.0955 C   0  0  0  0  0  0  0  0  0  0  0  0
   10.2489    6.4227   23.0218 N   0  0  0  0  0  0  0  0  0  0  0  0
    7.2472    8.0746   23.5050 C   0  0  0  0  0  0  0  0  0  0  0  0
    9.2051    6.9101   23.4604 C   0  0  0  0  0  0  0  0  0  0  0  0
   11.9646    6.0299   21.4251 C   0  0  0  0  0  0  0  0  0  0  0  0
  1  5  1  0
  1 13  1  0
  2 20  2  0
  2 28  1  0
  2 29  1  0
  3 19  4  0
  3 25  4  0
  4 23  4  0
  4 27  1  0
  4 30  4  0
  5 17  1  0
  6  8  1  0
  6 29  1  0
  7 24  4  0
  7 26  4  0
  8 28  1  0
  9 13  2  0
 10 18  1  0
 10 21  4  0
 10 30  4  0
 11 17  2  0
 12 18  1  0
 13 15  1  0
 14 24  1  0
 15 25  1  0
 16 28  2  0
 17 20  1  0
 19 24  4  0
 20 23  1  0
 21 22  4  0
 22 23  4  0
 25 26  4  0
 27 29  2  0
M  END
$$$$

 Created by Python create_sdf_string function

 30 33  0  0  0  0  0  0  0  0999 V2000
    8.3036    9.8571   18.4133 C   0  0  0  0  0  0  0  0  0  0  0  0
    8.3694    7.6612   22.6703 C   0  0  0  0  0  0  0  0  0  0  0  0
    8.4143    6.6863   16.2273 C   0  0  0  0  0  0  0  0  0  0  0  0
   10.7581    6.5674   21.7636 C   0  0  0  0  0  0  0  0  0  0  0  0
    8.4452    8.7960   19.2958 O   0  0  0  0  0  0  0  0  0  0  0  0
    8.7122    6.7842   24.8569 C   0  0  0  0  0  0  0  0  0  0  0  0
   10.3400    6.1726   14.3081 C   0  0  0  0  0  0  0  0  0  0  0  0
    7.4297    7.5873   24.8962 C   0  0  0  0  0  0  0  0  0  0  0  0
    8.1566   10.0536   16.0516 O   0  0  0  0  0  0  0  0  0  0  0  0
   12.4989    6.2074   20.1776 C   0  0  0  0  0  0  0  0  0  0  0  0
    6.9192    9.1053   20.9073 O   0  0  0  0  0  0  0  0  0  0  0  0
   14.3979    6.0729   18.7784 C   0  0  0  0  0  0  0  0  0  0  0  0
    8.6811    9.5354   16.9998 C   0  0  0  0  0  0  0  0  0  0  0  0
    9.2512    4.2713   13.7653 O   0  0  0  0  0  0  0  0  0  0  0  0
    9.6495    8.6317   16.8332 N   0  0  0  0  0  0  0  0  0  0  0  0
    6.2934    8.6988   23.1988 O   0  0  0  0  0  0  0  0  0  0  0  0
    7.9806    8.6543   20.5437 C   0  0  0  0  0  0  0  0  0  0  0  0
   13.7270    5.7144   19.8610 O   0  0  0  0  0  0  0  0  0  0  0  0
    8.3351    5.5235   15.4478 C   0  0  0  0  0  0  0  0  0  0  0  0
    8.7700    7.8434   21.3915 C   0  0  0  0  0  0  0  0  0  0  0  0
   11.7856    6.8851   19.2401 C   0  0  0  0  0  0  0  0  0  0  0  0
   10.5281    7.4276   19.5649 C   0  0  0  0  0  0  0  0  0  0  0  0
   10.0256    7.2907   20.8484 C   0  0  0  0  0  0  0  0  0  0  0  0
    9.3113    5.3049   14.4911 C   0  0  0  0  0  0  0  0  0  0  0  0
    9.4607    7.5646   16.0139 C   0  0  0  0  0  0  0  0  0  0  0  0
   10.4192    7.3157   15.0955 C   0  0  0  0  0  0  0  0  0  0  0  0
   10.2489    6.4227   23.0218 N   0  0  0  0  0  0  0  0  0  0  0  0
    7.2472    8.0746   23.5050 C   0  0  0  0  0  0  0  0  0  0  0  0
    9.2051    6.9101   23.4604 C   0  0  0  0  0  0  0  0  0  0  0  0
   11.9646    6.0299   21.4251 C   0  0  0  0  0  0  0  0  0  0  0  0
  1  5  1  0
  1 13  1  0
  2 20  2  0
  2 28  1  0
  2 29  1  0
  3 19  4  0
  3 25  4  0
  4 23  4  0
  4 27  1  0
  4 30  4  0
  5 17  1  0
  6  8  1  0
  6 29  1  0
  7 24  4  0
  7 26  4  0
  8 28  1  0
  9 13  2  0
 10 18  1  0
 10 21  4  0
 10 30  4  0
 11 17  2  0
 12 18  1  0
 13 15  1  0
 14 24  1  0
 15 25  1  0
 16 28  2  0
 17 20  1  0
 19 24  4  0
 20 23  1  0
 21 22  4  0
 22 23  4  0
 25 26  4  0
 27 29  2  0
M  END
$$$$

 Created by Python create_sdf_string function

 30 33  0  0  0  0  0  0  0  0999 V2000
    8.3036    9.8571   18.4133 C   0  0  0  0  0  0  0  0  0  0  0  0
    8.3694    7.6612   22.6703 C   0  0  0  0  0  0  0  0  0  0  0  0
    8.4143    6.6863   16.2273 C   0  0  0  0  0  0  0  0  0  0  0  0
   10.7581    6.5674   21.7636 C   0  0  0  0  0  0  0  0  0  0  0  0
    8.4452    8.7960   19.2958 O   0  0  0  0  0  0  0  0  0  0  0  0
    8.7122    6.7842   24.8569 C   0  0  0  0  0  0  0  0  0  0  0  0
   10.3400    6.1726   14.3081 C   0  0  0  0  0  0  0  0  0  0  0  0
    7.4297    7.5873   24.8962 C   0  0  0  0  0  0  0  0  0  0  0  0
    8.1566   10.0536   16.0516 O   0  0  0  0  0  0  0  0  0  0  0  0
   12.4989    6.2074   20.1776 C   0  0  0  0  0  0  0  0  0  0  0  0
    6.9192    9.1053   20.9073 O   0  0  0  0  0  0  0  0  0  0  0  0
   14.3979    6.0729   18.7784 C   0  0  0  0  0  0  0  0  0  0  0  0
    8.6811    9.5354   16.9998 C   0  0  0  0  0  0  0  0  0  0  0  0
    9.2512    4.2713   13.7653 O   0  0  0  0  0  0  0  0  0  0  0  0
    9.6495    8.6317   16.8332 N   0  0  0  0  0  0  0  0  0  0  0  0
    6.2934    8.6988   23.1988 O   0  0  0  0  0  0  0  0  0  0  0  0
    7.9806    8.6543   20.5437 C   0  0  0  0  0  0  0  0  0  0  0  0
   13.7270    5.7144   19.8610 O   0  0  0  0  0  0  0  0  0  0  0  0
    8.3351    5.5235   15.4478 C   0  0  0  0  0  0  0  0  0  0  0  0
    8.7700    7.8434   21.3915 C   0  0  0  0  0  0  0  0  0  0  0  0
   11.7856    6.8851   19.2401 C   0  0  0  0  0  0  0  0  0  0  0  0
   10.5281    7.4276   19.5649 C   0  0  0  0  0  0  0  0  0  0  0  0
   10.0256    7.2907   20.8484 C   0  0  0  0  0  0  0  0  0  0  0  0
    9.3113    5.3049   14.4911 C   0  0  0  0  0  0  0  0  0  0  0  0
    9.4607    7.5646   16.0139 C   0  0  0  0  0  0  0  0  0  0  0  0
   10.4192    7.3157   15.0955 C   0  0  0  0  0  0  0  0  0  0  0  0
   10.2489    6.4227   23.0218 N   0  0  0  0  0  0  0  0  0  0  0  0
    7.2472    8.0746   23.5050 C   0  0  0  0  0  0  0  0  0  0  0  0
    9.2051    6.9101   23.4604 C   0  0  0  0  0  0  0  0  0  0  0  0
   11.9646    6.0299   21.4251 C   0  0  0  0  0  0  0  0  0  0  0  0
  1  5  1  0
  1 13  1  0
  2 20  2  0
  2 28  1  0
  2 29  1  0
  3 19  4  0
  3 25  4  0
  4 23  4  0
  4 27  1  0
  4 30  4  0
  5 17  1  0
  6  8  1  0
  6 29  1  0
  7 24  4  0
  7 26  4  0
  8 28  1  0
  9 13  2  0
 10 18  1  0
 10 21  4  0
 10 30  4  0
 11 17  2  0
 12 18  1  0
 13 15  1  0
 14 24  1  0
 15 25  1  0
 16 28  2  0
 17 20  1  0
 19 24  4  0
 20 23  1  0
 21 22  4  0
 22 23  4  0
 25 26  4  0
 27 29  2  0
M  END
$$$$

 Created by Python create_sdf_string function

 30 33  0  0  0  0  0  0  0  0999 V2000
    8.3036    9.8571   18.4133 C   0  0  0  0  0  0  0  0  0  0  0  0
    8.3694    7.6612   22.6703 C   0  0  0  0  0  0  0  0  0  0  0  0
    8.4143    6.6863   16.2273 C   0  0  0  0  0  0  0  0  0  0  0  0
   10.7581    6.5674   21.7636 C   0  0  0  0  0  0  0  0  0  0  0  0
    8.4452    8.7960   19.2958 O   0  0  0  0  0  0  0  0  0  0  0  0
    8.7122    6.7842   24.8569 C   0  0  0  0  0  0  0  0  0  0  0  0
   10.3400    6.1726   14.3081 C   0  0  0  0  0  0  0  0  0  0  0  0
    7.4297    7.5873   24.8962 C   0  0  0  0  0  0  0  0  0  0  0  0
    8.1566   10.0536   16.0516 O   0  0  0  0  0  0  0  0  0  0  0  0
   12.4989    6.2074   20.1776 C   0  0  0  0  0  0  0  0  0  0  0  0
    6.9192    9.1053   20.9073 O   0  0  0  0  0  0  0  0  0  0  0  0
   14.3979    6.0729   18.7784 C   0  0  0  0  0  0  0  0  0  0  0  0
    8.6811    9.5354   16.9998 C   0  0  0  0  0  0  0  0  0  0  0  0
    9.2512    4.2713   13.7653 O   0  0  0  0  0  0  0  0  0  0  0  0
    9.6495    8.6317   16.8332 N   0  0  0  0  0  0  0  0  0  0  0  0
    6.2934    8.6988   23.1988 O   0  0  0  0  0  0  0  0  0  0  0  0
    7.9806    8.6543   20.5437 C   0  0  0  0  0  0  0  0  0  0  0  0
   13.7270    5.7144   19.8610 O   0  0  0  0  0  0  0  0  0  0  0  0
    8.3351    5.5235   15.4478 C   0  0  0  0  0  0  0  0  0  0  0  0
    8.7700    7.8434   21.3915 C   0  0  0  0  0  0  0  0  0  0  0  0
   11.7856    6.8851   19.2401 C   0  0  0  0  0  0  0  0  0  0  0  0
   10.5281    7.4276   19.5649 C   0  0  0  0  0  0  0  0  0  0  0  0
   10.0256    7.2907   20.8484 C   0  0  0  0  0  0  0  0  0  0  0  0
    9.3113    5.3049   14.4911 C   0  0  0  0  0  0  0  0  0  0  0  0
    9.4607    7.5646   16.0139 C   0  0  0  0  0  0  0  0  0  0  0  0
   10.4192    7.3157   15.0955 C   0  0  0  0  0  0  0  0  0  0  0  0
   10.2489    6.4227   23.0218 N   0  0  0  0  0  0  0  0  0  0  0  0
    7.2472    8.0746   23.5050 C   0  0  0  0  0  0  0  0  0  0  0  0
    9.2051    6.9101   23.4604 C   0  0  0  0  0  0  0  0  0  0  0  0
   11.9646    6.0299   21.4251 C   0  0  0  0  0  0  0  0  0  0  0  0
  1  5  1  0
  1 13  1  0
  2 20  2  0
  2 28  1  0
  2 29  1  0
  3 19  4  0
  3 25  4  0
  4 23  4  0
  4 27  1  0
  4 30  4  0
  5 17  1  0
  6  8  1  0
  6 29  1  0
  7 24  4  0
  7 26  4  0
  8 28  1  0
  9 13  2  0
 10 18  1  0
 10 21  4  0
 10 30  4  0
 11 17  2  0
 12 18  1  0
 13 15  1  0
 14 24  1  0
 15 25  1  0
 16 28  2  0
 17 20  1  0
 19 24  4  0
 20 23  1  0
 21 22  4  0
 22 23  4  0
 25 26  4  0
 27 29  2  0
M  END
$$$$

 Created by Python create_sdf_string function

 30 33  0  0  0  0  0  0  0  0999 V2000
    8.3036    9.8571   18.4133 C   0  0  0  0  0  0  0  0  0  0  0  0
    8.3694    7.6612   22.6703 C   0  0  0  0  0  0  0  0  0  0  0  0
    8.4143    6.6863   16.2273 C   0  0  0  0  0  0  0  0  0  0  0  0
   10.7581    6.5674   21.7636 C   0  0  0  0  0  0  0  0  0  0  0  0
    8.4452    8.7960   19.2958 O   0  0  0  0  0  0  0  0  0  0  0  0
    8.7122    6.7842   24.8569 C   0  0  0  0  0  0  0  0  0  0  0  0
   10.3400    6.1726   14.3081 C   0  0  0  0  0  0  0  0  0  0  0  0
    7.4297    7.5873   24.8962 C   0  0  0  0  0  0  0  0  0  0  0  0
    8.1566   10.0536   16.0516 O   0  0  0  0  0  0  0  0  0  0  0  0
   12.4989    6.2074   20.1776 C   0  0  0  0  0  0  0  0  0  0  0  0
    6.9192    9.1053   20.9073 O   0  0  0  0  0  0  0  0  0  0  0  0
   14.3979    6.0729   18.7784 C   0  0  0  0  0  0  0  0  0  0  0  0
    8.6811    9.5354   16.9998 C   0  0  0  0  0  0  0  0  0  0  0  0
    9.2512    4.2713   13.7653 O   0  0  0  0  0  0  0  0  0  0  0  0
    9.6495    8.6317   16.8332 N   0  0  0  0  0  0  0  0  0  0  0  0
    6.2934    8.6988   23.1988 O   0  0  0  0  0  0  0  0  0  0  0  0
    7.9806    8.6543   20.5437 C   0  0  0  0  0  0  0  0  0  0  0  0
   13.7270    5.7144   19.8610 O   0  0  0  0  0  0  0  0  0  0  0  0
    8.3351    5.5235   15.4478 C   0  0  0  0  0  0  0  0  0  0  0  0
    8.7700    7.8434   21.3915 C   0  0  0  0  0  0  0  0  0  0  0  0
   11.7856    6.8851   19.2401 C   0  0  0  0  0  0  0  0  0  0  0  0
   10.5281    7.4276   19.5649 C   0  0  0  0  0  0  0  0  0  0  0  0
   10.0256    7.2907   20.8484 C   0  0  0  0  0  0  0  0  0  0  0  0
    9.3113    5.3049   14.4911 C   0  0  0  0  0  0  0  0  0  0  0  0
    9.4607    7.5646   16.0139 C   0  0  0  0  0  0  0  0  0  0  0  0
   10.4192    7.3157   15.0955 C   0  0  0  0  0  0  0  0  0  0  0  0
   10.2489    6.4227   23.0218 N   0  0  0  0  0  0  0  0  0  0  0  0
    7.2472    8.0746   23.5050 C   0  0  0  0  0  0  0  0  0  0  0  0
    9.2051    6.9101   23.4604 C   0  0  0  0  0  0  0  0  0  0  0  0
   11.9646    6.0299   21.4251 C   0  0  0  0  0  0  0  0  0  0  0  0
  1  5  1  0
  1 13  1  0
  2 20  2  0
  2 28  1  0
  2 29  1  0
  3 19  4  0
  3 25  4  0
  4 23  4  0
  4 27  1  0
  4 30  4  0
  5 17  1  0
  6  8  1  0
  6 29  1  0
  7 24  4  0
  7 26  4  0
  8 28  1  0
  9 13  2  0
 10 18  1  0
 10 21  4  0
 10 30  4  0
 11 17  2  0
 12 18  1  0
 13 15  1  0
 14 24  1  0
 15 25  1  0
 16 28  2  0
 17 20  1  0
 19 24  4  0
 20 23  1  0
 21 22  4  0
 22 23  4  0
 25 26  4  0
 27 29  2  0
M  END
$$$$

 Created by Python create_sdf_string function

 30 33  0  0  0  0  0  0  0  0999 V2000
    8.3036    9.8571   18.4133 C   0  0  0  0  0  0  0  0  0  0  0  0
    8.3694    7.6612   22.6703 C   0  0  0  0  0  0  0  0  0  0  0  0
    8.4143    6.6863   16.2273 C   0  0  0  0  0  0  0  0  0  0  0  0
   10.7581    6.5674   21.7636 C   0  0  0  0  0  0  0  0  0  0  0  0
    8.4452    8.7960   19.2958 O   0  0  0  0  0  0  0  0  0  0  0  0
    8.7122    6.7842   24.8569 C   0  0  0  0  0  0  0  0  0  0  0  0
   10.3400    6.1726   14.3081 C   0  0  0  0  0  0  0  0  0  0  0  0
    7.4297    7.5873   24.8962 C   0  0  0  0  0  0  0  0  0  0  0  0
    8.1566   10.0536   16.0516 O   0  0  0  0  0  0  0  0  0  0  0  0
   12.4989    6.2074   20.1776 C   0  0  0  0  0  0  0  0  0  0  0  0
    6.9192    9.1053   20.9073 O   0  0  0  0  0  0  0  0  0  0  0  0
   14.3979    6.0729   18.7784 C   0  0  0  0  0  0  0  0  0  0  0  0
    8.6811    9.5354   16.9998 C   0  0  0  0  0  0  0  0  0  0  0  0
    9.2512    4.2713   13.7653 O   0  0  0  0  0  0  0  0  0  0  0  0
    9.6495    8.6317   16.8332 N   0  0  0  0  0  0  0  0  0  0  0  0
    6.2934    8.6988   23.1988 O   0  0  0  0  0  0  0  0  0  0  0  0
    7.9806    8.6543   20.5437 C   0  0  0  0  0  0  0  0  0  0  0  0
   13.7270    5.7144   19.8610 O   0  0  0  0  0  0  0  0  0  0  0  0
    8.3351    5.5235   15.4478 C   0  0  0  0  0  0  0  0  0  0  0  0
    8.7700    7.8434   21.3915 C   0  0  0  0  0  0  0  0  0  0  0  0
   11.7856    6.8851   19.2401 C   0  0  0  0  0  0  0  0  0  0  0  0
   10.5281    7.4276   19.5649 C   0  0  0  0  0  0  0  0  0  0  0  0
   10.0256    7.2907   20.8484 C   0  0  0  0  0  0  0  0  0  0  0  0
    9.3113    5.3049   14.4911 C   0  0  0  0  0  0  0  0  0  0  0  0
    9.4607    7.5646   16.0139 C   0  0  0  0  0  0  0  0  0  0  0  0
   10.4192    7.3157   15.0955 C   0  0  0  0  0  0  0  0  0  0  0  0
   10.2489    6.4227   23.0218 N   0  0  0  0  0  0  0  0  0  0  0  0
    7.2472    8.0746   23.5050 C   0  0  0  0  0  0  0  0  0  0  0  0
    9.2051    6.9101   23.4604 C   0  0  0  0  0  0  0  0  0  0  0  0
   11.9646    6.0299   21.4251 C   0  0  0  0  0  0  0  0  0  0  0  0
  1  5  1  0
  1 13  1  0
  2 20  2  0
  2 28  1  0
  2 29  1  0
  3 19  4  0
  3 25  4  0
  4 23  4  0
  4 27  1  0
  4 30  4  0
  5 17  1  0
  6  8  1  0
  6 29  1  0
  7 24  4  0
  7 26  4  0
  8 28  1  0
  9 13  2  0
 10 18  1  0
 10 21  4  0
 10 30  4  0
 11 17  2  0
 12 18  1  0
 13 15  1  0
 14 24  1  0
 15 25  1  0
 16 28  2  0
 17 20  1  0
 19 24  4  0
 20 23  1  0
 21 22  4  0
 22 23  4  0
 25 26  4  0
 27 29  2  0
M  END
$$$$

 Created by Python create_sdf_string function

 30 33  0  0  0  0  0  0  0  0999 V2000
    8.3036    9.8571   18.4133 C   0  0  0  0  0  0  0  0  0  0  0  0
    8.3694    7.6612   22.6703 C   0  0  0  0  0  0  0  0  0  0  0  0
    8.4143    6.6863   16.2273 C   0  0  0  0  0  0  0  0  0  0  0  0
   10.7581    6.5674   21.7636 C   0  0  0  0  0  0  0  0  0  0  0  0
    8.4452    8.7960   19.2958 O   0  0  0  0  0  0  0  0  0  0  0  0
    8.7122    6.7842   24.8569 C   0  0  0  0  0  0  0  0  0  0  0  0
   10.3400    6.1726   14.3081 C   0  0  0  0  0  0  0  0  0  0  0  0
    7.4297    7.5873   24.8962 C   0  0  0  0  0  0  0  0  0  0  0  0
    8.1566   10.0536   16.0516 O   0  0  0  0  0  0  0  0  0  0  0  0
   12.4989    6.2074   20.1776 C   0  0  0  0  0  0  0  0  0  0  0  0
    6.9192    9.1053   20.9073 O   0  0  0  0  0  0  0  0  0  0  0  0
   14.3979    6.0729   18.7784 C   0  0  0  0  0  0  0  0  0  0  0  0
    8.6811    9.5354   16.9998 C   0  0  0  0  0  0  0  0  0  0  0  0
    9.2512    4.2713   13.7653 O   0  0  0  0  0  0  0  0  0  0  0  0
    9.6495    8.6317   16.8332 N   0  0  0  0  0  0  0  0  0  0  0  0
    6.2934    8.6988   23.1988 O   0  0  0  0  0  0  0  0  0  0  0  0
    7.9806    8.6543   20.5437 C   0  0  0  0  0  0  0  0  0  0  0  0
   13.7270    5.7144   19.8610 O   0  0  0  0  0  0  0  0  0  0  0  0
    8.3351    5.5235   15.4478 C   0  0  0  0  0  0  0  0  0  0  0  0
    8.7700    7.8434   21.3915 C   0  0  0  0  0  0  0  0  0  0  0  0
   11.7856    6.8851   19.2401 C   0  0  0  0  0  0  0  0  0  0  0  0
   10.5281    7.4276   19.5649 C   0  0  0  0  0  0  0  0  0  0  0  0
   10.0256    7.2907   20.8484 C   0  0  0  0  0  0  0  0  0  0  0  0
    9.3113    5.3049   14.4911 C   0  0  0  0  0  0  0  0  0  0  0  0
    9.4607    7.5646   16.0139 C   0  0  0  0  0  0  0  0  0  0  0  0
   10.4192    7.3157   15.0955 C   0  0  0  0  0  0  0  0  0  0  0  0
   10.2489    6.4227   23.0218 N   0  0  0  0  0  0  0  0  0  0  0  0
    7.2472    8.0746   23.5050 C   0  0  0  0  0  0  0  0  0  0  0  0
    9.2051    6.9101   23.4604 C   0  0  0  0  0  0  0  0  0  0  0  0
   11.9646    6.0299   21.4251 C   0  0  0  0  0  0  0  0  0  0  0  0
  1  5  1  0
  1 13  1  0
  2 20  2  0
  2 28  1  0
  2 29  1  0
  3 19  4  0
  3 25  4  0
  4 23  4  0
  4 27  1  0
  4 30  4  0
  5 17  1  0
  6  8  1  0
  6 29  1  0
  7 24  4  0
  7 26  4  0
  8 28  1  0
  9 13  2  0
 10 18  1  0
 10 21  4  0
 10 30  4  0
 11 17  2  0
 12 18  1  0
 13 15  1  0
 14 24  1  0
 15 25  1  0
 16 28  2  0
 17 20  1  0
 19 24  4  0
 20 23  1  0
 21 22  4  0
 22 23  4  0
 25 26  4  0
 27 29  2  0
M  END
$$$$

 Created by Python create_sdf_string function

 30 33  0  0  0  0  0  0  0  0999 V2000
    8.3036    9.8571   18.4133 C   0  0  0  0  0  0  0  0  0  0  0  0
    8.3694    7.6612   22.6703 C   0  0  0  0  0  0  0  0  0  0  0  0
    8.4143    6.6863   16.2273 C   0  0  0  0  0  0  0  0  0  0  0  0
   10.7581    6.5674   21.7636 C   0  0  0  0  0  0  0  0  0  0  0  0
    8.4452    8.7960   19.2958 O   0  0  0  0  0  0  0  0  0  0  0  0
    8.7122    6.7842   24.8569 C   0  0  0  0  0  0  0  0  0  0  0  0
   10.3400    6.1726   14.3081 C   0  0  0  0  0  0  0  0  0  0  0  0
    7.4297    7.5873   24.8962 C   0  0  0  0  0  0  0  0  0  0  0  0
    8.1566   10.0536   16.0516 O   0  0  0  0  0  0  0  0  0  0  0  0
   12.4989    6.2074   20.1776 C   0  0  0  0  0  0  0  0  0  0  0  0
    6.9192    9.1053   20.9073 O   0  0  0  0  0  0  0  0  0  0  0  0
   14.3979    6.0729   18.7784 C   0  0  0  0  0  0  0  0  0  0  0  0
    8.6811    9.5354   16.9998 C   0  0  0  0  0  0  0  0  0  0  0  0
    9.2512    4.2713   13.7653 O   0  0  0  0  0  0  0  0  0  0  0  0
    9.6495    8.6317   16.8332 N   0  0  0  0  0  0  0  0  0  0  0  0
    6.2934    8.6988   23.1988 O   0  0  0  0  0  0  0  0  0  0  0  0
    7.9806    8.6543   20.5437 C   0  0  0  0  0  0  0  0  0  0  0  0
   13.7270    5.7144   19.8610 O   0  0  0  0  0  0  0  0  0  0  0  0
    8.3351    5.5235   15.4478 C   0  0  0  0  0  0  0  0  0  0  0  0
    8.7700    7.8434   21.3915 C   0  0  0  0  0  0  0  0  0  0  0  0
   11.7856    6.8851   19.2401 C   0  0  0  0  0  0  0  0  0  0  0  0
   10.5281    7.4276   19.5649 C   0  0  0  0  0  0  0  0  0  0  0  0
   10.0256    7.2907   20.8484 C   0  0  0  0  0  0  0  0  0  0  0  0
    9.3113    5.3049   14.4911 C   0  0  0  0  0  0  0  0  0  0  0  0
    9.4607    7.5646   16.0139 C   0  0  0  0  0  0  0  0  0  0  0  0
   10.4192    7.3157   15.0955 C   0  0  0  0  0  0  0  0  0  0  0  0
   10.2489    6.4227   23.0218 N   0  0  0  0  0  0  0  0  0  0  0  0
    7.2472    8.0746   23.5050 C   0  0  0  0  0  0  0  0  0  0  0  0
    9.2051    6.9101   23.4604 C   0  0  0  0  0  0  0  0  0  0  0  0
   11.9646    6.0299   21.4251 C   0  0  0  0  0  0  0  0  0  0  0  0
  1  5  1  0
  1 13  1  0
  2 20  2  0
  2 28  1  0
  2 29  1  0
  3 19  4  0
  3 25  4  0
  4 23  4  0
  4 27  1  0
  4 30  4  0
  5 17  1  0
  6  8  1  0
  6 29  1  0
  7 24  4  0
  7 26  4  0
  8 28  1  0
  9 13  2  0
 10 18  1  0
 10 21  4  0
 10 30  4  0
 11 17  2  0
 12 18  1  0
 13 15  1  0
 14 24  1  0
 15 25  1  0
 16 28  2  0
 17 20  1  0
 19 24  4  0
 20 23  1  0
 21 22  4  0
 22 23  4  0
 25 26  4  0
 27 29  2  0
M  END
$$$$

 Created by Python create_sdf_string function

 30 33  0  0  0  0  0  0  0  0999 V2000
    8.3036    9.8571   18.4133 C   0  0  0  0  0  0  0  0  0  0  0  0
    8.3694    7.6612   22.6703 C   0  0  0  0  0  0  0  0  0  0  0  0
    8.4143    6.6863   16.2273 C   0  0  0  0  0  0  0  0  0  0  0  0
   10.7581    6.5674   21.7636 C   0  0  0  0  0  0  0  0  0  0  0  0
    8.4452    8.7960   19.2958 O   0  0  0  0  0  0  0  0  0  0  0  0
    8.7122    6.7842   24.8569 C   0  0  0  0  0  0  0  0  0  0  0  0
   10.3400    6.1726   14.3081 C   0  0  0  0  0  0  0  0  0  0  0  0
    7.4297    7.5873   24.8962 C   0  0  0  0  0  0  0  0  0  0  0  0
    8.1566   10.0536   16.0516 O   0  0  0  0  0  0  0  0  0  0  0  0
   12.4989    6.2074   20.1776 C   0  0  0  0  0  0  0  0  0  0  0  0
    6.9192    9.1053   20.9073 O   0  0  0  0  0  0  0  0  0  0  0  0
   14.3979    6.0729   18.7784 C   0  0  0  0  0  0  0  0  0  0  0  0
    8.6811    9.5354   16.9998 C   0  0  0  0  0  0  0  0  0  0  0  0
    9.2512    4.2713   13.7653 O   0  0  0  0  0  0  0  0  0  0  0  0
    9.6495    8.6317   16.8332 N   0  0  0  0  0  0  0  0  0  0  0  0
    6.2934    8.6988   23.1988 O   0  0  0  0  0  0  0  0  0  0  0  0
    7.9806    8.6543   20.5437 C   0  0  0  0  0  0  0  0  0  0  0  0
   13.7270    5.7144   19.8610 O   0  0  0  0  0  0  0  0  0  0  0  0
    8.3351    5.5235   15.4478 C   0  0  0  0  0  0  0  0  0  0  0  0
    8.7700    7.8434   21.3915 C   0  0  0  0  0  0  0  0  0  0  0  0
   11.7856    6.8851   19.2401 C   0  0  0  0  0  0  0  0  0  0  0  0
   10.5281    7.4276   19.5649 C   0  0  0  0  0  0  0  0  0  0  0  0
   10.0256    7.2907   20.8484 C   0  0  0  0  0  0  0  0  0  0  0  0
    9.3113    5.3049   14.4911 C   0  0  0  0  0  0  0  0  0  0  0  0
    9.4607    7.5646   16.0139 C   0  0  0  0  0  0  0  0  0  0  0  0
   10.4192    7.3157   15.0955 C   0  0  0  0  0  0  0  0  0  0  0  0
   10.2489    6.4227   23.0218 N   0  0  0  0  0  0  0  0  0  0  0  0
    7.2472    8.0746   23.5050 C   0  0  0  0  0  0  0  0  0  0  0  0
    9.2051    6.9101   23.4604 C   0  0  0  0  0  0  0  0  0  0  0  0
   11.9646    6.0299   21.4251 C   0  0  0  0  0  0  0  0  0  0  0  0
  1  5  1  0
  1 13  1  0
  2 20  2  0
  2 28  1  0
  2 29  1  0
  3 19  4  0
  3 25  4  0
  4 23  4  0
  4 27  1  0
  4 30  4  0
  5 17  1  0
  6  8  1  0
  6 29  1  0
  7 24  4  0
  7 26  4  0
  8 28  1  0
  9 13  2  0
 10 18  1  0
 10 21  4  0
 10 30  4  0
 11 17  2  0
 12 18  1  0
 13 15  1  0
 14 24  1  0
 15 25  1  0
 16 28  2  0
 17 20  1  0
 19 24  4  0
 20 23  1  0
 21 22  4  0
 22 23  4  0
 25 26  4  0
 27 29  2  0
M  END
$$$$

 Created by Python create_sdf_string function

 30 33  0  0  0  0  0  0  0  0999 V2000
    8.3036    9.8571   18.4133 C   0  0  0  0  0  0  0  0  0  0  0  0
    8.3694    7.6612   22.6703 C   0  0  0  0  0  0  0  0  0  0  0  0
    8.4143    6.6863   16.2273 C   0  0  0  0  0  0  0  0  0  0  0  0
   10.7581    6.5674   21.7636 C   0  0  0  0  0  0  0  0  0  0  0  0
    8.4452    8.7960   19.2958 O   0  0  0  0  0  0  0  0  0  0  0  0
    8.7122    6.7842   24.8569 C   0  0  0  0  0  0  0  0  0  0  0  0
   10.3400    6.1726   14.3081 C   0  0  0  0  0  0  0  0  0  0  0  0
    7.4297    7.5873   24.8962 C   0  0  0  0  0  0  0  0  0  0  0  0
    8.1566   10.0536   16.0516 O   0  0  0  0  0  0  0  0  0  0  0  0
   12.4989    6.2074   20.1776 C   0  0  0  0  0  0  0  0  0  0  0  0
    6.9192    9.1053   20.9073 O   0  0  0  0  0  0  0  0  0  0  0  0
   14.3979    6.0729   18.7784 C   0  0  0  0  0  0  0  0  0  0  0  0
    8.6811    9.5354   16.9998 C   0  0  0  0  0  0  0  0  0  0  0  0
    9.2512    4.2713   13.7653 O   0  0  0  0  0  0  0  0  0  0  0  0
    9.6495    8.6317   16.8332 N   0  0  0  0  0  0  0  0  0  0  0  0
    6.2934    8.6988   23.1988 O   0  0  0  0  0  0  0  0  0  0  0  0
    7.9806    8.6543   20.5437 C   0  0  0  0  0  0  0  0  0  0  0  0
   13.7270    5.7144   19.8610 O   0  0  0  0  0  0  0  0  0  0  0  0
    8.3351    5.5235   15.4478 C   0  0  0  0  0  0  0  0  0  0  0  0
    8.7700    7.8434   21.3915 C   0  0  0  0  0  0  0  0  0  0  0  0
   11.7856    6.8851   19.2401 C   0  0  0  0  0  0  0  0  0  0  0  0
   10.5281    7.4276   19.5649 C   0  0  0  0  0  0  0  0  0  0  0  0
   10.0256    7.2907   20.8484 C   0  0  0  0  0  0  0  0  0  0  0  0
    9.3113    5.3049   14.4911 C   0  0  0  0  0  0  0  0  0  0  0  0
    9.4607    7.5646   16.0139 C   0  0  0  0  0  0  0  0  0  0  0  0
   10.4192    7.3157   15.0955 C   0  0  0  0  0  0  0  0  0  0  0  0
   10.2489    6.4227   23.0218 N   0  0  0  0  0  0  0  0  0  0  0  0
    7.2472    8.0746   23.5050 C   0  0  0  0  0  0  0  0  0  0  0  0
    9.2051    6.9101   23.4604 C   0  0  0  0  0  0  0  0  0  0  0  0
   11.9646    6.0299   21.4251 C   0  0  0  0  0  0  0  0  0  0  0  0
  1  5  1  0
  1 13  1  0
  2 20  2  0
  2 28  1  0
  2 29  1  0
  3 19  4  0
  3 25  4  0
  4 23  4  0
  4 27  1  0
  4 30  4  0
  5 17  1  0
  6  8  1  0
  6 29  1  0
  7 24  4  0
  7 26  4  0
  8 28  1  0
  9 13  2  0
 10 18  1  0
 10 21  4  0
 10 30  4  0
 11 17  2  0
 12 18  1  0
 13 15  1  0
 14 24  1  0
 15 25  1  0
 16 28  2  0
 17 20  1  0
 19 24  4  0
 20 23  1  0
 21 22  4  0
 22 23  4  0
 25 26  4  0
 27 29  2  0
M  END
$$$$

 Created by Python create_sdf_string function

 30 33  0  0  0  0  0  0  0  0999 V2000
    8.3036    9.8571   18.4133 C   0  0  0  0  0  0  0  0  0  0  0  0
    8.3694    7.6612   22.6703 C   0  0  0  0  0  0  0  0  0  0  0  0
    8.4143    6.6863   16.2273 C   0  0  0  0  0  0  0  0  0  0  0  0
   10.7581    6.5674   21.7636 C   0  0  0  0  0  0  0  0  0  0  0  0
    8.4452    8.7960   19.2958 O   0  0  0  0  0  0  0  0  0  0  0  0
    8.7122    6.7842   24.8569 C   0  0  0  0  0  0  0  0  0  0  0  0
   10.3400    6.1726   14.3081 C   0  0  0  0  0  0  0  0  0  0  0  0
    7.4297    7.5873   24.8962 C   0  0  0  0  0  0  0  0  0  0  0  0
    8.1566   10.0536   16.0516 O   0  0  0  0  0  0  0  0  0  0  0  0
   12.4989    6.2074   20.1776 C   0  0  0  0  0  0  0  0  0  0  0  0
    6.9192    9.1053   20.9073 O   0  0  0  0  0  0  0  0  0  0  0  0
   14.3979    6.0729   18.7784 C   0  0  0  0  0  0  0  0  0  0  0  0
    8.6811    9.5354   16.9998 C   0  0  0  0  0  0  0  0  0  0  0  0
    9.2512    4.2713   13.7653 O   0  0  0  0  0  0  0  0  0  0  0  0
    9.6495    8.6317   16.8332 N   0  0  0  0  0  0  0  0  0  0  0  0
    6.2934    8.6988   23.1988 O   0  0  0  0  0  0  0  0  0  0  0  0
    7.9806    8.6543   20.5437 C   0  0  0  0  0  0  0  0  0  0  0  0
   13.7270    5.7144   19.8610 O   0  0  0  0  0  0  0  0  0  0  0  0
    8.3351    5.5235   15.4478 C   0  0  0  0  0  0  0  0  0  0  0  0
    8.7700    7.8434   21.3915 C   0  0  0  0  0  0  0  0  0  0  0  0
   11.7856    6.8851   19.2401 C   0  0  0  0  0  0  0  0  0  0  0  0
   10.5281    7.4276   19.5649 C   0  0  0  0  0  0  0  0  0  0  0  0
   10.0256    7.2907   20.8484 C   0  0  0  0  0  0  0  0  0  0  0  0
    9.3113    5.3049   14.4911 C   0  0  0  0  0  0  0  0  0  0  0  0
    9.4607    7.5646   16.0139 C   0  0  0  0  0  0  0  0  0  0  0  0
   10.4192    7.3157   15.0955 C   0  0  0  0  0  0  0  0  0  0  0  0
   10.2489    6.4227   23.0218 N   0  0  0  0  0  0  0  0  0  0  0  0
    7.2472    8.0746   23.5050 C   0  0  0  0  0  0  0  0  0  0  0  0
    9.2051    6.9101   23.4604 C   0  0  0  0  0  0  0  0  0  0  0  0
   11.9646    6.0299   21.4251 C   0  0  0  0  0  0  0  0  0  0  0  0
  1  5  1  0
  1 13  1  0
  2 20  2  0
  2 28  1  0
  2 29  1  0
  3 19  4  0
  3 25  4  0
  4 23  4  0
  4 27  1  0
  4 30  4  0
  5 17  1  0
  6  8  1  0
  6 29  1  0
  7 24  4  0
  7 26  4  0
  8 28  1  0
  9 13  2  0
 10 18  1  0
 10 21  4  0
 10 30  4  0
 11 17  2  0
 12 18  1  0
 13 15  1  0
 14 24  1  0
 15 25  1  0
 16 28  2  0
 17 20  1  0
 19 24  4  0
 20 23  1  0
 21 22  4  0
 22 23  4  0
 25 26  4  0
 27 29  2  0
M  END
$$$$

 Created by Python create_sdf_string function

 30 33  0  0  0  0  0  0  0  0999 V2000
    8.3036    9.8571   18.4133 C   0  0  0  0  0  0  0  0  0  0  0  0
    8.3694    7.6612   22.6703 C   0  0  0  0  0  0  0  0  0  0  0  0
    8.4143    6.6863   16.2273 C   0  0  0  0  0  0  0  0  0  0  0  0
   10.7581    6.5674   21.7636 C   0  0  0  0  0  0  0  0  0  0  0  0
    8.4452    8.7960   19.2958 O   0  0  0  0  0  0  0  0  0  0  0  0
    8.7122    6.7842   24.8569 C   0  0  0  0  0  0  0  0  0  0  0  0
   10.3400    6.1726   14.3081 C   0  0  0  0  0  0  0  0  0  0  0  0
    7.4297    7.5873   24.8962 C   0  0  0  0  0  0  0  0  0  0  0  0
    8.1566   10.0536   16.0516 O   0  0  0  0  0  0  0  0  0  0  0  0
   12.4989    6.2074   20.1776 C   0  0  0  0  0  0  0  0  0  0  0  0
    6.9192    9.1053   20.9073 O   0  0  0  0  0  0  0  0  0  0  0  0
   14.3979    6.0729   18.7784 C   0  0  0  0  0  0  0  0  0  0  0  0
    8.6811    9.5354   16.9998 C   0  0  0  0  0  0  0  0  0  0  0  0
    9.2512    4.2713   13.7653 O   0  0  0  0  0  0  0  0  0  0  0  0
    9.6495    8.6317   16.8332 N   0  0  0  0  0  0  0  0  0  0  0  0
    6.2934    8.6988   23.1988 O   0  0  0  0  0  0  0  0  0  0  0  0
    7.9806    8.6543   20.5437 C   0  0  0  0  0  0  0  0  0  0  0  0
   13.7270    5.7144   19.8610 O   0  0  0  0  0  0  0  0  0  0  0  0
    8.3351    5.5235   15.4478 C   0  0  0  0  0  0  0  0  0  0  0  0
    8.7700    7.8434   21.3915 C   0  0  0  0  0  0  0  0  0  0  0  0
   11.7856    6.8851   19.2401 C   0  0  0  0  0  0  0  0  0  0  0  0
   10.5281    7.4276   19.5649 C   0  0  0  0  0  0  0  0  0  0  0  0
   10.0256    7.2907   20.8484 C   0  0  0  0  0  0  0  0  0  0  0  0
    9.3113    5.3049   14.4911 C   0  0  0  0  0  0  0  0  0  0  0  0
    9.4607    7.5646   16.0139 C   0  0  0  0  0  0  0  0  0  0  0  0
   10.4192    7.3157   15.0955 C   0  0  0  0  0  0  0  0  0  0  0  0
   10.2489    6.4227   23.0218 N   0  0  0  0  0  0  0  0  0  0  0  0
    7.2472    8.0746   23.5050 C   0  0  0  0  0  0  0  0  0  0  0  0
    9.2051    6.9101   23.4604 C   0  0  0  0  0  0  0  0  0  0  0  0
   11.9646    6.0299   21.4251 C   0  0  0  0  0  0  0  0  0  0  0  0
  1  5  1  0
  1 13  1  0
  2 20  2  0
  2 28  1  0
  2 29  1  0
  3 19  4  0
  3 25  4  0
  4 23  4  0
  4 27  1  0
  4 30  4  0
  5 17  1  0
  6  8  1  0
  6 29  1  0
  7 24  4  0
  7 26  4  0
  8 28  1  0
  9 13  2  0
 10 18  1  0
 10 21  4  0
 10 30  4  0
 11 17  2  0
 12 18  1  0
 13 15  1  0
 14 24  1  0
 15 25  1  0
 16 28  2  0
 17 20  1  0
 19 24  4  0
 20 23  1  0
 21 22  4  0
 22 23  4  0
 25 26  4  0
 27 29  2  0
M  END
$$$$

 Created by Python create_sdf_string function

 30 33  0  0  0  0  0  0  0  0999 V2000
    8.3036    9.8571   18.4133 C   0  0  0  0  0  0  0  0  0  0  0  0
    8.3694    7.6612   22.6703 C   0  0  0  0  0  0  0  0  0  0  0  0
    8.4143    6.6863   16.2273 C   0  0  0  0  0  0  0  0  0  0  0  0
   10.7581    6.5674   21.7636 C   0  0  0  0  0  0  0  0  0  0  0  0
    8.4452    8.7960   19.2958 O   0  0  0  0  0  0  0  0  0  0  0  0
    8.7122    6.7842   24.8569 C   0  0  0  0  0  0  0  0  0  0  0  0
   10.3400    6.1726   14.3081 C   0  0  0  0  0  0  0  0  0  0  0  0
    7.4297    7.5873   24.8962 C   0  0  0  0  0  0  0  0  0  0  0  0
    8.1566   10.0536   16.0516 O   0  0  0  0  0  0  0  0  0  0  0  0
   12.4989    6.2074   20.1776 C   0  0  0  0  0  0  0  0  0  0  0  0
    6.9192    9.1053   20.9073 O   0  0  0  0  0  0  0  0  0  0  0  0
   14.3979    6.0729   18.7784 C   0  0  0  0  0  0  0  0  0  0  0  0
    8.6811    9.5354   16.9998 C   0  0  0  0  0  0  0  0  0  0  0  0
    9.2512    4.2713   13.7653 O   0  0  0  0  0  0  0  0  0  0  0  0
    9.6495    8.6317   16.8332 N   0  0  0  0  0  0  0  0  0  0  0  0
    6.2934    8.6988   23.1988 O   0  0  0  0  0  0  0  0  0  0  0  0
    7.9806    8.6543   20.5437 C   0  0  0  0  0  0  0  0  0  0  0  0
   13.7270    5.7144   19.8610 O   0  0  0  0  0  0  0  0  0  0  0  0
    8.3351    5.5235   15.4478 C   0  0  0  0  0  0  0  0  0  0  0  0
    8.7700    7.8434   21.3915 C   0  0  0  0  0  0  0  0  0  0  0  0
   11.7856    6.8851   19.2401 C   0  0  0  0  0  0  0  0  0  0  0  0
   10.5281    7.4276   19.5649 C   0  0  0  0  0  0  0  0  0  0  0  0
   10.0256    7.2907   20.8484 C   0  0  0  0  0  0  0  0  0  0  0  0
    9.3113    5.3049   14.4911 C   0  0  0  0  0  0  0  0  0  0  0  0
    9.4607    7.5646   16.0139 C   0  0  0  0  0  0  0  0  0  0  0  0
   10.4192    7.3157   15.0955 C   0  0  0  0  0  0  0  0  0  0  0  0
   10.2489    6.4227   23.0218 N   0  0  0  0  0  0  0  0  0  0  0  0
    7.2472    8.0746   23.5050 C   0  0  0  0  0  0  0  0  0  0  0  0
    9.2051    6.9101   23.4604 C   0  0  0  0  0  0  0  0  0  0  0  0
   11.9646    6.0299   21.4251 C   0  0  0  0  0  0  0  0  0  0  0  0
  1  5  1  0
  1 13  1  0
  2 20  2  0
  2 28  1  0
  2 29  1  0
  3 19  4  0
  3 25  4  0
  4 23  4  0
  4 27  1  0
  4 30  4  0
  5 17  1  0
  6  8  1  0
  6 29  1  0
  7 24  4  0
  7 26  4  0
  8 28  1  0
  9 13  2  0
 10 18  1  0
 10 21  4  0
 10 30  4  0
 11 17  2  0
 12 18  1  0
 13 15  1  0
 14 24  1  0
 15 25  1  0
 16 28  2  0
 17 20  1  0
 19 24  4  0
 20 23  1  0
 21 22  4  0
 22 23  4  0
 25 26  4  0
 27 29  2  0
M  END
$$$$

 Created by Python create_sdf_string function

 30 33  0  0  0  0  0  0  0  0999 V2000
    8.3036    9.8571   18.4133 C   0  0  0  0  0  0  0  0  0  0  0  0
    8.3694    7.6612   22.6703 C   0  0  0  0  0  0  0  0  0  0  0  0
    8.4143    6.6863   16.2273 C   0  0  0  0  0  0  0  0  0  0  0  0
   10.7581    6.5674   21.7636 C   0  0  0  0  0  0  0  0  0  0  0  0
    8.4452    8.7960   19.2958 O   0  0  0  0  0  0  0  0  0  0  0  0
    8.7122    6.7842   24.8569 C   0  0  0  0  0  0  0  0  0  0  0  0
   10.3400    6.1726   14.3081 C   0  0  0  0  0  0  0  0  0  0  0  0
    7.4297    7.5873   24.8962 C   0  0  0  0  0  0  0  0  0  0  0  0
    8.1566   10.0536   16.0516 O   0  0  0  0  0  0  0  0  0  0  0  0
   12.4989    6.2074   20.1776 C   0  0  0  0  0  0  0  0  0  0  0  0
    6.9192    9.1053   20.9073 O   0  0  0  0  0  0  0  0  0  0  0  0
   14.3979    6.0729   18.7784 C   0  0  0  0  0  0  0  0  0  0  0  0
    8.6811    9.5354   16.9998 C   0  0  0  0  0  0  0  0  0  0  0  0
    9.2512    4.2713   13.7653 O   0  0  0  0  0  0  0  0  0  0  0  0
    9.6495    8.6317   16.8332 N   0  0  0  0  0  0  0  0  0  0  0  0
    6.2934    8.6988   23.1988 O   0  0  0  0  0  0  0  0  0  0  0  0
    7.9806    8.6543   20.5437 C   0  0  0  0  0  0  0  0  0  0  0  0
   13.7270    5.7144   19.8610 O   0  0  0  0  0  0  0  0  0  0  0  0
    8.3351    5.5235   15.4478 C   0  0  0  0  0  0  0  0  0  0  0  0
    8.7700    7.8434   21.3915 C   0  0  0  0  0  0  0  0  0  0  0  0
   11.7856    6.8851   19.2401 C   0  0  0  0  0  0  0  0  0  0  0  0
   10.5281    7.4276   19.5649 C   0  0  0  0  0  0  0  0  0  0  0  0
   10.0256    7.2907   20.8484 C   0  0  0  0  0  0  0  0  0  0  0  0
    9.3113    5.3049   14.4911 C   0  0  0  0  0  0  0  0  0  0  0  0
    9.4607    7.5646   16.0139 C   0  0  0  0  0  0  0  0  0  0  0  0
   10.4192    7.3157   15.0955 C   0  0  0  0  0  0  0  0  0  0  0  0
   10.2489    6.4227   23.0218 N   0  0  0  0  0  0  0  0  0  0  0  0
    7.2472    8.0746   23.5050 C   0  0  0  0  0  0  0  0  0  0  0  0
    9.2051    6.9101   23.4604 C   0  0  0  0  0  0  0  0  0  0  0  0
   11.9646    6.0299   21.4251 C   0  0  0  0  0  0  0  0  0  0  0  0
  1  5  1  0
  1 13  1  0
  2 20  2  0
  2 28  1  0
  2 29  1  0
  3 19  4  0
  3 25  4  0
  4 23  4  0
  4 27  1  0
  4 30  4  0
  5 17  1  0
  6  8  1  0
  6 29  1  0
  7 24  4  0
  7 26  4  0
  8 28  1  0
  9 13  2  0
 10 18  1  0
 10 21  4  0
 10 30  4  0
 11 17  2  0
 12 18  1  0
 13 15  1  0
 14 24  1  0
 15 25  1  0
 16 28  2  0
 17 20  1  0
 19 24  4  0
 20 23  1  0
 21 22  4  0
 22 23  4  0
 25 26  4  0
 27 29  2  0
M  END
$$$$

 Created by Python create_sdf_string function

 30 33  0  0  0  0  0  0  0  0999 V2000
    8.3036    9.8571   18.4133 C   0  0  0  0  0  0  0  0  0  0  0  0
    8.3694    7.6612   22.6703 C   0  0  0  0  0  0  0  0  0  0  0  0
    8.4143    6.6863   16.2273 C   0  0  0  0  0  0  0  0  0  0  0  0
   10.7581    6.5674   21.7636 C   0  0  0  0  0  0  0  0  0  0  0  0
    8.4452    8.7960   19.2958 O   0  0  0  0  0  0  0  0  0  0  0  0
    8.7122    6.7842   24.8569 C   0  0  0  0  0  0  0  0  0  0  0  0
   10.3400    6.1726   14.3081 C   0  0  0  0  0  0  0  0  0  0  0  0
    7.4297    7.5873   24.8962 C   0  0  0  0  0  0  0  0  0  0  0  0
    8.1566   10.0536   16.0516 O   0  0  0  0  0  0  0  0  0  0  0  0
   12.4989    6.2074   20.1776 C   0  0  0  0  0  0  0  0  0  0  0  0
    6.9192    9.1053   20.9073 O   0  0  0  0  0  0  0  0  0  0  0  0
   14.3979    6.0729   18.7784 C   0  0  0  0  0  0  0  0  0  0  0  0
    8.6811    9.5354   16.9998 C   0  0  0  0  0  0  0  0  0  0  0  0
    9.2512    4.2713   13.7653 O   0  0  0  0  0  0  0  0  0  0  0  0
    9.6495    8.6317   16.8332 N   0  0  0  0  0  0  0  0  0  0  0  0
    6.2934    8.6988   23.1988 O   0  0  0  0  0  0  0  0  0  0  0  0
    7.9806    8.6543   20.5437 C   0  0  0  0  0  0  0  0  0  0  0  0
   13.7270    5.7144   19.8610 O   0  0  0  0  0  0  0  0  0  0  0  0
    8.3351    5.5235   15.4478 C   0  0  0  0  0  0  0  0  0  0  0  0
    8.7700    7.8434   21.3915 C   0  0  0  0  0  0  0  0  0  0  0  0
   11.7856    6.8851   19.2401 C   0  0  0  0  0  0  0  0  0  0  0  0
   10.5281    7.4276   19.5649 C   0  0  0  0  0  0  0  0  0  0  0  0
   10.0256    7.2907   20.8484 C   0  0  0  0  0  0  0  0  0  0  0  0
    9.3113    5.3049   14.4911 C   0  0  0  0  0  0  0  0  0  0  0  0
    9.4607    7.5646   16.0139 C   0  0  0  0  0  0  0  0  0  0  0  0
   10.4192    7.3157   15.0955 C   0  0  0  0  0  0  0  0  0  0  0  0
   10.2489    6.4227   23.0218 N   0  0  0  0  0  0  0  0  0  0  0  0
    7.2472    8.0746   23.5050 C   0  0  0  0  0  0  0  0  0  0  0  0
    9.2051    6.9101   23.4604 C   0  0  0  0  0  0  0  0  0  0  0  0
   11.9646    6.0299   21.4251 C   0  0  0  0  0  0  0  0  0  0  0  0
  1  5  1  0
  1 13  1  0
  2 20  2  0
  2 28  1  0
  2 29  1  0
  3 19  4  0
  3 25  4  0
  4 23  4  0
  4 27  1  0
  4 30  4  0
  5 17  1  0
  6  8  1  0
  6 29  1  0
  7 24  4  0
  7 26  4  0
  8 28  1  0
  9 13  2  0
 10 18  1  0
 10 21  4  0
 10 30  4  0
 11 17  2  0
 12 18  1  0
 13 15  1  0
 14 24  1  0
 15 25  1  0
 16 28  2  0
 17 20  1  0
 19 24  4  0
 20 23  1  0
 21 22  4  0
 22 23  4  0
 25 26  4  0
 27 29  2  0
M  END
$$$$

 Created by Python create_sdf_string function

 30 33  0  0  0  0  0  0  0  0999 V2000
    8.3036    9.8571   18.4133 C   0  0  0  0  0  0  0  0  0  0  0  0
    8.3694    7.6612   22.6703 C   0  0  0  0  0  0  0  0  0  0  0  0
    8.4143    6.6863   16.2273 C   0  0  0  0  0  0  0  0  0  0  0  0
   10.7581    6.5674   21.7636 C   0  0  0  0  0  0  0  0  0  0  0  0
    8.4452    8.7960   19.2958 O   0  0  0  0  0  0  0  0  0  0  0  0
    8.7122    6.7842   24.8569 C   0  0  0  0  0  0  0  0  0  0  0  0
   10.3400    6.1726   14.3081 C   0  0  0  0  0  0  0  0  0  0  0  0
    7.4297    7.5873   24.8962 C   0  0  0  0  0  0  0  0  0  0  0  0
    8.1566   10.0536   16.0516 O   0  0  0  0  0  0  0  0  0  0  0  0
   12.4989    6.2074   20.1776 C   0  0  0  0  0  0  0  0  0  0  0  0
    6.9192    9.1053   20.9073 O   0  0  0  0  0  0  0  0  0  0  0  0
   14.3979    6.0729   18.7784 C   0  0  0  0  0  0  0  0  0  0  0  0
    8.6811    9.5354   16.9998 C   0  0  0  0  0  0  0  0  0  0  0  0
    9.2512    4.2713   13.7653 O   0  0  0  0  0  0  0  0  0  0  0  0
    9.6495    8.6317   16.8332 N   0  0  0  0  0  0  0  0  0  0  0  0
    6.2934    8.6988   23.1988 O   0  0  0  0  0  0  0  0  0  0  0  0
    7.9806    8.6543   20.5437 C   0  0  0  0  0  0  0  0  0  0  0  0
   13.7270    5.7144   19.8610 O   0  0  0  0  0  0  0  0  0  0  0  0
    8.3351    5.5235   15.4478 C   0  0  0  0  0  0  0  0  0  0  0  0
    8.7700    7.8434   21.3915 C   0  0  0  0  0  0  0  0  0  0  0  0
   11.7856    6.8851   19.2401 C   0  0  0  0  0  0  0  0  0  0  0  0
   10.5281    7.4276   19.5649 C   0  0  0  0  0  0  0  0  0  0  0  0
   10.0256    7.2907   20.8484 C   0  0  0  0  0  0  0  0  0  0  0  0
    9.3113    5.3049   14.4911 C   0  0  0  0  0  0  0  0  0  0  0  0
    9.4607    7.5646   16.0139 C   0  0  0  0  0  0  0  0  0  0  0  0
   10.4192    7.3157   15.0955 C   0  0  0  0  0  0  0  0  0  0  0  0
   10.2489    6.4227   23.0218 N   0  0  0  0  0  0  0  0  0  0  0  0
    7.2472    8.0746   23.5050 C   0  0  0  0  0  0  0  0  0  0  0  0
    9.2051    6.9101   23.4604 C   0  0  0  0  0  0  0  0  0  0  0  0
   11.9646    6.0299   21.4251 C   0  0  0  0  0  0  0  0  0  0  0  0
  1  5  1  0
  1 13  1  0
  2 20  2  0
  2 28  1  0
  2 29  1  0
  3 19  4  0
  3 25  4  0
  4 23  4  0
  4 27  1  0
  4 30  4  0
  5 17  1  0
  6  8  1  0
  6 29  1  0
  7 24  4  0
  7 26  4  0
  8 28  1  0
  9 13  2  0
 10 18  1  0
 10 21  4  0
 10 30  4  0
 11 17  2  0
 12 18  1  0
 13 15  1  0
 14 24  1  0
 15 25  1  0
 16 28  2  0
 17 20  1  0
 19 24  4  0
 20 23  1  0
 21 22  4  0
 22 23  4  0
 25 26  4  0
 27 29  2  0
M  END
$$$$

 Created by Python create_sdf_string function

 30 33  0  0  0  0  0  0  0  0999 V2000
    8.3036    9.8571   18.4133 C   0  0  0  0  0  0  0  0  0  0  0  0
    8.3694    7.6612   22.6703 C   0  0  0  0  0  0  0  0  0  0  0  0
    8.4143    6.6863   16.2273 C   0  0  0  0  0  0  0  0  0  0  0  0
   10.7581    6.5674   21.7636 C   0  0  0  0  0  0  0  0  0  0  0  0
    8.4452    8.7960   19.2958 O   0  0  0  0  0  0  0  0  0  0  0  0
    8.7122    6.7842   24.8569 C   0  0  0  0  0  0  0  0  0  0  0  0
   10.3400    6.1726   14.3081 C   0  0  0  0  0  0  0  0  0  0  0  0
    7.4297    7.5873   24.8962 C   0  0  0  0  0  0  0  0  0  0  0  0
    8.1566   10.0536   16.0516 O   0  0  0  0  0  0  0  0  0  0  0  0
   12.4989    6.2074   20.1776 C   0  0  0  0  0  0  0  0  0  0  0  0
    6.9192    9.1053   20.9073 O   0  0  0  0  0  0  0  0  0  0  0  0
   14.3979    6.0729   18.7784 C   0  0  0  0  0  0  0  0  0  0  0  0
    8.6811    9.5354   16.9998 C   0  0  0  0  0  0  0  0  0  0  0  0
    9.2512    4.2713   13.7653 O   0  0  0  0  0  0  0  0  0  0  0  0
    9.6495    8.6317   16.8332 N   0  0  0  0  0  0  0  0  0  0  0  0
    6.2934    8.6988   23.1988 O   0  0  0  0  0  0  0  0  0  0  0  0
    7.9806    8.6543   20.5437 C   0  0  0  0  0  0  0  0  0  0  0  0
   13.7270    5.7144   19.8610 O   0  0  0  0  0  0  0  0  0  0  0  0
    8.3351    5.5235   15.4478 C   0  0  0  0  0  0  0  0  0  0  0  0
    8.7700    7.8434   21.3915 C   0  0  0  0  0  0  0  0  0  0  0  0
   11.7856    6.8851   19.2401 C   0  0  0  0  0  0  0  0  0  0  0  0
   10.5281    7.4276   19.5649 C   0  0  0  0  0  0  0  0  0  0  0  0
   10.0256    7.2907   20.8484 C   0  0  0  0  0  0  0  0  0  0  0  0
    9.3113    5.3049   14.4911 C   0  0  0  0  0  0  0  0  0  0  0  0
    9.4607    7.5646   16.0139 C   0  0  0  0  0  0  0  0  0  0  0  0
   10.4192    7.3157   15.0955 C   0  0  0  0  0  0  0  0  0  0  0  0
   10.2489    6.4227   23.0218 N   0  0  0  0  0  0  0  0  0  0  0  0
    7.2472    8.0746   23.5050 C   0  0  0  0  0  0  0  0  0  0  0  0
    9.2051    6.9101   23.4604 C   0  0  0  0  0  0  0  0  0  0  0  0
   11.9646    6.0299   21.4251 C   0  0  0  0  0  0  0  0  0  0  0  0
  1  5  1  0
  1 13  1  0
  2 20  2  0
  2 28  1  0
  2 29  1  0
  3 19  4  0
  3 25  4  0
  4 23  4  0
  4 27  1  0
  4 30  4  0
  5 17  1  0
  6  8  1  0
  6 29  1  0
  7 24  4  0
  7 26  4  0
  8 28  1  0
  9 13  2  0
 10 18  1  0
 10 21  4  0
 10 30  4  0
 11 17  2  0
 12 18  1  0
 13 15  1  0
 14 24  1  0
 15 25  1  0
 16 28  2  0
 17 20  1  0
 19 24  4  0
 20 23  1  0
 21 22  4  0
 22 23  4  0
 25 26  4  0
 27 29  2  0
M  END
$$$$

 Created by Python create_sdf_string function

 30 33  0  0  0  0  0  0  0  0999 V2000
    8.3036    9.8571   18.4133 C   0  0  0  0  0  0  0  0  0  0  0  0
    8.3694    7.6612   22.6703 C   0  0  0  0  0  0  0  0  0  0  0  0
    8.4143    6.6863   16.2273 C   0  0  0  0  0  0  0  0  0  0  0  0
   10.7581    6.5674   21.7636 C   0  0  0  0  0  0  0  0  0  0  0  0
    8.4452    8.7960   19.2958 O   0  0  0  0  0  0  0  0  0  0  0  0
    8.7122    6.7842   24.8569 C   0  0  0  0  0  0  0  0  0  0  0  0
   10.3400    6.1726   14.3081 C   0  0  0  0  0  0  0  0  0  0  0  0
    7.4297    7.5873   24.8962 C   0  0  0  0  0  0  0  0  0  0  0  0
    8.1566   10.0536   16.0516 O   0  0  0  0  0  0  0  0  0  0  0  0
   12.4989    6.2074   20.1776 C   0  0  0  0  0  0  0  0  0  0  0  0
    6.9192    9.1053   20.9073 O   0  0  0  0  0  0  0  0  0  0  0  0
   14.3979    6.0729   18.7784 C   0  0  0  0  0  0  0  0  0  0  0  0
    8.6811    9.5354   16.9998 C   0  0  0  0  0  0  0  0  0  0  0  0
    9.2512    4.2713   13.7653 O   0  0  0  0  0  0  0  0  0  0  0  0
    9.6495    8.6317   16.8332 N   0  0  0  0  0  0  0  0  0  0  0  0
    6.2934    8.6988   23.1988 O   0  0  0  0  0  0  0  0  0  0  0  0
    7.9806    8.6543   20.5437 C   0  0  0  0  0  0  0  0  0  0  0  0
   13.7270    5.7144   19.8610 O   0  0  0  0  0  0  0  0  0  0  0  0
    8.3351    5.5235   15.4478 C   0  0  0  0  0  0  0  0  0  0  0  0
    8.7700    7.8434   21.3915 C   0  0  0  0  0  0  0  0  0  0  0  0
   11.7856    6.8851   19.2401 C   0  0  0  0  0  0  0  0  0  0  0  0
   10.5281    7.4276   19.5649 C   0  0  0  0  0  0  0  0  0  0  0  0
   10.0256    7.2907   20.8484 C   0  0  0  0  0  0  0  0  0  0  0  0
    9.3113    5.3049   14.4911 C   0  0  0  0  0  0  0  0  0  0  0  0
    9.4607    7.5646   16.0139 C   0  0  0  0  0  0  0  0  0  0  0  0
   10.4192    7.3157   15.0955 C   0  0  0  0  0  0  0  0  0  0  0  0
   10.2489    6.4227   23.0218 N   0  0  0  0  0  0  0  0  0  0  0  0
    7.2472    8.0746   23.5050 C   0  0  0  0  0  0  0  0  0  0  0  0
    9.2051    6.9101   23.4604 C   0  0  0  0  0  0  0  0  0  0  0  0
   11.9646    6.0299   21.4251 C   0  0  0  0  0  0  0  0  0  0  0  0
  1  5  1  0
  1 13  1  0
  2 20  2  0
  2 28  1  0
  2 29  1  0
  3 19  4  0
  3 25  4  0
  4 23  4  0
  4 27  1  0
  4 30  4  0
  5 17  1  0
  6  8  1  0
  6 29  1  0
  7 24  4  0
  7 26  4  0
  8 28  1  0
  9 13  2  0
 10 18  1  0
 10 21  4  0
 10 30  4  0
 11 17  2  0
 12 18  1  0
 13 15  1  0
 14 24  1  0
 15 25  1  0
 16 28  2  0
 17 20  1  0
 19 24  4  0
 20 23  1  0
 21 22  4  0
 22 23  4  0
 25 26  4  0
 27 29  2  0
M  END
$$$$

 Created by Python create_sdf_string function

 30 33  0  0  0  0  0  0  0  0999 V2000
    8.3036    9.8571   18.4133 C   0  0  0  0  0  0  0  0  0  0  0  0
    8.3694    7.6612   22.6703 C   0  0  0  0  0  0  0  0  0  0  0  0
    8.4143    6.6863   16.2273 C   0  0  0  0  0  0  0  0  0  0  0  0
   10.7581    6.5674   21.7636 C   0  0  0  0  0  0  0  0  0  0  0  0
    8.4452    8.7960   19.2958 O   0  0  0  0  0  0  0  0  0  0  0  0
    8.7122    6.7842   24.8569 C   0  0  0  0  0  0  0  0  0  0  0  0
   10.3400    6.1726   14.3081 C   0  0  0  0  0  0  0  0  0  0  0  0
    7.4297    7.5873   24.8962 C   0  0  0  0  0  0  0  0  0  0  0  0
    8.1566   10.0536   16.0516 O   0  0  0  0  0  0  0  0  0  0  0  0
   12.4989    6.2074   20.1776 C   0  0  0  0  0  0  0  0  0  0  0  0
    6.9192    9.1053   20.9073 O   0  0  0  0  0  0  0  0  0  0  0  0
   14.3979    6.0729   18.7784 C   0  0  0  0  0  0  0  0  0  0  0  0
    8.6811    9.5354   16.9998 C   0  0  0  0  0  0  0  0  0  0  0  0
    9.2512    4.2713   13.7653 O   0  0  0  0  0  0  0  0  0  0  0  0
    9.6495    8.6317   16.8332 N   0  0  0  0  0  0  0  0  0  0  0  0
    6.2934    8.6988   23.1988 O   0  0  0  0  0  0  0  0  0  0  0  0
    7.9806    8.6543   20.5437 C   0  0  0  0  0  0  0  0  0  0  0  0
   13.7270    5.7144   19.8610 O   0  0  0  0  0  0  0  0  0  0  0  0
    8.3351    5.5235   15.4478 C   0  0  0  0  0  0  0  0  0  0  0  0
    8.7700    7.8434   21.3915 C   0  0  0  0  0  0  0  0  0  0  0  0
   11.7856    6.8851   19.2401 C   0  0  0  0  0  0  0  0  0  0  0  0
   10.5281    7.4276   19.5649 C   0  0  0  0  0  0  0  0  0  0  0  0
   10.0256    7.2907   20.8484 C   0  0  0  0  0  0  0  0  0  0  0  0
    9.3113    5.3049   14.4911 C   0  0  0  0  0  0  0  0  0  0  0  0
    9.4607    7.5646   16.0139 C   0  0  0  0  0  0  0  0  0  0  0  0
   10.4192    7.3157   15.0955 C   0  0  0  0  0  0  0  0  0  0  0  0
   10.2489    6.4227   23.0218 N   0  0  0  0  0  0  0  0  0  0  0  0
    7.2472    8.0746   23.5050 C   0  0  0  0  0  0  0  0  0  0  0  0
    9.2051    6.9101   23.4604 C   0  0  0  0  0  0  0  0  0  0  0  0
   11.9646    6.0299   21.4251 C   0  0  0  0  0  0  0  0  0  0  0  0
  1  5  1  0
  1 13  1  0
  2 20  2  0
  2 28  1  0
  2 29  1  0
  3 19  4  0
  3 25  4  0
  4 23  4  0
  4 27  1  0
  4 30  4  0
  5 17  1  0
  6  8  1  0
  6 29  1  0
  7 24  4  0
  7 26  4  0
  8 28  1  0
  9 13  2  0
 10 18  1  0
 10 21  4  0
 10 30  4  0
 11 17  2  0
 12 18  1  0
 13 15  1  0
 14 24  1  0
 15 25  1  0
 16 28  2  0
 17 20  1  0
 19 24  4  0
 20 23  1  0
 21 22  4  0
 22 23  4  0
 25 26  4  0
 27 29  2  0
M  END
$$$$

 Created by Python create_sdf_string function

 30 33  0  0  0  0  0  0  0  0999 V2000
    8.3036    9.8571   18.4133 C   0  0  0  0  0  0  0  0  0  0  0  0
    8.3694    7.6612   22.6703 C   0  0  0  0  0  0  0  0  0  0  0  0
    8.4143    6.6863   16.2273 C   0  0  0  0  0  0  0  0  0  0  0  0
   10.7581    6.5674   21.7636 C   0  0  0  0  0  0  0  0  0  0  0  0
    8.4452    8.7960   19.2958 O   0  0  0  0  0  0  0  0  0  0  0  0
    8.7122    6.7842   24.8569 C   0  0  0  0  0  0  0  0  0  0  0  0
   10.3400    6.1726   14.3081 C   0  0  0  0  0  0  0  0  0  0  0  0
    7.4297    7.5873   24.8962 C   0  0  0  0  0  0  0  0  0  0  0  0
    8.1566   10.0536   16.0516 O   0  0  0  0  0  0  0  0  0  0  0  0
   12.4989    6.2074   20.1776 C   0  0  0  0  0  0  0  0  0  0  0  0
    6.9192    9.1053   20.9073 O   0  0  0  0  0  0  0  0  0  0  0  0
   14.3979    6.0729   18.7784 C   0  0  0  0  0  0  0  0  0  0  0  0
    8.6811    9.5354   16.9998 C   0  0  0  0  0  0  0  0  0  0  0  0
    9.2512    4.2713   13.7653 O   0  0  0  0  0  0  0  0  0  0  0  0
    9.6495    8.6317   16.8332 N   0  0  0  0  0  0  0  0  0  0  0  0
    6.2934    8.6988   23.1988 O   0  0  0  0  0  0  0  0  0  0  0  0
    7.9806    8.6543   20.5437 C   0  0  0  0  0  0  0  0  0  0  0  0
   13.7270    5.7144   19.8610 O   0  0  0  0  0  0  0  0  0  0  0  0
    8.3351    5.5235   15.4478 C   0  0  0  0  0  0  0  0  0  0  0  0
    8.7700    7.8434   21.3915 C   0  0  0  0  0  0  0  0  0  0  0  0
   11.7856    6.8851   19.2401 C   0  0  0  0  0  0  0  0  0  0  0  0
   10.5281    7.4276   19.5649 C   0  0  0  0  0  0  0  0  0  0  0  0
   10.0256    7.2907   20.8484 C   0  0  0  0  0  0  0  0  0  0  0  0
    9.3113    5.3049   14.4911 C   0  0  0  0  0  0  0  0  0  0  0  0
    9.4607    7.5646   16.0139 C   0  0  0  0  0  0  0  0  0  0  0  0
   10.4192    7.3157   15.0955 C   0  0  0  0  0  0  0  0  0  0  0  0
   10.2489    6.4227   23.0218 N   0  0  0  0  0  0  0  0  0  0  0  0
    7.2472    8.0746   23.5050 C   0  0  0  0  0  0  0  0  0  0  0  0
    9.2051    6.9101   23.4604 C   0  0  0  0  0  0  0  0  0  0  0  0
   11.9646    6.0299   21.4251 C   0  0  0  0  0  0  0  0  0  0  0  0
  1  5  1  0
  1 13  1  0
  2 20  2  0
  2 28  1  0
  2 29  1  0
  3 19  4  0
  3 25  4  0
  4 23  4  0
  4 27  1  0
  4 30  4  0
  5 17  1  0
  6  8  1  0
  6 29  1  0
  7 24  4  0
  7 26  4  0
  8 28  1  0
  9 13  2  0
 10 18  1  0
 10 21  4  0
 10 30  4  0
 11 17  2  0
 12 18  1  0
 13 15  1  0
 14 24  1  0
 15 25  1  0
 16 28  2  0
 17 20  1  0
 19 24  4  0
 20 23  1  0
 21 22  4  0
 22 23  4  0
 25 26  4  0
 27 29  2  0
M  END
$$$$

 Created by Python create_sdf_string function

 30 33  0  0  0  0  0  0  0  0999 V2000
    8.3036    9.8571   18.4133 C   0  0  0  0  0  0  0  0  0  0  0  0
    8.3694    7.6612   22.6703 C   0  0  0  0  0  0  0  0  0  0  0  0
    8.4143    6.6863   16.2273 C   0  0  0  0  0  0  0  0  0  0  0  0
   10.7581    6.5674   21.7636 C   0  0  0  0  0  0  0  0  0  0  0  0
    8.4452    8.7960   19.2958 O   0  0  0  0  0  0  0  0  0  0  0  0
    8.7122    6.7842   24.8569 C   0  0  0  0  0  0  0  0  0  0  0  0
   10.3400    6.1726   14.3081 C   0  0  0  0  0  0  0  0  0  0  0  0
    7.4297    7.5873   24.8962 C   0  0  0  0  0  0  0  0  0  0  0  0
    8.1566   10.0536   16.0516 O   0  0  0  0  0  0  0  0  0  0  0  0
   12.4989    6.2074   20.1776 C   0  0  0  0  0  0  0  0  0  0  0  0
    6.9192    9.1053   20.9073 O   0  0  0  0  0  0  0  0  0  0  0  0
   14.3979    6.0729   18.7784 C   0  0  0  0  0  0  0  0  0  0  0  0
    8.6811    9.5354   16.9998 C   0  0  0  0  0  0  0  0  0  0  0  0
    9.2512    4.2713   13.7653 O   0  0  0  0  0  0  0  0  0  0  0  0
    9.6495    8.6317   16.8332 N   0  0  0  0  0  0  0  0  0  0  0  0
    6.2934    8.6988   23.1988 O   0  0  0  0  0  0  0  0  0  0  0  0
    7.9806    8.6543   20.5437 C   0  0  0  0  0  0  0  0  0  0  0  0
   13.7270    5.7144   19.8610 O   0  0  0  0  0  0  0  0  0  0  0  0
    8.3351    5.5235   15.4478 C   0  0  0  0  0  0  0  0  0  0  0  0
    8.7700    7.8434   21.3915 C   0  0  0  0  0  0  0  0  0  0  0  0
   11.7856    6.8851   19.2401 C   0  0  0  0  0  0  0  0  0  0  0  0
   10.5281    7.4276   19.5649 C   0  0  0  0  0  0  0  0  0  0  0  0
   10.0256    7.2907   20.8484 C   0  0  0  0  0  0  0  0  0  0  0  0
    9.3113    5.3049   14.4911 C   0  0  0  0  0  0  0  0  0  0  0  0
    9.4607    7.5646   16.0139 C   0  0  0  0  0  0  0  0  0  0  0  0
   10.4192    7.3157   15.0955 C   0  0  0  0  0  0  0  0  0  0  0  0
   10.2489    6.4227   23.0218 N   0  0  0  0  0  0  0  0  0  0  0  0
    7.2472    8.0746   23.5050 C   0  0  0  0  0  0  0  0  0  0  0  0
    9.2051    6.9101   23.4604 C   0  0  0  0  0  0  0  0  0  0  0  0
   11.9646    6.0299   21.4251 C   0  0  0  0  0  0  0  0  0  0  0  0
  1  5  1  0
  1 13  1  0
  2 20  2  0
  2 28  1  0
  2 29  1  0
  3 19  4  0
  3 25  4  0
  4 23  4  0
  4 27  1  0
  4 30  4  0
  5 17  1  0
  6  8  1  0
  6 29  1  0
  7 24  4  0
  7 26  4  0
  8 28  1  0
  9 13  2  0
 10 18  1  0
 10 21  4  0
 10 30  4  0
 11 17  2  0
 12 18  1  0
 13 15  1  0
 14 24  1  0
 15 25  1  0
 16 28  2  0
 17 20  1  0
 19 24  4  0
 20 23  1  0
 21 22  4  0
 22 23  4  0
 25 26  4  0
 27 29  2  0
M  END
$$$$

 Created by Python create_sdf_string function

 30 33  0  0  0  0  0  0  0  0999 V2000
    8.3036    9.8571   18.4133 C   0  0  0  0  0  0  0  0  0  0  0  0
    8.3694    7.6612   22.6703 C   0  0  0  0  0  0  0  0  0  0  0  0
    8.4143    6.6863   16.2273 C   0  0  0  0  0  0  0  0  0  0  0  0
   10.7581    6.5674   21.7636 C   0  0  0  0  0  0  0  0  0  0  0  0
    8.4452    8.7960   19.2958 O   0  0  0  0  0  0  0  0  0  0  0  0
    8.7122    6.7842   24.8569 C   0  0  0  0  0  0  0  0  0  0  0  0
   10.3400    6.1726   14.3081 C   0  0  0  0  0  0  0  0  0  0  0  0
    7.4297    7.5873   24.8962 C   0  0  0  0  0  0  0  0  0  0  0  0
    8.1566   10.0536   16.0516 O   0  0  0  0  0  0  0  0  0  0  0  0
   12.4989    6.2074   20.1776 C   0  0  0  0  0  0  0  0  0  0  0  0
    6.9192    9.1053   20.9073 O   0  0  0  0  0  0  0  0  0  0  0  0
   14.3979    6.0729   18.7784 C   0  0  0  0  0  0  0  0  0  0  0  0
    8.6811    9.5354   16.9998 C   0  0  0  0  0  0  0  0  0  0  0  0
    9.2512    4.2713   13.7653 O   0  0  0  0  0  0  0  0  0  0  0  0
    9.6495    8.6317   16.8332 N   0  0  0  0  0  0  0  0  0  0  0  0
    6.2934    8.6988   23.1988 O   0  0  0  0  0  0  0  0  0  0  0  0
    7.9806    8.6543   20.5437 C   0  0  0  0  0  0  0  0  0  0  0  0
   13.7270    5.7144   19.8610 O   0  0  0  0  0  0  0  0  0  0  0  0
    8.3351    5.5235   15.4478 C   0  0  0  0  0  0  0  0  0  0  0  0
    8.7700    7.8434   21.3915 C   0  0  0  0  0  0  0  0  0  0  0  0
   11.7856    6.8851   19.2401 C   0  0  0  0  0  0  0  0  0  0  0  0
   10.5281    7.4276   19.5649 C   0  0  0  0  0  0  0  0  0  0  0  0
   10.0256    7.2907   20.8484 C   0  0  0  0  0  0  0  0  0  0  0  0
    9.3113    5.3049   14.4911 C   0  0  0  0  0  0  0  0  0  0  0  0
    9.4607    7.5646   16.0139 C   0  0  0  0  0  0  0  0  0  0  0  0
   10.4192    7.3157   15.0955 C   0  0  0  0  0  0  0  0  0  0  0  0
   10.2489    6.4227   23.0218 N   0  0  0  0  0  0  0  0  0  0  0  0
    7.2472    8.0746   23.5050 C   0  0  0  0  0  0  0  0  0  0  0  0
    9.2051    6.9101   23.4604 C   0  0  0  0  0  0  0  0  0  0  0  0
   11.9646    6.0299   21.4251 C   0  0  0  0  0  0  0  0  0  0  0  0
  1  5  1  0
  1 13  1  0
  2 20  2  0
  2 28  1  0
  2 29  1  0
  3 19  4  0
  3 25  4  0
  4 23  4  0
  4 27  1  0
  4 30  4  0
  5 17  1  0
  6  8  1  0
  6 29  1  0
  7 24  4  0
  7 26  4  0
  8 28  1  0
  9 13  2  0
 10 18  1  0
 10 21  4  0
 10 30  4  0
 11 17  2  0
 12 18  1  0
 13 15  1  0
 14 24  1  0
 15 25  1  0
 16 28  2  0
 17 20  1  0
 19 24  4  0
 20 23  1  0
 21 22  4  0
 22 23  4  0
 25 26  4  0
 27 29  2  0
M  END
$$$$

 Created by Python create_sdf_string function

 30 33  0  0  0  0  0  0  0  0999 V2000
    8.3036    9.8571   18.4133 C   0  0  0  0  0  0  0  0  0  0  0  0
    8.3694    7.6612   22.6703 C   0  0  0  0  0  0  0  0  0  0  0  0
    8.4143    6.6863   16.2273 C   0  0  0  0  0  0  0  0  0  0  0  0
   10.7581    6.5674   21.7636 C   0  0  0  0  0  0  0  0  0  0  0  0
    8.4452    8.7960   19.2958 O   0  0  0  0  0  0  0  0  0  0  0  0
    8.7122    6.7842   24.8569 C   0  0  0  0  0  0  0  0  0  0  0  0
   10.3400    6.1726   14.3081 C   0  0  0  0  0  0  0  0  0  0  0  0
    7.4297    7.5873   24.8962 C   0  0  0  0  0  0  0  0  0  0  0  0
    8.1566   10.0536   16.0516 O   0  0  0  0  0  0  0  0  0  0  0  0
   12.4989    6.2074   20.1776 C   0  0  0  0  0  0  0  0  0  0  0  0
    6.9192    9.1053   20.9073 O   0  0  0  0  0  0  0  0  0  0  0  0
   14.3979    6.0729   18.7784 C   0  0  0  0  0  0  0  0  0  0  0  0
    8.6811    9.5354   16.9998 C   0  0  0  0  0  0  0  0  0  0  0  0
    9.2512    4.2713   13.7653 O   0  0  0  0  0  0  0  0  0  0  0  0
    9.6495    8.6317   16.8332 N   0  0  0  0  0  0  0  0  0  0  0  0
    6.2934    8.6988   23.1988 O   0  0  0  0  0  0  0  0  0  0  0  0
    7.9806    8.6543   20.5437 C   0  0  0  0  0  0  0  0  0  0  0  0
   13.7270    5.7144   19.8610 O   0  0  0  0  0  0  0  0  0  0  0  0
    8.3351    5.5235   15.4478 C   0  0  0  0  0  0  0  0  0  0  0  0
    8.7700    7.8434   21.3915 C   0  0  0  0  0  0  0  0  0  0  0  0
   11.7856    6.8851   19.2401 C   0  0  0  0  0  0  0  0  0  0  0  0
   10.5281    7.4276   19.5649 C   0  0  0  0  0  0  0  0  0  0  0  0
   10.0256    7.2907   20.8484 C   0  0  0  0  0  0  0  0  0  0  0  0
    9.3113    5.3049   14.4911 C   0  0  0  0  0  0  0  0  0  0  0  0
    9.4607    7.5646   16.0139 C   0  0  0  0  0  0  0  0  0  0  0  0
   10.4192    7.3157   15.0955 C   0  0  0  0  0  0  0  0  0  0  0  0
   10.2489    6.4227   23.0218 N   0  0  0  0  0  0  0  0  0  0  0  0
    7.2472    8.0746   23.5050 C   0  0  0  0  0  0  0  0  0  0  0  0
    9.2051    6.9101   23.4604 C   0  0  0  0  0  0  0  0  0  0  0  0
   11.9646    6.0299   21.4251 C   0  0  0  0  0  0  0  0  0  0  0  0
  1  5  1  0
  1 13  1  0
  2 20  2  0
  2 28  1  0
  2 29  1  0
  3 19  4  0
  3 25  4  0
  4 23  4  0
  4 27  1  0
  4 30  4  0
  5 17  1  0
  6  8  1  0
  6 29  1  0
  7 24  4  0
  7 26  4  0
  8 28  1  0
  9 13  2  0
 10 18  1  0
 10 21  4  0
 10 30  4  0
 11 17  2  0
 12 18  1  0
 13 15  1  0
 14 24  1  0
 15 25  1  0
 16 28  2  0
 17 20  1  0
 19 24  4  0
 20 23  1  0
 21 22  4  0
 22 23  4  0
 25 26  4  0
 27 29  2  0
M  END
$$$$

 Created by Python create_sdf_string function

 30 33  0  0  0  0  0  0  0  0999 V2000
    8.3036    9.8571   18.4133 C   0  0  0  0  0  0  0  0  0  0  0  0
    8.3694    7.6612   22.6703 C   0  0  0  0  0  0  0  0  0  0  0  0
    8.4143    6.6863   16.2273 C   0  0  0  0  0  0  0  0  0  0  0  0
   10.7581    6.5674   21.7636 C   0  0  0  0  0  0  0  0  0  0  0  0
    8.4452    8.7960   19.2958 O   0  0  0  0  0  0  0  0  0  0  0  0
    8.7122    6.7842   24.8569 C   0  0  0  0  0  0  0  0  0  0  0  0
   10.3400    6.1726   14.3081 C   0  0  0  0  0  0  0  0  0  0  0  0
    7.4297    7.5873   24.8962 C   0  0  0  0  0  0  0  0  0  0  0  0
    8.1566   10.0536   16.0516 O   0  0  0  0  0  0  0  0  0  0  0  0
   12.4989    6.2074   20.1776 C   0  0  0  0  0  0  0  0  0  0  0  0
    6.9192    9.1053   20.9073 O   0  0  0  0  0  0  0  0  0  0  0  0
   14.3979    6.0729   18.7784 C   0  0  0  0  0  0  0  0  0  0  0  0
    8.6811    9.5354   16.9998 C   0  0  0  0  0  0  0  0  0  0  0  0
    9.2512    4.2713   13.7653 O   0  0  0  0  0  0  0  0  0  0  0  0
    9.6495    8.6317   16.8332 N   0  0  0  0  0  0  0  0  0  0  0  0
    6.2934    8.6988   23.1988 O   0  0  0  0  0  0  0  0  0  0  0  0
    7.9806    8.6543   20.5437 C   0  0  0  0  0  0  0  0  0  0  0  0
   13.7270    5.7144   19.8610 O   0  0  0  0  0  0  0  0  0  0  0  0
    8.3351    5.5235   15.4478 C   0  0  0  0  0  0  0  0  0  0  0  0
    8.7700    7.8434   21.3915 C   0  0  0  0  0  0  0  0  0  0  0  0
   11.7856    6.8851   19.2401 C   0  0  0  0  0  0  0  0  0  0  0  0
   10.5281    7.4276   19.5649 C   0  0  0  0  0  0  0  0  0  0  0  0
   10.0256    7.2907   20.8484 C   0  0  0  0  0  0  0  0  0  0  0  0
    9.3113    5.3049   14.4911 C   0  0  0  0  0  0  0  0  0  0  0  0
    9.4607    7.5646   16.0139 C   0  0  0  0  0  0  0  0  0  0  0  0
   10.4192    7.3157   15.0955 C   0  0  0  0  0  0  0  0  0  0  0  0
   10.2489    6.4227   23.0218 N   0  0  0  0  0  0  0  0  0  0  0  0
    7.2472    8.0746   23.5050 C   0  0  0  0  0  0  0  0  0  0  0  0
    9.2051    6.9101   23.4604 C   0  0  0  0  0  0  0  0  0  0  0  0
   11.9646    6.0299   21.4251 C   0  0  0  0  0  0  0  0  0  0  0  0
  1  5  1  0
  1 13  1  0
  2 20  2  0
  2 28  1  0
  2 29  1  0
  3 19  4  0
  3 25  4  0
  4 23  4  0
  4 27  1  0
  4 30  4  0
  5 17  1  0
  6  8  1  0
  6 29  1  0
  7 24  4  0
  7 26  4  0
  8 28  1  0
  9 13  2  0
 10 18  1  0
 10 21  4  0
 10 30  4  0
 11 17  2  0
 12 18  1  0
 13 15  1  0
 14 24  1  0
 15 25  1  0
 16 28  2  0
 17 20  1  0
 19 24  4  0
 20 23  1  0
 21 22  4  0
 22 23  4  0
 25 26  4  0
 27 29  2  0
M  END
$$$$

 Created by Python create_sdf_string function

 30 33  0  0  0  0  0  0  0  0999 V2000
    8.3036    9.8571   18.4133 C   0  0  0  0  0  0  0  0  0  0  0  0
    8.3694    7.6612   22.6703 C   0  0  0  0  0  0  0  0  0  0  0  0
    8.4143    6.6863   16.2273 C   0  0  0  0  0  0  0  0  0  0  0  0
   10.7581    6.5674   21.7636 C   0  0  0  0  0  0  0  0  0  0  0  0
    8.4452    8.7960   19.2958 O   0  0  0  0  0  0  0  0  0  0  0  0
    8.7122    6.7842   24.8569 C   0  0  0  0  0  0  0  0  0  0  0  0
   10.3400    6.1726   14.3081 C   0  0  0  0  0  0  0  0  0  0  0  0
    7.4297    7.5873   24.8962 C   0  0  0  0  0  0  0  0  0  0  0  0
    8.1566   10.0536   16.0516 O   0  0  0  0  0  0  0  0  0  0  0  0
   12.4989    6.2074   20.1776 C   0  0  0  0  0  0  0  0  0  0  0  0
    6.9192    9.1053   20.9073 O   0  0  0  0  0  0  0  0  0  0  0  0
   14.3979    6.0729   18.7784 C   0  0  0  0  0  0  0  0  0  0  0  0
    8.6811    9.5354   16.9998 C   0  0  0  0  0  0  0  0  0  0  0  0
    9.2512    4.2713   13.7653 O   0  0  0  0  0  0  0  0  0  0  0  0
    9.6495    8.6317   16.8332 N   0  0  0  0  0  0  0  0  0  0  0  0
    6.2934    8.6988   23.1988 O   0  0  0  0  0  0  0  0  0  0  0  0
    7.9806    8.6543   20.5437 C   0  0  0  0  0  0  0  0  0  0  0  0
   13.7270    5.7144   19.8610 O   0  0  0  0  0  0  0  0  0  0  0  0
    8.3351    5.5235   15.4478 C   0  0  0  0  0  0  0  0  0  0  0  0
    8.7700    7.8434   21.3915 C   0  0  0  0  0  0  0  0  0  0  0  0
   11.7856    6.8851   19.2401 C   0  0  0  0  0  0  0  0  0  0  0  0
   10.5281    7.4276   19.5649 C   0  0  0  0  0  0  0  0  0  0  0  0
   10.0256    7.2907   20.8484 C   0  0  0  0  0  0  0  0  0  0  0  0
    9.3113    5.3049   14.4911 C   0  0  0  0  0  0  0  0  0  0  0  0
    9.4607    7.5646   16.0139 C   0  0  0  0  0  0  0  0  0  0  0  0
   10.4192    7.3157   15.0955 C   0  0  0  0  0  0  0  0  0  0  0  0
   10.2489    6.4227   23.0218 N   0  0  0  0  0  0  0  0  0  0  0  0
    7.2472    8.0746   23.5050 C   0  0  0  0  0  0  0  0  0  0  0  0
    9.2051    6.9101   23.4604 C   0  0  0  0  0  0  0  0  0  0  0  0
   11.9646    6.0299   21.4251 C   0  0  0  0  0  0  0  0  0  0  0  0
  1  5  1  0
  1 13  1  0
  2 20  2  0
  2 28  1  0
  2 29  1  0
  3 19  4  0
  3 25  4  0
  4 23  4  0
  4 27  1  0
  4 30  4  0
  5 17  1  0
  6  8  1  0
  6 29  1  0
  7 24  4  0
  7 26  4  0
  8 28  1  0
  9 13  2  0
 10 18  1  0
 10 21  4  0
 10 30  4  0
 11 17  2  0
 12 18  1  0
 13 15  1  0
 14 24  1  0
 15 25  1  0
 16 28  2  0
 17 20  1  0
 19 24  4  0
 20 23  1  0
 21 22  4  0
 22 23  4  0
 25 26  4  0
 27 29  2  0
M  END
$$$$

 Created by Python create_sdf_string function

 30 33  0  0  0  0  0  0  0  0999 V2000
    8.3036    9.8571   18.4133 C   0  0  0  0  0  0  0  0  0  0  0  0
    8.3694    7.6612   22.6703 C   0  0  0  0  0  0  0  0  0  0  0  0
    8.4143    6.6863   16.2273 C   0  0  0  0  0  0  0  0  0  0  0  0
   10.7581    6.5674   21.7636 C   0  0  0  0  0  0  0  0  0  0  0  0
    8.4452    8.7960   19.2958 O   0  0  0  0  0  0  0  0  0  0  0  0
    8.7122    6.7842   24.8569 C   0  0  0  0  0  0  0  0  0  0  0  0
   10.3400    6.1726   14.3081 C   0  0  0  0  0  0  0  0  0  0  0  0
    7.4297    7.5873   24.8962 C   0  0  0  0  0  0  0  0  0  0  0  0
    8.1566   10.0536   16.0516 O   0  0  0  0  0  0  0  0  0  0  0  0
   12.4989    6.2074   20.1776 C   0  0  0  0  0  0  0  0  0  0  0  0
    6.9192    9.1053   20.9073 O   0  0  0  0  0  0  0  0  0  0  0  0
   14.3979    6.0729   18.7784 C   0  0  0  0  0  0  0  0  0  0  0  0
    8.6811    9.5354   16.9998 C   0  0  0  0  0  0  0  0  0  0  0  0
    9.2512    4.2713   13.7653 O   0  0  0  0  0  0  0  0  0  0  0  0
    9.6495    8.6317   16.8332 N   0  0  0  0  0  0  0  0  0  0  0  0
    6.2934    8.6988   23.1988 O   0  0  0  0  0  0  0  0  0  0  0  0
    7.9806    8.6543   20.5437 C   0  0  0  0  0  0  0  0  0  0  0  0
   13.7270    5.7144   19.8610 O   0  0  0  0  0  0  0  0  0  0  0  0
    8.3351    5.5235   15.4478 C   0  0  0  0  0  0  0  0  0  0  0  0
    8.7700    7.8434   21.3915 C   0  0  0  0  0  0  0  0  0  0  0  0
   11.7856    6.8851   19.2401 C   0  0  0  0  0  0  0  0  0  0  0  0
   10.5281    7.4276   19.5649 C   0  0  0  0  0  0  0  0  0  0  0  0
   10.0256    7.2907   20.8484 C   0  0  0  0  0  0  0  0  0  0  0  0
    9.3113    5.3049   14.4911 C   0  0  0  0  0  0  0  0  0  0  0  0
    9.4607    7.5646   16.0139 C   0  0  0  0  0  0  0  0  0  0  0  0
   10.4192    7.3157   15.0955 C   0  0  0  0  0  0  0  0  0  0  0  0
   10.2489    6.4227   23.0218 N   0  0  0  0  0  0  0  0  0  0  0  0
    7.2472    8.0746   23.5050 C   0  0  0  0  0  0  0  0  0  0  0  0
    9.2051    6.9101   23.4604 C   0  0  0  0  0  0  0  0  0  0  0  0
   11.9646    6.0299   21.4251 C   0  0  0  0  0  0  0  0  0  0  0  0
  1  5  1  0
  1 13  1  0
  2 20  2  0
  2 28  1  0
  2 29  1  0
  3 19  4  0
  3 25  4  0
  4 23  4  0
  4 27  1  0
  4 30  4  0
  5 17  1  0
  6  8  1  0
  6 29  1  0
  7 24  4  0
  7 26  4  0
  8 28  1  0
  9 13  2  0
 10 18  1  0
 10 21  4  0
 10 30  4  0
 11 17  2  0
 12 18  1  0
 13 15  1  0
 14 24  1  0
 15 25  1  0
 16 28  2  0
 17 20  1  0
 19 24  4  0
 20 23  1  0
 21 22  4  0
 22 23  4  0
 25 26  4  0
 27 29  2  0
M  END
$$$$

 Created by Python create_sdf_string function

 30 33  0  0  0  0  0  0  0  0999 V2000
    8.3036    9.8571   18.4133 C   0  0  0  0  0  0  0  0  0  0  0  0
    8.3694    7.6612   22.6703 C   0  0  0  0  0  0  0  0  0  0  0  0
    8.4143    6.6863   16.2273 C   0  0  0  0  0  0  0  0  0  0  0  0
   10.7581    6.5674   21.7636 C   0  0  0  0  0  0  0  0  0  0  0  0
    8.4452    8.7960   19.2958 O   0  0  0  0  0  0  0  0  0  0  0  0
    8.7122    6.7842   24.8569 C   0  0  0  0  0  0  0  0  0  0  0  0
   10.3400    6.1726   14.3081 C   0  0  0  0  0  0  0  0  0  0  0  0
    7.4297    7.5873   24.8962 C   0  0  0  0  0  0  0  0  0  0  0  0
    8.1566   10.0536   16.0516 O   0  0  0  0  0  0  0  0  0  0  0  0
   12.4989    6.2074   20.1776 C   0  0  0  0  0  0  0  0  0  0  0  0
    6.9192    9.1053   20.9073 O   0  0  0  0  0  0  0  0  0  0  0  0
   14.3979    6.0729   18.7784 C   0  0  0  0  0  0  0  0  0  0  0  0
    8.6811    9.5354   16.9998 C   0  0  0  0  0  0  0  0  0  0  0  0
    9.2512    4.2713   13.7653 O   0  0  0  0  0  0  0  0  0  0  0  0
    9.6495    8.6317   16.8332 N   0  0  0  0  0  0  0  0  0  0  0  0
    6.2934    8.6988   23.1988 O   0  0  0  0  0  0  0  0  0  0  0  0
    7.9806    8.6543   20.5437 C   0  0  0  0  0  0  0  0  0  0  0  0
   13.7270    5.7144   19.8610 O   0  0  0  0  0  0  0  0  0  0  0  0
    8.3351    5.5235   15.4478 C   0  0  0  0  0  0  0  0  0  0  0  0
    8.7700    7.8434   21.3915 C   0  0  0  0  0  0  0  0  0  0  0  0
   11.7856    6.8851   19.2401 C   0  0  0  0  0  0  0  0  0  0  0  0
   10.5281    7.4276   19.5649 C   0  0  0  0  0  0  0  0  0  0  0  0
   10.0256    7.2907   20.8484 C   0  0  0  0  0  0  0  0  0  0  0  0
    9.3113    5.3049   14.4911 C   0  0  0  0  0  0  0  0  0  0  0  0
    9.4607    7.5646   16.0139 C   0  0  0  0  0  0  0  0  0  0  0  0
   10.4192    7.3157   15.0955 C   0  0  0  0  0  0  0  0  0  0  0  0
   10.2489    6.4227   23.0218 N   0  0  0  0  0  0  0  0  0  0  0  0
    7.2472    8.0746   23.5050 C   0  0  0  0  0  0  0  0  0  0  0  0
    9.2051    6.9101   23.4604 C   0  0  0  0  0  0  0  0  0  0  0  0
   11.9646    6.0299   21.4251 C   0  0  0  0  0  0  0  0  0  0  0  0
  1  5  1  0
  1 13  1  0
  2 20  2  0
  2 28  1  0
  2 29  1  0
  3 19  4  0
  3 25  4  0
  4 23  4  0
  4 27  1  0
  4 30  4  0
  5 17  1  0
  6  8  1  0
  6 29  1  0
  7 24  4  0
  7 26  4  0
  8 28  1  0
  9 13  2  0
 10 18  1  0
 10 21  4  0
 10 30  4  0
 11 17  2  0
 12 18  1  0
 13 15  1  0
 14 24  1  0
 15 25  1  0
 16 28  2  0
 17 20  1  0
 19 24  4  0
 20 23  1  0
 21 22  4  0
 22 23  4  0
 25 26  4  0
 27 29  2  0
M  END
$$$$

 Created by Python create_sdf_string function

 30 33  0  0  0  0  0  0  0  0999 V2000
    8.3036    9.8571   18.4133 C   0  0  0  0  0  0  0  0  0  0  0  0
    8.3694    7.6612   22.6703 C   0  0  0  0  0  0  0  0  0  0  0  0
    8.4143    6.6863   16.2273 C   0  0  0  0  0  0  0  0  0  0  0  0
   10.7581    6.5674   21.7636 C   0  0  0  0  0  0  0  0  0  0  0  0
    8.4452    8.7960   19.2958 O   0  0  0  0  0  0  0  0  0  0  0  0
    8.7122    6.7842   24.8569 C   0  0  0  0  0  0  0  0  0  0  0  0
   10.3400    6.1726   14.3081 C   0  0  0  0  0  0  0  0  0  0  0  0
    7.4297    7.5873   24.8962 C   0  0  0  0  0  0  0  0  0  0  0  0
    8.1566   10.0536   16.0516 O   0  0  0  0  0  0  0  0  0  0  0  0
   12.4989    6.2074   20.1776 C   0  0  0  0  0  0  0  0  0  0  0  0
    6.9192    9.1053   20.9073 O   0  0  0  0  0  0  0  0  0  0  0  0
   14.3979    6.0729   18.7784 C   0  0  0  0  0  0  0  0  0  0  0  0
    8.6811    9.5354   16.9998 C   0  0  0  0  0  0  0  0  0  0  0  0
    9.2512    4.2713   13.7653 O   0  0  0  0  0  0  0  0  0  0  0  0
    9.6495    8.6317   16.8332 N   0  0  0  0  0  0  0  0  0  0  0  0
    6.2934    8.6988   23.1988 O   0  0  0  0  0  0  0  0  0  0  0  0
    7.9806    8.6543   20.5437 C   0  0  0  0  0  0  0  0  0  0  0  0
   13.7270    5.7144   19.8610 O   0  0  0  0  0  0  0  0  0  0  0  0
    8.3351    5.5235   15.4478 C   0  0  0  0  0  0  0  0  0  0  0  0
    8.7700    7.8434   21.3915 C   0  0  0  0  0  0  0  0  0  0  0  0
   11.7856    6.8851   19.2401 C   0  0  0  0  0  0  0  0  0  0  0  0
   10.5281    7.4276   19.5649 C   0  0  0  0  0  0  0  0  0  0  0  0
   10.0256    7.2907   20.8484 C   0  0  0  0  0  0  0  0  0  0  0  0
    9.3113    5.3049   14.4911 C   0  0  0  0  0  0  0  0  0  0  0  0
    9.4607    7.5646   16.0139 C   0  0  0  0  0  0  0  0  0  0  0  0
   10.4192    7.3157   15.0955 C   0  0  0  0  0  0  0  0  0  0  0  0
   10.2489    6.4227   23.0218 N   0  0  0  0  0  0  0  0  0  0  0  0
    7.2472    8.0746   23.5050 C   0  0  0  0  0  0  0  0  0  0  0  0
    9.2051    6.9101   23.4604 C   0  0  0  0  0  0  0  0  0  0  0  0
   11.9646    6.0299   21.4251 C   0  0  0  0  0  0  0  0  0  0  0  0
  1  5  1  0
  1 13  1  0
  2 20  2  0
  2 28  1  0
  2 29  1  0
  3 19  4  0
  3 25  4  0
  4 23  4  0
  4 27  1  0
  4 30  4  0
  5 17  1  0
  6  8  1  0
  6 29  1  0
  7 24  4  0
  7 26  4  0
  8 28  1  0
  9 13  2  0
 10 18  1  0
 10 21  4  0
 10 30  4  0
 11 17  2  0
 12 18  1  0
 13 15  1  0
 14 24  1  0
 15 25  1  0
 16 28  2  0
 17 20  1  0
 19 24  4  0
 20 23  1  0
 21 22  4  0
 22 23  4  0
 25 26  4  0
 27 29  2  0
M  END
$$$$

 Created by Python create_sdf_string function

 30 33  0  0  0  0  0  0  0  0999 V2000
    8.3036    9.8571   18.4133 C   0  0  0  0  0  0  0  0  0  0  0  0
    8.3694    7.6612   22.6703 C   0  0  0  0  0  0  0  0  0  0  0  0
    8.4143    6.6863   16.2273 C   0  0  0  0  0  0  0  0  0  0  0  0
   10.7581    6.5674   21.7636 C   0  0  0  0  0  0  0  0  0  0  0  0
    8.4452    8.7960   19.2958 O   0  0  0  0  0  0  0  0  0  0  0  0
    8.7122    6.7842   24.8569 C   0  0  0  0  0  0  0  0  0  0  0  0
   10.3400    6.1726   14.3081 C   0  0  0  0  0  0  0  0  0  0  0  0
    7.4297    7.5873   24.8962 C   0  0  0  0  0  0  0  0  0  0  0  0
    8.1566   10.0536   16.0516 O   0  0  0  0  0  0  0  0  0  0  0  0
   12.4989    6.2074   20.1776 C   0  0  0  0  0  0  0  0  0  0  0  0
    6.9192    9.1053   20.9073 O   0  0  0  0  0  0  0  0  0  0  0  0
   14.3979    6.0729   18.7784 C   0  0  0  0  0  0  0  0  0  0  0  0
    8.6811    9.5354   16.9998 C   0  0  0  0  0  0  0  0  0  0  0  0
    9.2512    4.2713   13.7653 O   0  0  0  0  0  0  0  0  0  0  0  0
    9.6495    8.6317   16.8332 N   0  0  0  0  0  0  0  0  0  0  0  0
    6.2934    8.6988   23.1988 O   0  0  0  0  0  0  0  0  0  0  0  0
    7.9806    8.6543   20.5437 C   0  0  0  0  0  0  0  0  0  0  0  0
   13.7270    5.7144   19.8610 O   0  0  0  0  0  0  0  0  0  0  0  0
    8.3351    5.5235   15.4478 C   0  0  0  0  0  0  0  0  0  0  0  0
    8.7700    7.8434   21.3915 C   0  0  0  0  0  0  0  0  0  0  0  0
   11.7856    6.8851   19.2401 C   0  0  0  0  0  0  0  0  0  0  0  0
   10.5281    7.4276   19.5649 C   0  0  0  0  0  0  0  0  0  0  0  0
   10.0256    7.2907   20.8484 C   0  0  0  0  0  0  0  0  0  0  0  0
    9.3113    5.3049   14.4911 C   0  0  0  0  0  0  0  0  0  0  0  0
    9.4607    7.5646   16.0139 C   0  0  0  0  0  0  0  0  0  0  0  0
   10.4192    7.3157   15.0955 C   0  0  0  0  0  0  0  0  0  0  0  0
   10.2489    6.4227   23.0218 N   0  0  0  0  0  0  0  0  0  0  0  0
    7.2472    8.0746   23.5050 C   0  0  0  0  0  0  0  0  0  0  0  0
    9.2051    6.9101   23.4604 C   0  0  0  0  0  0  0  0  0  0  0  0
   11.9646    6.0299   21.4251 C   0  0  0  0  0  0  0  0  0  0  0  0
  1  5  1  0
  1 13  1  0
  2 20  2  0
  2 28  1  0
  2 29  1  0
  3 19  4  0
  3 25  4  0
  4 23  4  0
  4 27  1  0
  4 30  4  0
  5 17  1  0
  6  8  1  0
  6 29  1  0
  7 24  4  0
  7 26  4  0
  8 28  1  0
  9 13  2  0
 10 18  1  0
 10 21  4  0
 10 30  4  0
 11 17  2  0
 12 18  1  0
 13 15  1  0
 14 24  1  0
 15 25  1  0
 16 28  2  0
 17 20  1  0
 19 24  4  0
 20 23  1  0
 21 22  4  0
 22 23  4  0
 25 26  4  0
 27 29  2  0
M  END
$$$$

 Created by Python create_sdf_string function

 30 33  0  0  0  0  0  0  0  0999 V2000
    8.3036    9.8571   18.4133 C   0  0  0  0  0  0  0  0  0  0  0  0
    8.3694    7.6612   22.6703 C   0  0  0  0  0  0  0  0  0  0  0  0
    8.4143    6.6863   16.2273 C   0  0  0  0  0  0  0  0  0  0  0  0
   10.7581    6.5674   21.7636 C   0  0  0  0  0  0  0  0  0  0  0  0
    8.4452    8.7960   19.2958 O   0  0  0  0  0  0  0  0  0  0  0  0
    8.7122    6.7842   24.8569 C   0  0  0  0  0  0  0  0  0  0  0  0
   10.3400    6.1726   14.3081 C   0  0  0  0  0  0  0  0  0  0  0  0
    7.4297    7.5873   24.8962 C   0  0  0  0  0  0  0  0  0  0  0  0
    8.1566   10.0536   16.0516 O   0  0  0  0  0  0  0  0  0  0  0  0
   12.4989    6.2074   20.1776 C   0  0  0  0  0  0  0  0  0  0  0  0
    6.9192    9.1053   20.9073 O   0  0  0  0  0  0  0  0  0  0  0  0
   14.3979    6.0729   18.7784 C   0  0  0  0  0  0  0  0  0  0  0  0
    8.6811    9.5354   16.9998 C   0  0  0  0  0  0  0  0  0  0  0  0
    9.2512    4.2713   13.7653 O   0  0  0  0  0  0  0  0  0  0  0  0
    9.6495    8.6317   16.8332 N   0  0  0  0  0  0  0  0  0  0  0  0
    6.2934    8.6988   23.1988 O   0  0  0  0  0  0  0  0  0  0  0  0
    7.9806    8.6543   20.5437 C   0  0  0  0  0  0  0  0  0  0  0  0
   13.7270    5.7144   19.8610 O   0  0  0  0  0  0  0  0  0  0  0  0
    8.3351    5.5235   15.4478 C   0  0  0  0  0  0  0  0  0  0  0  0
    8.7700    7.8434   21.3915 C   0  0  0  0  0  0  0  0  0  0  0  0
   11.7856    6.8851   19.2401 C   0  0  0  0  0  0  0  0  0  0  0  0
   10.5281    7.4276   19.5649 C   0  0  0  0  0  0  0  0  0  0  0  0
   10.0256    7.2907   20.8484 C   0  0  0  0  0  0  0  0  0  0  0  0
    9.3113    5.3049   14.4911 C   0  0  0  0  0  0  0  0  0  0  0  0
    9.4607    7.5646   16.0139 C   0  0  0  0  0  0  0  0  0  0  0  0
   10.4192    7.3157   15.0955 C   0  0  0  0  0  0  0  0  0  0  0  0
   10.2489    6.4227   23.0218 N   0  0  0  0  0  0  0  0  0  0  0  0
    7.2472    8.0746   23.5050 C   0  0  0  0  0  0  0  0  0  0  0  0
    9.2051    6.9101   23.4604 C   0  0  0  0  0  0  0  0  0  0  0  0
   11.9646    6.0299   21.4251 C   0  0  0  0  0  0  0  0  0  0  0  0
  1  5  1  0
  1 13  1  0
  2 20  2  0
  2 28  1  0
  2 29  1  0
  3 19  4  0
  3 25  4  0
  4 23  4  0
  4 27  1  0
  4 30  4  0
  5 17  1  0
  6  8  1  0
  6 29  1  0
  7 24  4  0
  7 26  4  0
  8 28  1  0
  9 13  2  0
 10 18  1  0
 10 21  4  0
 10 30  4  0
 11 17  2  0
 12 18  1  0
 13 15  1  0
 14 24  1  0
 15 25  1  0
 16 28  2  0
 17 20  1  0
 19 24  4  0
 20 23  1  0
 21 22  4  0
 22 23  4  0
 25 26  4  0
 27 29  2  0
M  END
$$$$

 Created by Python create_sdf_string function

 30 33  0  0  0  0  0  0  0  0999 V2000
    8.3036    9.8571   18.4133 C   0  0  0  0  0  0  0  0  0  0  0  0
    8.3694    7.6612   22.6703 C   0  0  0  0  0  0  0  0  0  0  0  0
    8.4143    6.6863   16.2273 C   0  0  0  0  0  0  0  0  0  0  0  0
   10.7581    6.5674   21.7636 C   0  0  0  0  0  0  0  0  0  0  0  0
    8.4452    8.7960   19.2958 O   0  0  0  0  0  0  0  0  0  0  0  0
    8.7122    6.7842   24.8569 C   0  0  0  0  0  0  0  0  0  0  0  0
   10.3400    6.1726   14.3081 C   0  0  0  0  0  0  0  0  0  0  0  0
    7.4297    7.5873   24.8962 C   0  0  0  0  0  0  0  0  0  0  0  0
    8.1566   10.0536   16.0516 O   0  0  0  0  0  0  0  0  0  0  0  0
   12.4989    6.2074   20.1776 C   0  0  0  0  0  0  0  0  0  0  0  0
    6.9192    9.1053   20.9073 O   0  0  0  0  0  0  0  0  0  0  0  0
   14.3979    6.0729   18.7784 C   0  0  0  0  0  0  0  0  0  0  0  0
    8.6811    9.5354   16.9998 C   0  0  0  0  0  0  0  0  0  0  0  0
    9.2512    4.2713   13.7653 O   0  0  0  0  0  0  0  0  0  0  0  0
    9.6495    8.6317   16.8332 N   0  0  0  0  0  0  0  0  0  0  0  0
    6.2934    8.6988   23.1988 O   0  0  0  0  0  0  0  0  0  0  0  0
    7.9806    8.6543   20.5437 C   0  0  0  0  0  0  0  0  0  0  0  0
   13.7270    5.7144   19.8610 O   0  0  0  0  0  0  0  0  0  0  0  0
    8.3351    5.5235   15.4478 C   0  0  0  0  0  0  0  0  0  0  0  0
    8.7700    7.8434   21.3915 C   0  0  0  0  0  0  0  0  0  0  0  0
   11.7856    6.8851   19.2401 C   0  0  0  0  0  0  0  0  0  0  0  0
   10.5281    7.4276   19.5649 C   0  0  0  0  0  0  0  0  0  0  0  0
   10.0256    7.2907   20.8484 C   0  0  0  0  0  0  0  0  0  0  0  0
    9.3113    5.3049   14.4911 C   0  0  0  0  0  0  0  0  0  0  0  0
    9.4607    7.5646   16.0139 C   0  0  0  0  0  0  0  0  0  0  0  0
   10.4192    7.3157   15.0955 C   0  0  0  0  0  0  0  0  0  0  0  0
   10.2489    6.4227   23.0218 N   0  0  0  0  0  0  0  0  0  0  0  0
    7.2472    8.0746   23.5050 C   0  0  0  0  0  0  0  0  0  0  0  0
    9.2051    6.9101   23.4604 C   0  0  0  0  0  0  0  0  0  0  0  0
   11.9646    6.0299   21.4251 C   0  0  0  0  0  0  0  0  0  0  0  0
  1  5  1  0
  1 13  1  0
  2 20  2  0
  2 28  1  0
  2 29  1  0
  3 19  4  0
  3 25  4  0
  4 23  4  0
  4 27  1  0
  4 30  4  0
  5 17  1  0
  6  8  1  0
  6 29  1  0
  7 24  4  0
  7 26  4  0
  8 28  1  0
  9 13  2  0
 10 18  1  0
 10 21  4  0
 10 30  4  0
 11 17  2  0
 12 18  1  0
 13 15  1  0
 14 24  1  0
 15 25  1  0
 16 28  2  0
 17 20  1  0
 19 24  4  0
 20 23  1  0
 21 22  4  0
 22 23  4  0
 25 26  4  0
 27 29  2  0
M  END
$$$$

 Created by Python create_sdf_string function

 30 33  0  0  0  0  0  0  0  0999 V2000
    8.3036    9.8571   18.4133 C   0  0  0  0  0  0  0  0  0  0  0  0
    8.3694    7.6612   22.6703 C   0  0  0  0  0  0  0  0  0  0  0  0
    8.4143    6.6863   16.2273 C   0  0  0  0  0  0  0  0  0  0  0  0
   10.7581    6.5674   21.7636 C   0  0  0  0  0  0  0  0  0  0  0  0
    8.4452    8.7960   19.2958 O   0  0  0  0  0  0  0  0  0  0  0  0
    8.7122    6.7842   24.8569 C   0  0  0  0  0  0  0  0  0  0  0  0
   10.3400    6.1726   14.3081 C   0  0  0  0  0  0  0  0  0  0  0  0
    7.4297    7.5873   24.8962 C   0  0  0  0  0  0  0  0  0  0  0  0
    8.1566   10.0536   16.0516 O   0  0  0  0  0  0  0  0  0  0  0  0
   12.4989    6.2074   20.1776 C   0  0  0  0  0  0  0  0  0  0  0  0
    6.9192    9.1053   20.9073 O   0  0  0  0  0  0  0  0  0  0  0  0
   14.3979    6.0729   18.7784 C   0  0  0  0  0  0  0  0  0  0  0  0
    8.6811    9.5354   16.9998 C   0  0  0  0  0  0  0  0  0  0  0  0
    9.2512    4.2713   13.7653 O   0  0  0  0  0  0  0  0  0  0  0  0
    9.6495    8.6317   16.8332 N   0  0  0  0  0  0  0  0  0  0  0  0
    6.2934    8.6988   23.1988 O   0  0  0  0  0  0  0  0  0  0  0  0
    7.9806    8.6543   20.5437 C   0  0  0  0  0  0  0  0  0  0  0  0
   13.7270    5.7144   19.8610 O   0  0  0  0  0  0  0  0  0  0  0  0
    8.3351    5.5235   15.4478 C   0  0  0  0  0  0  0  0  0  0  0  0
    8.7700    7.8434   21.3915 C   0  0  0  0  0  0  0  0  0  0  0  0
   11.7856    6.8851   19.2401 C   0  0  0  0  0  0  0  0  0  0  0  0
   10.5281    7.4276   19.5649 C   0  0  0  0  0  0  0  0  0  0  0  0
   10.0256    7.2907   20.8484 C   0  0  0  0  0  0  0  0  0  0  0  0
    9.3113    5.3049   14.4911 C   0  0  0  0  0  0  0  0  0  0  0  0
    9.4607    7.5646   16.0139 C   0  0  0  0  0  0  0  0  0  0  0  0
   10.4192    7.3157   15.0955 C   0  0  0  0  0  0  0  0  0  0  0  0
   10.2489    6.4227   23.0218 N   0  0  0  0  0  0  0  0  0  0  0  0
    7.2472    8.0746   23.5050 C   0  0  0  0  0  0  0  0  0  0  0  0
    9.2051    6.9101   23.4604 C   0  0  0  0  0  0  0  0  0  0  0  0
   11.9646    6.0299   21.4251 C   0  0  0  0  0  0  0  0  0  0  0  0
  1  5  1  0
  1 13  1  0
  2 20  2  0
  2 28  1  0
  2 29  1  0
  3 19  4  0
  3 25  4  0
  4 23  4  0
  4 27  1  0
  4 30  4  0
  5 17  1  0
  6  8  1  0
  6 29  1  0
  7 24  4  0
  7 26  4  0
  8 28  1  0
  9 13  2  0
 10 18  1  0
 10 21  4  0
 10 30  4  0
 11 17  2  0
 12 18  1  0
 13 15  1  0
 14 24  1  0
 15 25  1  0
 16 28  2  0
 17 20  1  0
 19 24  4  0
 20 23  1  0
 21 22  4  0
 22 23  4  0
 25 26  4  0
 27 29  2  0
M  END
$$$$

 Created by Python create_sdf_string function

 30 33  0  0  0  0  0  0  0  0999 V2000
    8.3036    9.8571   18.4133 C   0  0  0  0  0  0  0  0  0  0  0  0
    8.3694    7.6612   22.6703 C   0  0  0  0  0  0  0  0  0  0  0  0
    8.4143    6.6863   16.2273 C   0  0  0  0  0  0  0  0  0  0  0  0
   10.7581    6.5674   21.7636 C   0  0  0  0  0  0  0  0  0  0  0  0
    8.4452    8.7960   19.2958 O   0  0  0  0  0  0  0  0  0  0  0  0
    8.7122    6.7842   24.8569 C   0  0  0  0  0  0  0  0  0  0  0  0
   10.3400    6.1726   14.3081 C   0  0  0  0  0  0  0  0  0  0  0  0
    7.4297    7.5873   24.8962 C   0  0  0  0  0  0  0  0  0  0  0  0
    8.1566   10.0536   16.0516 O   0  0  0  0  0  0  0  0  0  0  0  0
   12.4989    6.2074   20.1776 C   0  0  0  0  0  0  0  0  0  0  0  0
    6.9192    9.1053   20.9073 O   0  0  0  0  0  0  0  0  0  0  0  0
   14.3979    6.0729   18.7784 C   0  0  0  0  0  0  0  0  0  0  0  0
    8.6811    9.5354   16.9998 C   0  0  0  0  0  0  0  0  0  0  0  0
    9.2512    4.2713   13.7653 O   0  0  0  0  0  0  0  0  0  0  0  0
    9.6495    8.6317   16.8332 N   0  0  0  0  0  0  0  0  0  0  0  0
    6.2934    8.6988   23.1988 O   0  0  0  0  0  0  0  0  0  0  0  0
    7.9806    8.6543   20.5437 C   0  0  0  0  0  0  0  0  0  0  0  0
   13.7270    5.7144   19.8610 O   0  0  0  0  0  0  0  0  0  0  0  0
    8.3351    5.5235   15.4478 C   0  0  0  0  0  0  0  0  0  0  0  0
    8.7700    7.8434   21.3915 C   0  0  0  0  0  0  0  0  0  0  0  0
   11.7856    6.8851   19.2401 C   0  0  0  0  0  0  0  0  0  0  0  0
   10.5281    7.4276   19.5649 C   0  0  0  0  0  0  0  0  0  0  0  0
   10.0256    7.2907   20.8484 C   0  0  0  0  0  0  0  0  0  0  0  0
    9.3113    5.3049   14.4911 C   0  0  0  0  0  0  0  0  0  0  0  0
    9.4607    7.5646   16.0139 C   0  0  0  0  0  0  0  0  0  0  0  0
   10.4192    7.3157   15.0955 C   0  0  0  0  0  0  0  0  0  0  0  0
   10.2489    6.4227   23.0218 N   0  0  0  0  0  0  0  0  0  0  0  0
    7.2472    8.0746   23.5050 C   0  0  0  0  0  0  0  0  0  0  0  0
    9.2051    6.9101   23.4604 C   0  0  0  0  0  0  0  0  0  0  0  0
   11.9646    6.0299   21.4251 C   0  0  0  0  0  0  0  0  0  0  0  0
  1  5  1  0
  1 13  1  0
  2 20  2  0
  2 28  1  0
  2 29  1  0
  3 19  4  0
  3 25  4  0
  4 23  4  0
  4 27  1  0
  4 30  4  0
  5 17  1  0
  6  8  1  0
  6 29  1  0
  7 24  4  0
  7 26  4  0
  8 28  1  0
  9 13  2  0
 10 18  1  0
 10 21  4  0
 10 30  4  0
 11 17  2  0
 12 18  1  0
 13 15  1  0
 14 24  1  0
 15 25  1  0
 16 28  2  0
 17 20  1  0
 19 24  4  0
 20 23  1  0
 21 22  4  0
 22 23  4  0
 25 26  4  0
 27 29  2  0
M  END
$$$$

 Created by Python create_sdf_string function

 30 33  0  0  0  0  0  0  0  0999 V2000
    8.3036    9.8571   18.4133 C   0  0  0  0  0  0  0  0  0  0  0  0
    8.3694    7.6612   22.6703 C   0  0  0  0  0  0  0  0  0  0  0  0
    8.4143    6.6863   16.2273 C   0  0  0  0  0  0  0  0  0  0  0  0
   10.7581    6.5674   21.7636 C   0  0  0  0  0  0  0  0  0  0  0  0
    8.4452    8.7960   19.2958 O   0  0  0  0  0  0  0  0  0  0  0  0
    8.7122    6.7842   24.8569 C   0  0  0  0  0  0  0  0  0  0  0  0
   10.3400    6.1726   14.3081 C   0  0  0  0  0  0  0  0  0  0  0  0
    7.4297    7.5873   24.8962 C   0  0  0  0  0  0  0  0  0  0  0  0
    8.1566   10.0536   16.0516 O   0  0  0  0  0  0  0  0  0  0  0  0
   12.4989    6.2074   20.1776 C   0  0  0  0  0  0  0  0  0  0  0  0
    6.9192    9.1053   20.9073 O   0  0  0  0  0  0  0  0  0  0  0  0
   14.3979    6.0729   18.7784 C   0  0  0  0  0  0  0  0  0  0  0  0
    8.6811    9.5354   16.9998 C   0  0  0  0  0  0  0  0  0  0  0  0
    9.2512    4.2713   13.7653 O   0  0  0  0  0  0  0  0  0  0  0  0
    9.6495    8.6317   16.8332 N   0  0  0  0  0  0  0  0  0  0  0  0
    6.2934    8.6988   23.1988 O   0  0  0  0  0  0  0  0  0  0  0  0
    7.9806    8.6543   20.5437 C   0  0  0  0  0  0  0  0  0  0  0  0
   13.7270    5.7144   19.8610 O   0  0  0  0  0  0  0  0  0  0  0  0
    8.3351    5.5235   15.4478 C   0  0  0  0  0  0  0  0  0  0  0  0
    8.7700    7.8434   21.3915 C   0  0  0  0  0  0  0  0  0  0  0  0
   11.7856    6.8851   19.2401 C   0  0  0  0  0  0  0  0  0  0  0  0
   10.5281    7.4276   19.5649 C   0  0  0  0  0  0  0  0  0  0  0  0
   10.0256    7.2907   20.8484 C   0  0  0  0  0  0  0  0  0  0  0  0
    9.3113    5.3049   14.4911 C   0  0  0  0  0  0  0  0  0  0  0  0
    9.4607    7.5646   16.0139 C   0  0  0  0  0  0  0  0  0  0  0  0
   10.4192    7.3157   15.0955 C   0  0  0  0  0  0  0  0  0  0  0  0
   10.2489    6.4227   23.0218 N   0  0  0  0  0  0  0  0  0  0  0  0
    7.2472    8.0746   23.5050 C   0  0  0  0  0  0  0  0  0  0  0  0
    9.2051    6.9101   23.4604 C   0  0  0  0  0  0  0  0  0  0  0  0
   11.9646    6.0299   21.4251 C   0  0  0  0  0  0  0  0  0  0  0  0
  1  5  1  0
  1 13  1  0
  2 20  2  0
  2 28  1  0
  2 29  1  0
  3 19  4  0
  3 25  4  0
  4 23  4  0
  4 27  1  0
  4 30  4  0
  5 17  1  0
  6  8  1  0
  6 29  1  0
  7 24  4  0
  7 26  4  0
  8 28  1  0
  9 13  2  0
 10 18  1  0
 10 21  4  0
 10 30  4  0
 11 17  2  0
 12 18  1  0
 13 15  1  0
 14 24  1  0
 15 25  1  0
 16 28  2  0
 17 20  1  0
 19 24  4  0
 20 23  1  0
 21 22  4  0
 22 23  4  0
 25 26  4  0
 27 29  2  0
M  END
$$$$

 Created by Python create_sdf_string function

 30 33  0  0  0  0  0  0  0  0999 V2000
    8.3036    9.8571   18.4133 C   0  0  0  0  0  0  0  0  0  0  0  0
    8.3694    7.6612   22.6703 C   0  0  0  0  0  0  0  0  0  0  0  0
    8.4143    6.6863   16.2273 C   0  0  0  0  0  0  0  0  0  0  0  0
   10.7581    6.5674   21.7636 C   0  0  0  0  0  0  0  0  0  0  0  0
    8.4452    8.7960   19.2958 O   0  0  0  0  0  0  0  0  0  0  0  0
    8.7122    6.7842   24.8569 C   0  0  0  0  0  0  0  0  0  0  0  0
   10.3400    6.1726   14.3081 C   0  0  0  0  0  0  0  0  0  0  0  0
    7.4297    7.5873   24.8962 C   0  0  0  0  0  0  0  0  0  0  0  0
    8.1566   10.0536   16.0516 O   0  0  0  0  0  0  0  0  0  0  0  0
   12.4989    6.2074   20.1776 C   0  0  0  0  0  0  0  0  0  0  0  0
    6.9192    9.1053   20.9073 O   0  0  0  0  0  0  0  0  0  0  0  0
   14.3979    6.0729   18.7784 C   0  0  0  0  0  0  0  0  0  0  0  0
    8.6811    9.5354   16.9998 C   0  0  0  0  0  0  0  0  0  0  0  0
    9.2512    4.2713   13.7653 O   0  0  0  0  0  0  0  0  0  0  0  0
    9.6495    8.6317   16.8332 N   0  0  0  0  0  0  0  0  0  0  0  0
    6.2934    8.6988   23.1988 O   0  0  0  0  0  0  0  0  0  0  0  0
    7.9806    8.6543   20.5437 C   0  0  0  0  0  0  0  0  0  0  0  0
   13.7270    5.7144   19.8610 O   0  0  0  0  0  0  0  0  0  0  0  0
    8.3351    5.5235   15.4478 C   0  0  0  0  0  0  0  0  0  0  0  0
    8.7700    7.8434   21.3915 C   0  0  0  0  0  0  0  0  0  0  0  0
   11.7856    6.8851   19.2401 C   0  0  0  0  0  0  0  0  0  0  0  0
   10.5281    7.4276   19.5649 C   0  0  0  0  0  0  0  0  0  0  0  0
   10.0256    7.2907   20.8484 C   0  0  0  0  0  0  0  0  0  0  0  0
    9.3113    5.3049   14.4911 C   0  0  0  0  0  0  0  0  0  0  0  0
    9.4607    7.5646   16.0139 C   0  0  0  0  0  0  0  0  0  0  0  0
   10.4192    7.3157   15.0955 C   0  0  0  0  0  0  0  0  0  0  0  0
   10.2489    6.4227   23.0218 N   0  0  0  0  0  0  0  0  0  0  0  0
    7.2472    8.0746   23.5050 C   0  0  0  0  0  0  0  0  0  0  0  0
    9.2051    6.9101   23.4604 C   0  0  0  0  0  0  0  0  0  0  0  0
   11.9646    6.0299   21.4251 C   0  0  0  0  0  0  0  0  0  0  0  0
  1  5  1  0
  1 13  1  0
  2 20  2  0
  2 28  1  0
  2 29  1  0
  3 19  4  0
  3 25  4  0
  4 23  4  0
  4 27  1  0
  4 30  4  0
  5 17  1  0
  6  8  1  0
  6 29  1  0
  7 24  4  0
  7 26  4  0
  8 28  1  0
  9 13  2  0
 10 18  1  0
 10 21  4  0
 10 30  4  0
 11 17  2  0
 12 18  1  0
 13 15  1  0
 14 24  1  0
 15 25  1  0
 16 28  2  0
 17 20  1  0
 19 24  4  0
 20 23  1  0
 21 22  4  0
 22 23  4  0
 25 26  4  0
 27 29  2  0
M  END
$$$$

 Created by Python create_sdf_string function

 30 33  0  0  0  0  0  0  0  0999 V2000
    8.3036    9.8571   18.4133 C   0  0  0  0  0  0  0  0  0  0  0  0
    8.3694    7.6612   22.6703 C   0  0  0  0  0  0  0  0  0  0  0  0
    8.4143    6.6863   16.2273 C   0  0  0  0  0  0  0  0  0  0  0  0
   10.7581    6.5674   21.7636 C   0  0  0  0  0  0  0  0  0  0  0  0
    8.4452    8.7960   19.2958 O   0  0  0  0  0  0  0  0  0  0  0  0
    8.7122    6.7842   24.8569 C   0  0  0  0  0  0  0  0  0  0  0  0
   10.3400    6.1726   14.3081 C   0  0  0  0  0  0  0  0  0  0  0  0
    7.4297    7.5873   24.8962 C   0  0  0  0  0  0  0  0  0  0  0  0
    8.1566   10.0536   16.0516 O   0  0  0  0  0  0  0  0  0  0  0  0
   12.4989    6.2074   20.1776 C   0  0  0  0  0  0  0  0  0  0  0  0
    6.9192    9.1053   20.9073 O   0  0  0  0  0  0  0  0  0  0  0  0
   14.3979    6.0729   18.7784 C   0  0  0  0  0  0  0  0  0  0  0  0
    8.6811    9.5354   16.9998 C   0  0  0  0  0  0  0  0  0  0  0  0
    9.2512    4.2713   13.7653 O   0  0  0  0  0  0  0  0  0  0  0  0
    9.6495    8.6317   16.8332 N   0  0  0  0  0  0  0  0  0  0  0  0
    6.2934    8.6988   23.1988 O   0  0  0  0  0  0  0  0  0  0  0  0
    7.9806    8.6543   20.5437 C   0  0  0  0  0  0  0  0  0  0  0  0
   13.7270    5.7144   19.8610 O   0  0  0  0  0  0  0  0  0  0  0  0
    8.3351    5.5235   15.4478 C   0  0  0  0  0  0  0  0  0  0  0  0
    8.7700    7.8434   21.3915 C   0  0  0  0  0  0  0  0  0  0  0  0
   11.7856    6.8851   19.2401 C   0  0  0  0  0  0  0  0  0  0  0  0
   10.5281    7.4276   19.5649 C   0  0  0  0  0  0  0  0  0  0  0  0
   10.0256    7.2907   20.8484 C   0  0  0  0  0  0  0  0  0  0  0  0
    9.3113    5.3049   14.4911 C   0  0  0  0  0  0  0  0  0  0  0  0
    9.4607    7.5646   16.0139 C   0  0  0  0  0  0  0  0  0  0  0  0
   10.4192    7.3157   15.0955 C   0  0  0  0  0  0  0  0  0  0  0  0
   10.2489    6.4227   23.0218 N   0  0  0  0  0  0  0  0  0  0  0  0
    7.2472    8.0746   23.5050 C   0  0  0  0  0  0  0  0  0  0  0  0
    9.2051    6.9101   23.4604 C   0  0  0  0  0  0  0  0  0  0  0  0
   11.9646    6.0299   21.4251 C   0  0  0  0  0  0  0  0  0  0  0  0
  1  5  1  0
  1 13  1  0
  2 20  2  0
  2 28  1  0
  2 29  1  0
  3 19  4  0
  3 25  4  0
  4 23  4  0
  4 27  1  0
  4 30  4  0
  5 17  1  0
  6  8  1  0
  6 29  1  0
  7 24  4  0
  7 26  4  0
  8 28  1  0
  9 13  2  0
 10 18  1  0
 10 21  4  0
 10 30  4  0
 11 17  2  0
 12 18  1  0
 13 15  1  0
 14 24  1  0
 15 25  1  0
 16 28  2  0
 17 20  1  0
 19 24  4  0
 20 23  1  0
 21 22  4  0
 22 23  4  0
 25 26  4  0
 27 29  2  0
M  END
$$$$

 Created by Python create_sdf_string function

 30 33  0  0  0  0  0  0  0  0999 V2000
    8.3036    9.8571   18.4133 C   0  0  0  0  0  0  0  0  0  0  0  0
    8.3694    7.6612   22.6703 C   0  0  0  0  0  0  0  0  0  0  0  0
    8.4143    6.6863   16.2273 C   0  0  0  0  0  0  0  0  0  0  0  0
   10.7581    6.5674   21.7636 C   0  0  0  0  0  0  0  0  0  0  0  0
    8.4452    8.7960   19.2958 O   0  0  0  0  0  0  0  0  0  0  0  0
    8.7122    6.7842   24.8569 C   0  0  0  0  0  0  0  0  0  0  0  0
   10.3400    6.1726   14.3081 C   0  0  0  0  0  0  0  0  0  0  0  0
    7.4297    7.5873   24.8962 C   0  0  0  0  0  0  0  0  0  0  0  0
    8.1566   10.0536   16.0516 O   0  0  0  0  0  0  0  0  0  0  0  0
   12.4989    6.2074   20.1776 C   0  0  0  0  0  0  0  0  0  0  0  0
    6.9192    9.1053   20.9073 O   0  0  0  0  0  0  0  0  0  0  0  0
   14.3979    6.0729   18.7784 C   0  0  0  0  0  0  0  0  0  0  0  0
    8.6811    9.5354   16.9998 C   0  0  0  0  0  0  0  0  0  0  0  0
    9.2512    4.2713   13.7653 O   0  0  0  0  0  0  0  0  0  0  0  0
    9.6495    8.6317   16.8332 N   0  0  0  0  0  0  0  0  0  0  0  0
    6.2934    8.6988   23.1988 O   0  0  0  0  0  0  0  0  0  0  0  0
    7.9806    8.6543   20.5437 C   0  0  0  0  0  0  0  0  0  0  0  0
   13.7270    5.7144   19.8610 O   0  0  0  0  0  0  0  0  0  0  0  0
    8.3351    5.5235   15.4478 C   0  0  0  0  0  0  0  0  0  0  0  0
    8.7700    7.8434   21.3915 C   0  0  0  0  0  0  0  0  0  0  0  0
   11.7856    6.8851   19.2401 C   0  0  0  0  0  0  0  0  0  0  0  0
   10.5281    7.4276   19.5649 C   0  0  0  0  0  0  0  0  0  0  0  0
   10.0256    7.2907   20.8484 C   0  0  0  0  0  0  0  0  0  0  0  0
    9.3113    5.3049   14.4911 C   0  0  0  0  0  0  0  0  0  0  0  0
    9.4607    7.5646   16.0139 C   0  0  0  0  0  0  0  0  0  0  0  0
   10.4192    7.3157   15.0955 C   0  0  0  0  0  0  0  0  0  0  0  0
   10.2489    6.4227   23.0218 N   0  0  0  0  0  0  0  0  0  0  0  0
    7.2472    8.0746   23.5050 C   0  0  0  0  0  0  0  0  0  0  0  0
    9.2051    6.9101   23.4604 C   0  0  0  0  0  0  0  0  0  0  0  0
   11.9646    6.0299   21.4251 C   0  0  0  0  0  0  0  0  0  0  0  0
  1  5  1  0
  1 13  1  0
  2 20  2  0
  2 28  1  0
  2 29  1  0
  3 19  4  0
  3 25  4  0
  4 23  4  0
  4 27  1  0
  4 30  4  0
  5 17  1  0
  6  8  1  0
  6 29  1  0
  7 24  4  0
  7 26  4  0
  8 28  1  0
  9 13  2  0
 10 18  1  0
 10 21  4  0
 10 30  4  0
 11 17  2  0
 12 18  1  0
 13 15  1  0
 14 24  1  0
 15 25  1  0
 16 28  2  0
 17 20  1  0
 19 24  4  0
 20 23  1  0
 21 22  4  0
 22 23  4  0
 25 26  4  0
 27 29  2  0
M  END
$$$$

 Created by Python create_sdf_string function

 30 33  0  0  0  0  0  0  0  0999 V2000
    8.3036    9.8571   18.4133 C   0  0  0  0  0  0  0  0  0  0  0  0
    8.3694    7.6612   22.6703 C   0  0  0  0  0  0  0  0  0  0  0  0
    8.4143    6.6863   16.2273 C   0  0  0  0  0  0  0  0  0  0  0  0
   10.7581    6.5674   21.7636 C   0  0  0  0  0  0  0  0  0  0  0  0
    8.4452    8.7960   19.2958 O   0  0  0  0  0  0  0  0  0  0  0  0
    8.7122    6.7842   24.8569 C   0  0  0  0  0  0  0  0  0  0  0  0
   10.3400    6.1726   14.3081 C   0  0  0  0  0  0  0  0  0  0  0  0
    7.4297    7.5873   24.8962 C   0  0  0  0  0  0  0  0  0  0  0  0
    8.1566   10.0536   16.0516 O   0  0  0  0  0  0  0  0  0  0  0  0
   12.4989    6.2074   20.1776 C   0  0  0  0  0  0  0  0  0  0  0  0
    6.9192    9.1053   20.9073 O   0  0  0  0  0  0  0  0  0  0  0  0
   14.3979    6.0729   18.7784 C   0  0  0  0  0  0  0  0  0  0  0  0
    8.6811    9.5354   16.9998 C   0  0  0  0  0  0  0  0  0  0  0  0
    9.2512    4.2713   13.7653 O   0  0  0  0  0  0  0  0  0  0  0  0
    9.6495    8.6317   16.8332 N   0  0  0  0  0  0  0  0  0  0  0  0
    6.2934    8.6988   23.1988 O   0  0  0  0  0  0  0  0  0  0  0  0
    7.9806    8.6543   20.5437 C   0  0  0  0  0  0  0  0  0  0  0  0
   13.7270    5.7144   19.8610 O   0  0  0  0  0  0  0  0  0  0  0  0
    8.3351    5.5235   15.4478 C   0  0  0  0  0  0  0  0  0  0  0  0
    8.7700    7.8434   21.3915 C   0  0  0  0  0  0  0  0  0  0  0  0
   11.7856    6.8851   19.2401 C   0  0  0  0  0  0  0  0  0  0  0  0
   10.5281    7.4276   19.5649 C   0  0  0  0  0  0  0  0  0  0  0  0
   10.0256    7.2907   20.8484 C   0  0  0  0  0  0  0  0  0  0  0  0
    9.3113    5.3049   14.4911 C   0  0  0  0  0  0  0  0  0  0  0  0
    9.4607    7.5646   16.0139 C   0  0  0  0  0  0  0  0  0  0  0  0
   10.4192    7.3157   15.0955 C   0  0  0  0  0  0  0  0  0  0  0  0
   10.2489    6.4227   23.0218 N   0  0  0  0  0  0  0  0  0  0  0  0
    7.2472    8.0746   23.5050 C   0  0  0  0  0  0  0  0  0  0  0  0
    9.2051    6.9101   23.4604 C   0  0  0  0  0  0  0  0  0  0  0  0
   11.9646    6.0299   21.4251 C   0  0  0  0  0  0  0  0  0  0  0  0
  1  5  1  0
  1 13  1  0
  2 20  2  0
  2 28  1  0
  2 29  1  0
  3 19  4  0
  3 25  4  0
  4 23  4  0
  4 27  1  0
  4 30  4  0
  5 17  1  0
  6  8  1  0
  6 29  1  0
  7 24  4  0
  7 26  4  0
  8 28  1  0
  9 13  2  0
 10 18  1  0
 10 21  4  0
 10 30  4  0
 11 17  2  0
 12 18  1  0
 13 15  1  0
 14 24  1  0
 15 25  1  0
 16 28  2  0
 17 20  1  0
 19 24  4  0
 20 23  1  0
 21 22  4  0
 22 23  4  0
 25 26  4  0
 27 29  2  0
M  END
$$$$

 Created by Python create_sdf_string function

 30 33  0  0  0  0  0  0  0  0999 V2000
    8.3036    9.8571   18.4133 C   0  0  0  0  0  0  0  0  0  0  0  0
    8.3694    7.6612   22.6703 C   0  0  0  0  0  0  0  0  0  0  0  0
    8.4143    6.6863   16.2273 C   0  0  0  0  0  0  0  0  0  0  0  0
   10.7581    6.5674   21.7636 C   0  0  0  0  0  0  0  0  0  0  0  0
    8.4452    8.7960   19.2958 O   0  0  0  0  0  0  0  0  0  0  0  0
    8.7122    6.7842   24.8569 C   0  0  0  0  0  0  0  0  0  0  0  0
   10.3400    6.1726   14.3081 C   0  0  0  0  0  0  0  0  0  0  0  0
    7.4297    7.5873   24.8962 C   0  0  0  0  0  0  0  0  0  0  0  0
    8.1566   10.0536   16.0516 O   0  0  0  0  0  0  0  0  0  0  0  0
   12.4989    6.2074   20.1776 C   0  0  0  0  0  0  0  0  0  0  0  0
    6.9192    9.1053   20.9073 O   0  0  0  0  0  0  0  0  0  0  0  0
   14.3979    6.0729   18.7784 C   0  0  0  0  0  0  0  0  0  0  0  0
    8.6811    9.5354   16.9998 C   0  0  0  0  0  0  0  0  0  0  0  0
    9.2512    4.2713   13.7653 O   0  0  0  0  0  0  0  0  0  0  0  0
    9.6495    8.6317   16.8332 N   0  0  0  0  0  0  0  0  0  0  0  0
    6.2934    8.6988   23.1988 O   0  0  0  0  0  0  0  0  0  0  0  0
    7.9806    8.6543   20.5437 C   0  0  0  0  0  0  0  0  0  0  0  0
   13.7270    5.7144   19.8610 O   0  0  0  0  0  0  0  0  0  0  0  0
    8.3351    5.5235   15.4478 C   0  0  0  0  0  0  0  0  0  0  0  0
    8.7700    7.8434   21.3915 C   0  0  0  0  0  0  0  0  0  0  0  0
   11.7856    6.8851   19.2401 C   0  0  0  0  0  0  0  0  0  0  0  0
   10.5281    7.4276   19.5649 C   0  0  0  0  0  0  0  0  0  0  0  0
   10.0256    7.2907   20.8484 C   0  0  0  0  0  0  0  0  0  0  0  0
    9.3113    5.3049   14.4911 C   0  0  0  0  0  0  0  0  0  0  0  0
    9.4607    7.5646   16.0139 C   0  0  0  0  0  0  0  0  0  0  0  0
   10.4192    7.3157   15.0955 C   0  0  0  0  0  0  0  0  0  0  0  0
   10.2489    6.4227   23.0218 N   0  0  0  0  0  0  0  0  0  0  0  0
    7.2472    8.0746   23.5050 C   0  0  0  0  0  0  0  0  0  0  0  0
    9.2051    6.9101   23.4604 C   0  0  0  0  0  0  0  0  0  0  0  0
   11.9646    6.0299   21.4251 C   0  0  0  0  0  0  0  0  0  0  0  0
  1  5  1  0
  1 13  1  0
  2 20  2  0
  2 28  1  0
  2 29  1  0
  3 19  4  0
  3 25  4  0
  4 23  4  0
  4 27  1  0
  4 30  4  0
  5 17  1  0
  6  8  1  0
  6 29  1  0
  7 24  4  0
  7 26  4  0
  8 28  1  0
  9 13  2  0
 10 18  1  0
 10 21  4  0
 10 30  4  0
 11 17  2  0
 12 18  1  0
 13 15  1  0
 14 24  1  0
 15 25  1  0
 16 28  2  0
 17 20  1  0
 19 24  4  0
 20 23  1  0
 21 22  4  0
 22 23  4  0
 25 26  4  0
 27 29  2  0
M  END
$$$$

 Created by Python create_sdf_string function

 30 33  0  0  0  0  0  0  0  0999 V2000
    8.3036    9.8571   18.4133 C   0  0  0  0  0  0  0  0  0  0  0  0
    8.3694    7.6612   22.6703 C   0  0  0  0  0  0  0  0  0  0  0  0
    8.4143    6.6863   16.2273 C   0  0  0  0  0  0  0  0  0  0  0  0
   10.7581    6.5674   21.7636 C   0  0  0  0  0  0  0  0  0  0  0  0
    8.4452    8.7960   19.2958 O   0  0  0  0  0  0  0  0  0  0  0  0
    8.7122    6.7842   24.8569 C   0  0  0  0  0  0  0  0  0  0  0  0
   10.3400    6.1726   14.3081 C   0  0  0  0  0  0  0  0  0  0  0  0
    7.4297    7.5873   24.8962 C   0  0  0  0  0  0  0  0  0  0  0  0
    8.1566   10.0536   16.0516 O   0  0  0  0  0  0  0  0  0  0  0  0
   12.4989    6.2074   20.1776 C   0  0  0  0  0  0  0  0  0  0  0  0
    6.9192    9.1053   20.9073 O   0  0  0  0  0  0  0  0  0  0  0  0
   14.3979    6.0729   18.7784 C   0  0  0  0  0  0  0  0  0  0  0  0
    8.6811    9.5354   16.9998 C   0  0  0  0  0  0  0  0  0  0  0  0
    9.2512    4.2713   13.7653 O   0  0  0  0  0  0  0  0  0  0  0  0
    9.6495    8.6317   16.8332 N   0  0  0  0  0  0  0  0  0  0  0  0
    6.2934    8.6988   23.1988 O   0  0  0  0  0  0  0  0  0  0  0  0
    7.9806    8.6543   20.5437 C   0  0  0  0  0  0  0  0  0  0  0  0
   13.7270    5.7144   19.8610 O   0  0  0  0  0  0  0  0  0  0  0  0
    8.3351    5.5235   15.4478 C   0  0  0  0  0  0  0  0  0  0  0  0
    8.7700    7.8434   21.3915 C   0  0  0  0  0  0  0  0  0  0  0  0
   11.7856    6.8851   19.2401 C   0  0  0  0  0  0  0  0  0  0  0  0
   10.5281    7.4276   19.5649 C   0  0  0  0  0  0  0  0  0  0  0  0
   10.0256    7.2907   20.8484 C   0  0  0  0  0  0  0  0  0  0  0  0
    9.3113    5.3049   14.4911 C   0  0  0  0  0  0  0  0  0  0  0  0
    9.4607    7.5646   16.0139 C   0  0  0  0  0  0  0  0  0  0  0  0
   10.4192    7.3157   15.0955 C   0  0  0  0  0  0  0  0  0  0  0  0
   10.2489    6.4227   23.0218 N   0  0  0  0  0  0  0  0  0  0  0  0
    7.2472    8.0746   23.5050 C   0  0  0  0  0  0  0  0  0  0  0  0
    9.2051    6.9101   23.4604 C   0  0  0  0  0  0  0  0  0  0  0  0
   11.9646    6.0299   21.4251 C   0  0  0  0  0  0  0  0  0  0  0  0
  1  5  1  0
  1 13  1  0
  2 20  2  0
  2 28  1  0
  2 29  1  0
  3 19  4  0
  3 25  4  0
  4 23  4  0
  4 27  1  0
  4 30  4  0
  5 17  1  0
  6  8  1  0
  6 29  1  0
  7 24  4  0
  7 26  4  0
  8 28  1  0
  9 13  2  0
 10 18  1  0
 10 21  4  0
 10 30  4  0
 11 17  2  0
 12 18  1  0
 13 15  1  0
 14 24  1  0
 15 25  1  0
 16 28  2  0
 17 20  1  0
 19 24  4  0
 20 23  1  0
 21 22  4  0
 22 23  4  0
 25 26  4  0
 27 29  2  0
M  END
$$$$

 Created by Python create_sdf_string function

 30 33  0  0  0  0  0  0  0  0999 V2000
    8.3036    9.8571   18.4133 C   0  0  0  0  0  0  0  0  0  0  0  0
    8.3694    7.6612   22.6703 C   0  0  0  0  0  0  0  0  0  0  0  0
    8.4143    6.6863   16.2273 C   0  0  0  0  0  0  0  0  0  0  0  0
   10.7581    6.5674   21.7636 C   0  0  0  0  0  0  0  0  0  0  0  0
    8.4452    8.7960   19.2958 O   0  0  0  0  0  0  0  0  0  0  0  0
    8.7122    6.7842   24.8569 C   0  0  0  0  0  0  0  0  0  0  0  0
   10.3400    6.1726   14.3081 C   0  0  0  0  0  0  0  0  0  0  0  0
    7.4297    7.5873   24.8962 C   0  0  0  0  0  0  0  0  0  0  0  0
    8.1566   10.0536   16.0516 O   0  0  0  0  0  0  0  0  0  0  0  0
   12.4989    6.2074   20.1776 C   0  0  0  0  0  0  0  0  0  0  0  0
    6.9192    9.1053   20.9073 O   0  0  0  0  0  0  0  0  0  0  0  0
   14.3979    6.0729   18.7784 C   0  0  0  0  0  0  0  0  0  0  0  0
    8.6811    9.5354   16.9998 C   0  0  0  0  0  0  0  0  0  0  0  0
    9.2512    4.2713   13.7653 O   0  0  0  0  0  0  0  0  0  0  0  0
    9.6495    8.6317   16.8332 N   0  0  0  0  0  0  0  0  0  0  0  0
    6.2934    8.6988   23.1988 O   0  0  0  0  0  0  0  0  0  0  0  0
    7.9806    8.6543   20.5437 C   0  0  0  0  0  0  0  0  0  0  0  0
   13.7270    5.7144   19.8610 O   0  0  0  0  0  0  0  0  0  0  0  0
    8.3351    5.5235   15.4478 C   0  0  0  0  0  0  0  0  0  0  0  0
    8.7700    7.8434   21.3915 C   0  0  0  0  0  0  0  0  0  0  0  0
   11.7856    6.8851   19.2401 C   0  0  0  0  0  0  0  0  0  0  0  0
   10.5281    7.4276   19.5649 C   0  0  0  0  0  0  0  0  0  0  0  0
   10.0256    7.2907   20.8484 C   0  0  0  0  0  0  0  0  0  0  0  0
    9.3113    5.3049   14.4911 C   0  0  0  0  0  0  0  0  0  0  0  0
    9.4607    7.5646   16.0139 C   0  0  0  0  0  0  0  0  0  0  0  0
   10.4192    7.3157   15.0955 C   0  0  0  0  0  0  0  0  0  0  0  0
   10.2489    6.4227   23.0218 N   0  0  0  0  0  0  0  0  0  0  0  0
    7.2472    8.0746   23.5050 C   0  0  0  0  0  0  0  0  0  0  0  0
    9.2051    6.9101   23.4604 C   0  0  0  0  0  0  0  0  0  0  0  0
   11.9646    6.0299   21.4251 C   0  0  0  0  0  0  0  0  0  0  0  0
  1  5  1  0
  1 13  1  0
  2 20  2  0
  2 28  1  0
  2 29  1  0
  3 19  4  0
  3 25  4  0
  4 23  4  0
  4 27  1  0
  4 30  4  0
  5 17  1  0
  6  8  1  0
  6 29  1  0
  7 24  4  0
  7 26  4  0
  8 28  1  0
  9 13  2  0
 10 18  1  0
 10 21  4  0
 10 30  4  0
 11 17  2  0
 12 18  1  0
 13 15  1  0
 14 24  1  0
 15 25  1  0
 16 28  2  0
 17 20  1  0
 19 24  4  0
 20 23  1  0
 21 22  4  0
 22 23  4  0
 25 26  4  0
 27 29  2  0
M  END
$$$$

 Created by Python create_sdf_string function

 30 33  0  0  0  0  0  0  0  0999 V2000
    8.3036    9.8571   18.4133 C   0  0  0  0  0  0  0  0  0  0  0  0
    8.3694    7.6612   22.6703 C   0  0  0  0  0  0  0  0  0  0  0  0
    8.4143    6.6863   16.2273 C   0  0  0  0  0  0  0  0  0  0  0  0
   10.7581    6.5674   21.7636 C   0  0  0  0  0  0  0  0  0  0  0  0
    8.4452    8.7960   19.2958 O   0  0  0  0  0  0  0  0  0  0  0  0
    8.7122    6.7842   24.8569 C   0  0  0  0  0  0  0  0  0  0  0  0
   10.3400    6.1726   14.3081 C   0  0  0  0  0  0  0  0  0  0  0  0
    7.4297    7.5873   24.8962 C   0  0  0  0  0  0  0  0  0  0  0  0
    8.1566   10.0536   16.0516 O   0  0  0  0  0  0  0  0  0  0  0  0
   12.4989    6.2074   20.1776 C   0  0  0  0  0  0  0  0  0  0  0  0
    6.9192    9.1053   20.9073 O   0  0  0  0  0  0  0  0  0  0  0  0
   14.3979    6.0729   18.7784 C   0  0  0  0  0  0  0  0  0  0  0  0
    8.6811    9.5354   16.9998 C   0  0  0  0  0  0  0  0  0  0  0  0
    9.2512    4.2713   13.7653 O   0  0  0  0  0  0  0  0  0  0  0  0
    9.6495    8.6317   16.8332 N   0  0  0  0  0  0  0  0  0  0  0  0
    6.2934    8.6988   23.1988 O   0  0  0  0  0  0  0  0  0  0  0  0
    7.9806    8.6543   20.5437 C   0  0  0  0  0  0  0  0  0  0  0  0
   13.7270    5.7144   19.8610 O   0  0  0  0  0  0  0  0  0  0  0  0
    8.3351    5.5235   15.4478 C   0  0  0  0  0  0  0  0  0  0  0  0
    8.7700    7.8434   21.3915 C   0  0  0  0  0  0  0  0  0  0  0  0
   11.7856    6.8851   19.2401 C   0  0  0  0  0  0  0  0  0  0  0  0
   10.5281    7.4276   19.5649 C   0  0  0  0  0  0  0  0  0  0  0  0
   10.0256    7.2907   20.8484 C   0  0  0  0  0  0  0  0  0  0  0  0
    9.3113    5.3049   14.4911 C   0  0  0  0  0  0  0  0  0  0  0  0
    9.4607    7.5646   16.0139 C   0  0  0  0  0  0  0  0  0  0  0  0
   10.4192    7.3157   15.0955 C   0  0  0  0  0  0  0  0  0  0  0  0
   10.2489    6.4227   23.0218 N   0  0  0  0  0  0  0  0  0  0  0  0
    7.2472    8.0746   23.5050 C   0  0  0  0  0  0  0  0  0  0  0  0
    9.2051    6.9101   23.4604 C   0  0  0  0  0  0  0  0  0  0  0  0
   11.9646    6.0299   21.4251 C   0  0  0  0  0  0  0  0  0  0  0  0
  1  5  1  0
  1 13  1  0
  2 20  2  0
  2 28  1  0
  2 29  1  0
  3 19  4  0
  3 25  4  0
  4 23  4  0
  4 27  1  0
  4 30  4  0
  5 17  1  0
  6  8  1  0
  6 29  1  0
  7 24  4  0
  7 26  4  0
  8 28  1  0
  9 13  2  0
 10 18  1  0
 10 21  4  0
 10 30  4  0
 11 17  2  0
 12 18  1  0
 13 15  1  0
 14 24  1  0
 15 25  1  0
 16 28  2  0
 17 20  1  0
 19 24  4  0
 20 23  1  0
 21 22  4  0
 22 23  4  0
 25 26  4  0
 27 29  2  0
M  END
$$$$

 Created by Python create_sdf_string function

 30 33  0  0  0  0  0  0  0  0999 V2000
    8.3036    9.8571   18.4133 C   0  0  0  0  0  0  0  0  0  0  0  0
    8.3694    7.6612   22.6703 C   0  0  0  0  0  0  0  0  0  0  0  0
    8.4143    6.6863   16.2273 C   0  0  0  0  0  0  0  0  0  0  0  0
   10.7581    6.5674   21.7636 C   0  0  0  0  0  0  0  0  0  0  0  0
    8.4452    8.7960   19.2958 O   0  0  0  0  0  0  0  0  0  0  0  0
    8.7122    6.7842   24.8569 C   0  0  0  0  0  0  0  0  0  0  0  0
   10.3400    6.1726   14.3081 C   0  0  0  0  0  0  0  0  0  0  0  0
    7.4297    7.5873   24.8962 C   0  0  0  0  0  0  0  0  0  0  0  0
    8.1566   10.0536   16.0516 O   0  0  0  0  0  0  0  0  0  0  0  0
   12.4989    6.2074   20.1776 C   0  0  0  0  0  0  0  0  0  0  0  0
    6.9192    9.1053   20.9073 O   0  0  0  0  0  0  0  0  0  0  0  0
   14.3979    6.0729   18.7784 C   0  0  0  0  0  0  0  0  0  0  0  0
    8.6811    9.5354   16.9998 C   0  0  0  0  0  0  0  0  0  0  0  0
    9.2512    4.2713   13.7653 O   0  0  0  0  0  0  0  0  0  0  0  0
    9.6495    8.6317   16.8332 N   0  0  0  0  0  0  0  0  0  0  0  0
    6.2934    8.6988   23.1988 O   0  0  0  0  0  0  0  0  0  0  0  0
    7.9806    8.6543   20.5437 C   0  0  0  0  0  0  0  0  0  0  0  0
   13.7270    5.7144   19.8610 O   0  0  0  0  0  0  0  0  0  0  0  0
    8.3351    5.5235   15.4478 C   0  0  0  0  0  0  0  0  0  0  0  0
    8.7700    7.8434   21.3915 C   0  0  0  0  0  0  0  0  0  0  0  0
   11.7856    6.8851   19.2401 C   0  0  0  0  0  0  0  0  0  0  0  0
   10.5281    7.4276   19.5649 C   0  0  0  0  0  0  0  0  0  0  0  0
   10.0256    7.2907   20.8484 C   0  0  0  0  0  0  0  0  0  0  0  0
    9.3113    5.3049   14.4911 C   0  0  0  0  0  0  0  0  0  0  0  0
    9.4607    7.5646   16.0139 C   0  0  0  0  0  0  0  0  0  0  0  0
   10.4192    7.3157   15.0955 C   0  0  0  0  0  0  0  0  0  0  0  0
   10.2489    6.4227   23.0218 N   0  0  0  0  0  0  0  0  0  0  0  0
    7.2472    8.0746   23.5050 C   0  0  0  0  0  0  0  0  0  0  0  0
    9.2051    6.9101   23.4604 C   0  0  0  0  0  0  0  0  0  0  0  0
   11.9646    6.0299   21.4251 C   0  0  0  0  0  0  0  0  0  0  0  0
  1  5  1  0
  1 13  1  0
  2 20  2  0
  2 28  1  0
  2 29  1  0
  3 19  4  0
  3 25  4  0
  4 23  4  0
  4 27  1  0
  4 30  4  0
  5 17  1  0
  6  8  1  0
  6 29  1  0
  7 24  4  0
  7 26  4  0
  8 28  1  0
  9 13  2  0
 10 18  1  0
 10 21  4  0
 10 30  4  0
 11 17  2  0
 12 18  1  0
 13 15  1  0
 14 24  1  0
 15 25  1  0
 16 28  2  0
 17 20  1  0
 19 24  4  0
 20 23  1  0
 21 22  4  0
 22 23  4  0
 25 26  4  0
 27 29  2  0
M  END
$$$$

 Created by Python create_sdf_string function

 30 33  0  0  0  0  0  0  0  0999 V2000
    8.3036    9.8571   18.4133 C   0  0  0  0  0  0  0  0  0  0  0  0
    8.3694    7.6612   22.6703 C   0  0  0  0  0  0  0  0  0  0  0  0
    8.4143    6.6863   16.2273 C   0  0  0  0  0  0  0  0  0  0  0  0
   10.7581    6.5674   21.7636 C   0  0  0  0  0  0  0  0  0  0  0  0
    8.4452    8.7960   19.2958 O   0  0  0  0  0  0  0  0  0  0  0  0
    8.7122    6.7842   24.8569 C   0  0  0  0  0  0  0  0  0  0  0  0
   10.3400    6.1726   14.3081 C   0  0  0  0  0  0  0  0  0  0  0  0
    7.4297    7.5873   24.8962 C   0  0  0  0  0  0  0  0  0  0  0  0
    8.1566   10.0536   16.0516 O   0  0  0  0  0  0  0  0  0  0  0  0
   12.4989    6.2074   20.1776 C   0  0  0  0  0  0  0  0  0  0  0  0
    6.9192    9.1053   20.9073 O   0  0  0  0  0  0  0  0  0  0  0  0
   14.3979    6.0729   18.7784 C   0  0  0  0  0  0  0  0  0  0  0  0
    8.6811    9.5354   16.9998 C   0  0  0  0  0  0  0  0  0  0  0  0
    9.2512    4.2713   13.7653 O   0  0  0  0  0  0  0  0  0  0  0  0
    9.6495    8.6317   16.8332 N   0  0  0  0  0  0  0  0  0  0  0  0
    6.2934    8.6988   23.1988 O   0  0  0  0  0  0  0  0  0  0  0  0
    7.9806    8.6543   20.5437 C   0  0  0  0  0  0  0  0  0  0  0  0
   13.7270    5.7144   19.8610 O   0  0  0  0  0  0  0  0  0  0  0  0
    8.3351    5.5235   15.4478 C   0  0  0  0  0  0  0  0  0  0  0  0
    8.7700    7.8434   21.3915 C   0  0  0  0  0  0  0  0  0  0  0  0
   11.7856    6.8851   19.2401 C   0  0  0  0  0  0  0  0  0  0  0  0
   10.5281    7.4276   19.5649 C   0  0  0  0  0  0  0  0  0  0  0  0
   10.0256    7.2907   20.8484 C   0  0  0  0  0  0  0  0  0  0  0  0
    9.3113    5.3049   14.4911 C   0  0  0  0  0  0  0  0  0  0  0  0
    9.4607    7.5646   16.0139 C   0  0  0  0  0  0  0  0  0  0  0  0
   10.4192    7.3157   15.0955 C   0  0  0  0  0  0  0  0  0  0  0  0
   10.2489    6.4227   23.0218 N   0  0  0  0  0  0  0  0  0  0  0  0
    7.2472    8.0746   23.5050 C   0  0  0  0  0  0  0  0  0  0  0  0
    9.2051    6.9101   23.4604 C   0  0  0  0  0  0  0  0  0  0  0  0
   11.9646    6.0299   21.4251 C   0  0  0  0  0  0  0  0  0  0  0  0
  1  5  1  0
  1 13  1  0
  2 20  2  0
  2 28  1  0
  2 29  1  0
  3 19  4  0
  3 25  4  0
  4 23  4  0
  4 27  1  0
  4 30  4  0
  5 17  1  0
  6  8  1  0
  6 29  1  0
  7 24  4  0
  7 26  4  0
  8 28  1  0
  9 13  2  0
 10 18  1  0
 10 21  4  0
 10 30  4  0
 11 17  2  0
 12 18  1  0
 13 15  1  0
 14 24  1  0
 15 25  1  0
 16 28  2  0
 17 20  1  0
 19 24  4  0
 20 23  1  0
 21 22  4  0
 22 23  4  0
 25 26  4  0
 27 29  2  0
M  END
$$$$

 Created by Python create_sdf_string function

 30 33  0  0  0  0  0  0  0  0999 V2000
    8.3036    9.8571   18.4133 C   0  0  0  0  0  0  0  0  0  0  0  0
    8.3694    7.6612   22.6703 C   0  0  0  0  0  0  0  0  0  0  0  0
    8.4143    6.6863   16.2273 C   0  0  0  0  0  0  0  0  0  0  0  0
   10.7581    6.5674   21.7636 C   0  0  0  0  0  0  0  0  0  0  0  0
    8.4452    8.7960   19.2958 O   0  0  0  0  0  0  0  0  0  0  0  0
    8.7122    6.7842   24.8569 C   0  0  0  0  0  0  0  0  0  0  0  0
   10.3400    6.1726   14.3081 C   0  0  0  0  0  0  0  0  0  0  0  0
    7.4297    7.5873   24.8962 C   0  0  0  0  0  0  0  0  0  0  0  0
    8.1566   10.0536   16.0516 O   0  0  0  0  0  0  0  0  0  0  0  0
   12.4989    6.2074   20.1776 C   0  0  0  0  0  0  0  0  0  0  0  0
    6.9192    9.1053   20.9073 O   0  0  0  0  0  0  0  0  0  0  0  0
   14.3979    6.0729   18.7784 C   0  0  0  0  0  0  0  0  0  0  0  0
    8.6811    9.5354   16.9998 C   0  0  0  0  0  0  0  0  0  0  0  0
    9.2512    4.2713   13.7653 O   0  0  0  0  0  0  0  0  0  0  0  0
    9.6495    8.6317   16.8332 N   0  0  0  0  0  0  0  0  0  0  0  0
    6.2934    8.6988   23.1988 O   0  0  0  0  0  0  0  0  0  0  0  0
    7.9806    8.6543   20.5437 C   0  0  0  0  0  0  0  0  0  0  0  0
   13.7270    5.7144   19.8610 O   0  0  0  0  0  0  0  0  0  0  0  0
    8.3351    5.5235   15.4478 C   0  0  0  0  0  0  0  0  0  0  0  0
    8.7700    7.8434   21.3915 C   0  0  0  0  0  0  0  0  0  0  0  0
   11.7856    6.8851   19.2401 C   0  0  0  0  0  0  0  0  0  0  0  0
   10.5281    7.4276   19.5649 C   0  0  0  0  0  0  0  0  0  0  0  0
   10.0256    7.2907   20.8484 C   0  0  0  0  0  0  0  0  0  0  0  0
    9.3113    5.3049   14.4911 C   0  0  0  0  0  0  0  0  0  0  0  0
    9.4607    7.5646   16.0139 C   0  0  0  0  0  0  0  0  0  0  0  0
   10.4192    7.3157   15.0955 C   0  0  0  0  0  0  0  0  0  0  0  0
   10.2489    6.4227   23.0218 N   0  0  0  0  0  0  0  0  0  0  0  0
    7.2472    8.0746   23.5050 C   0  0  0  0  0  0  0  0  0  0  0  0
    9.2051    6.9101   23.4604 C   0  0  0  0  0  0  0  0  0  0  0  0
   11.9646    6.0299   21.4251 C   0  0  0  0  0  0  0  0  0  0  0  0
  1  5  1  0
  1 13  1  0
  2 20  2  0
  2 28  1  0
  2 29  1  0
  3 19  4  0
  3 25  4  0
  4 23  4  0
  4 27  1  0
  4 30  4  0
  5 17  1  0
  6  8  1  0
  6 29  1  0
  7 24  4  0
  7 26  4  0
  8 28  1  0
  9 13  2  0
 10 18  1  0
 10 21  4  0
 10 30  4  0
 11 17  2  0
 12 18  1  0
 13 15  1  0
 14 24  1  0
 15 25  1  0
 16 28  2  0
 17 20  1  0
 19 24  4  0
 20 23  1  0
 21 22  4  0
 22 23  4  0
 25 26  4  0
 27 29  2  0
M  END
$$$$

 Created by Python create_sdf_string function

 30 33  0  0  0  0  0  0  0  0999 V2000
    8.3036    9.8571   18.4133 C   0  0  0  0  0  0  0  0  0  0  0  0
    8.3694    7.6612   22.6703 C   0  0  0  0  0  0  0  0  0  0  0  0
    8.4143    6.6863   16.2273 C   0  0  0  0  0  0  0  0  0  0  0  0
   10.7581    6.5674   21.7636 C   0  0  0  0  0  0  0  0  0  0  0  0
    8.4452    8.7960   19.2958 O   0  0  0  0  0  0  0  0  0  0  0  0
    8.7122    6.7842   24.8569 C   0  0  0  0  0  0  0  0  0  0  0  0
   10.3400    6.1726   14.3081 C   0  0  0  0  0  0  0  0  0  0  0  0
    7.4297    7.5873   24.8962 C   0  0  0  0  0  0  0  0  0  0  0  0
    8.1566   10.0536   16.0516 O   0  0  0  0  0  0  0  0  0  0  0  0
   12.4989    6.2074   20.1776 C   0  0  0  0  0  0  0  0  0  0  0  0
    6.9192    9.1053   20.9073 O   0  0  0  0  0  0  0  0  0  0  0  0
   14.3979    6.0729   18.7784 C   0  0  0  0  0  0  0  0  0  0  0  0
    8.6811    9.5354   16.9998 C   0  0  0  0  0  0  0  0  0  0  0  0
    9.2512    4.2713   13.7653 O   0  0  0  0  0  0  0  0  0  0  0  0
    9.6495    8.6317   16.8332 N   0  0  0  0  0  0  0  0  0  0  0  0
    6.2934    8.6988   23.1988 O   0  0  0  0  0  0  0  0  0  0  0  0
    7.9806    8.6543   20.5437 C   0  0  0  0  0  0  0  0  0  0  0  0
   13.7270    5.7144   19.8610 O   0  0  0  0  0  0  0  0  0  0  0  0
    8.3351    5.5235   15.4478 C   0  0  0  0  0  0  0  0  0  0  0  0
    8.7700    7.8434   21.3915 C   0  0  0  0  0  0  0  0  0  0  0  0
   11.7856    6.8851   19.2401 C   0  0  0  0  0  0  0  0  0  0  0  0
   10.5281    7.4276   19.5649 C   0  0  0  0  0  0  0  0  0  0  0  0
   10.0256    7.2907   20.8484 C   0  0  0  0  0  0  0  0  0  0  0  0
    9.3113    5.3049   14.4911 C   0  0  0  0  0  0  0  0  0  0  0  0
    9.4607    7.5646   16.0139 C   0  0  0  0  0  0  0  0  0  0  0  0
   10.4192    7.3157   15.0955 C   0  0  0  0  0  0  0  0  0  0  0  0
   10.2489    6.4227   23.0218 N   0  0  0  0  0  0  0  0  0  0  0  0
    7.2472    8.0746   23.5050 C   0  0  0  0  0  0  0  0  0  0  0  0
    9.2051    6.9101   23.4604 C   0  0  0  0  0  0  0  0  0  0  0  0
   11.9646    6.0299   21.4251 C   0  0  0  0  0  0  0  0  0  0  0  0
  1  5  1  0
  1 13  1  0
  2 20  2  0
  2 28  1  0
  2 29  1  0
  3 19  4  0
  3 25  4  0
  4 23  4  0
  4 27  1  0
  4 30  4  0
  5 17  1  0
  6  8  1  0
  6 29  1  0
  7 24  4  0
  7 26  4  0
  8 28  1  0
  9 13  2  0
 10 18  1  0
 10 21  4  0
 10 30  4  0
 11 17  2  0
 12 18  1  0
 13 15  1  0
 14 24  1  0
 15 25  1  0
 16 28  2  0
 17 20  1  0
 19 24  4  0
 20 23  1  0
 21 22  4  0
 22 23  4  0
 25 26  4  0
 27 29  2  0
M  END
$$$$

 Created by Python create_sdf_string function

 30 33  0  0  0  0  0  0  0  0999 V2000
    8.3036    9.8571   18.4133 C   0  0  0  0  0  0  0  0  0  0  0  0
    8.3694    7.6612   22.6703 C   0  0  0  0  0  0  0  0  0  0  0  0
    8.4143    6.6863   16.2273 C   0  0  0  0  0  0  0  0  0  0  0  0
   10.7581    6.5674   21.7636 C   0  0  0  0  0  0  0  0  0  0  0  0
    8.4452    8.7960   19.2958 O   0  0  0  0  0  0  0  0  0  0  0  0
    8.7122    6.7842   24.8569 C   0  0  0  0  0  0  0  0  0  0  0  0
   10.3400    6.1726   14.3081 C   0  0  0  0  0  0  0  0  0  0  0  0
    7.4297    7.5873   24.8962 C   0  0  0  0  0  0  0  0  0  0  0  0
    8.1566   10.0536   16.0516 O   0  0  0  0  0  0  0  0  0  0  0  0
   12.4989    6.2074   20.1776 C   0  0  0  0  0  0  0  0  0  0  0  0
    6.9192    9.1053   20.9073 O   0  0  0  0  0  0  0  0  0  0  0  0
   14.3979    6.0729   18.7784 C   0  0  0  0  0  0  0  0  0  0  0  0
    8.6811    9.5354   16.9998 C   0  0  0  0  0  0  0  0  0  0  0  0
    9.2512    4.2713   13.7653 O   0  0  0  0  0  0  0  0  0  0  0  0
    9.6495    8.6317   16.8332 N   0  0  0  0  0  0  0  0  0  0  0  0
    6.2934    8.6988   23.1988 O   0  0  0  0  0  0  0  0  0  0  0  0
    7.9806    8.6543   20.5437 C   0  0  0  0  0  0  0  0  0  0  0  0
   13.7270    5.7144   19.8610 O   0  0  0  0  0  0  0  0  0  0  0  0
    8.3351    5.5235   15.4478 C   0  0  0  0  0  0  0  0  0  0  0  0
    8.7700    7.8434   21.3915 C   0  0  0  0  0  0  0  0  0  0  0  0
   11.7856    6.8851   19.2401 C   0  0  0  0  0  0  0  0  0  0  0  0
   10.5281    7.4276   19.5649 C   0  0  0  0  0  0  0  0  0  0  0  0
   10.0256    7.2907   20.8484 C   0  0  0  0  0  0  0  0  0  0  0  0
    9.3113    5.3049   14.4911 C   0  0  0  0  0  0  0  0  0  0  0  0
    9.4607    7.5646   16.0139 C   0  0  0  0  0  0  0  0  0  0  0  0
   10.4192    7.3157   15.0955 C   0  0  0  0  0  0  0  0  0  0  0  0
   10.2489    6.4227   23.0218 N   0  0  0  0  0  0  0  0  0  0  0  0
    7.2472    8.0746   23.5050 C   0  0  0  0  0  0  0  0  0  0  0  0
    9.2051    6.9101   23.4604 C   0  0  0  0  0  0  0  0  0  0  0  0
   11.9646    6.0299   21.4251 C   0  0  0  0  0  0  0  0  0  0  0  0
  1  5  1  0
  1 13  1  0
  2 20  2  0
  2 28  1  0
  2 29  1  0
  3 19  4  0
  3 25  4  0
  4 23  4  0
  4 27  1  0
  4 30  4  0
  5 17  1  0
  6  8  1  0
  6 29  1  0
  7 24  4  0
  7 26  4  0
  8 28  1  0
  9 13  2  0
 10 18  1  0
 10 21  4  0
 10 30  4  0
 11 17  2  0
 12 18  1  0
 13 15  1  0
 14 24  1  0
 15 25  1  0
 16 28  2  0
 17 20  1  0
 19 24  4  0
 20 23  1  0
 21 22  4  0
 22 23  4  0
 25 26  4  0
 27 29  2  0
M  END
$$$$

 Created by Python create_sdf_string function

 30 33  0  0  0  0  0  0  0  0999 V2000
    8.3036    9.8571   18.4133 C   0  0  0  0  0  0  0  0  0  0  0  0
    8.3694    7.6612   22.6703 C   0  0  0  0  0  0  0  0  0  0  0  0
    8.4143    6.6863   16.2273 C   0  0  0  0  0  0  0  0  0  0  0  0
   10.7581    6.5674   21.7636 C   0  0  0  0  0  0  0  0  0  0  0  0
    8.4452    8.7960   19.2958 O   0  0  0  0  0  0  0  0  0  0  0  0
    8.7122    6.7842   24.8569 C   0  0  0  0  0  0  0  0  0  0  0  0
   10.3400    6.1726   14.3081 C   0  0  0  0  0  0  0  0  0  0  0  0
    7.4297    7.5873   24.8962 C   0  0  0  0  0  0  0  0  0  0  0  0
    8.1566   10.0536   16.0516 O   0  0  0  0  0  0  0  0  0  0  0  0
   12.4989    6.2074   20.1776 C   0  0  0  0  0  0  0  0  0  0  0  0
    6.9192    9.1053   20.9073 O   0  0  0  0  0  0  0  0  0  0  0  0
   14.3979    6.0729   18.7784 C   0  0  0  0  0  0  0  0  0  0  0  0
    8.6811    9.5354   16.9998 C   0  0  0  0  0  0  0  0  0  0  0  0
    9.2512    4.2713   13.7653 O   0  0  0  0  0  0  0  0  0  0  0  0
    9.6495    8.6317   16.8332 N   0  0  0  0  0  0  0  0  0  0  0  0
    6.2934    8.6988   23.1988 O   0  0  0  0  0  0  0  0  0  0  0  0
    7.9806    8.6543   20.5437 C   0  0  0  0  0  0  0  0  0  0  0  0
   13.7270    5.7144   19.8610 O   0  0  0  0  0  0  0  0  0  0  0  0
    8.3351    5.5235   15.4478 C   0  0  0  0  0  0  0  0  0  0  0  0
    8.7700    7.8434   21.3915 C   0  0  0  0  0  0  0  0  0  0  0  0
   11.7856    6.8851   19.2401 C   0  0  0  0  0  0  0  0  0  0  0  0
   10.5281    7.4276   19.5649 C   0  0  0  0  0  0  0  0  0  0  0  0
   10.0256    7.2907   20.8484 C   0  0  0  0  0  0  0  0  0  0  0  0
    9.3113    5.3049   14.4911 C   0  0  0  0  0  0  0  0  0  0  0  0
    9.4607    7.5646   16.0139 C   0  0  0  0  0  0  0  0  0  0  0  0
   10.4192    7.3157   15.0955 C   0  0  0  0  0  0  0  0  0  0  0  0
   10.2489    6.4227   23.0218 N   0  0  0  0  0  0  0  0  0  0  0  0
    7.2472    8.0746   23.5050 C   0  0  0  0  0  0  0  0  0  0  0  0
    9.2051    6.9101   23.4604 C   0  0  0  0  0  0  0  0  0  0  0  0
   11.9646    6.0299   21.4251 C   0  0  0  0  0  0  0  0  0  0  0  0
  1  5  1  0
  1 13  1  0
  2 20  2  0
  2 28  1  0
  2 29  1  0
  3 19  4  0
  3 25  4  0
  4 23  4  0
  4 27  1  0
  4 30  4  0
  5 17  1  0
  6  8  1  0
  6 29  1  0
  7 24  4  0
  7 26  4  0
  8 28  1  0
  9 13  2  0
 10 18  1  0
 10 21  4  0
 10 30  4  0
 11 17  2  0
 12 18  1  0
 13 15  1  0
 14 24  1  0
 15 25  1  0
 16 28  2  0
 17 20  1  0
 19 24  4  0
 20 23  1  0
 21 22  4  0
 22 23  4  0
 25 26  4  0
 27 29  2  0
M  END
$$$$

 Created by Python create_sdf_string function

 30 33  0  0  0  0  0  0  0  0999 V2000
    8.3036    9.8571   18.4133 C   0  0  0  0  0  0  0  0  0  0  0  0
    8.3694    7.6612   22.6703 C   0  0  0  0  0  0  0  0  0  0  0  0
    8.4143    6.6863   16.2273 C   0  0  0  0  0  0  0  0  0  0  0  0
   10.7581    6.5674   21.7636 C   0  0  0  0  0  0  0  0  0  0  0  0
    8.4452    8.7960   19.2958 O   0  0  0  0  0  0  0  0  0  0  0  0
    8.7122    6.7842   24.8569 C   0  0  0  0  0  0  0  0  0  0  0  0
   10.3400    6.1726   14.3081 C   0  0  0  0  0  0  0  0  0  0  0  0
    7.4297    7.5873   24.8962 C   0  0  0  0  0  0  0  0  0  0  0  0
    8.1566   10.0536   16.0516 O   0  0  0  0  0  0  0  0  0  0  0  0
   12.4989    6.2074   20.1776 C   0  0  0  0  0  0  0  0  0  0  0  0
    6.9192    9.1053   20.9073 O   0  0  0  0  0  0  0  0  0  0  0  0
   14.3979    6.0729   18.7784 C   0  0  0  0  0  0  0  0  0  0  0  0
    8.6811    9.5354   16.9998 C   0  0  0  0  0  0  0  0  0  0  0  0
    9.2512    4.2713   13.7653 O   0  0  0  0  0  0  0  0  0  0  0  0
    9.6495    8.6317   16.8332 N   0  0  0  0  0  0  0  0  0  0  0  0
    6.2934    8.6988   23.1988 O   0  0  0  0  0  0  0  0  0  0  0  0
    7.9806    8.6543   20.5437 C   0  0  0  0  0  0  0  0  0  0  0  0
   13.7270    5.7144   19.8610 O   0  0  0  0  0  0  0  0  0  0  0  0
    8.3351    5.5235   15.4478 C   0  0  0  0  0  0  0  0  0  0  0  0
    8.7700    7.8434   21.3915 C   0  0  0  0  0  0  0  0  0  0  0  0
   11.7856    6.8851   19.2401 C   0  0  0  0  0  0  0  0  0  0  0  0
   10.5281    7.4276   19.5649 C   0  0  0  0  0  0  0  0  0  0  0  0
   10.0256    7.2907   20.8484 C   0  0  0  0  0  0  0  0  0  0  0  0
    9.3113    5.3049   14.4911 C   0  0  0  0  0  0  0  0  0  0  0  0
    9.4607    7.5646   16.0139 C   0  0  0  0  0  0  0  0  0  0  0  0
   10.4192    7.3157   15.0955 C   0  0  0  0  0  0  0  0  0  0  0  0
   10.2489    6.4227   23.0218 N   0  0  0  0  0  0  0  0  0  0  0  0
    7.2472    8.0746   23.5050 C   0  0  0  0  0  0  0  0  0  0  0  0
    9.2051    6.9101   23.4604 C   0  0  0  0  0  0  0  0  0  0  0  0
   11.9646    6.0299   21.4251 C   0  0  0  0  0  0  0  0  0  0  0  0
  1  5  1  0
  1 13  1  0
  2 20  2  0
  2 28  1  0
  2 29  1  0
  3 19  4  0
  3 25  4  0
  4 23  4  0
  4 27  1  0
  4 30  4  0
  5 17  1  0
  6  8  1  0
  6 29  1  0
  7 24  4  0
  7 26  4  0
  8 28  1  0
  9 13  2  0
 10 18  1  0
 10 21  4  0
 10 30  4  0
 11 17  2  0
 12 18  1  0
 13 15  1  0
 14 24  1  0
 15 25  1  0
 16 28  2  0
 17 20  1  0
 19 24  4  0
 20 23  1  0
 21 22  4  0
 22 23  4  0
 25 26  4  0
 27 29  2  0
M  END
$$$$

 Created by Python create_sdf_string function

 30 33  0  0  0  0  0  0  0  0999 V2000
    8.3036    9.8571   18.4133 C   0  0  0  0  0  0  0  0  0  0  0  0
    8.3694    7.6612   22.6703 C   0  0  0  0  0  0  0  0  0  0  0  0
    8.4143    6.6863   16.2273 C   0  0  0  0  0  0  0  0  0  0  0  0
   10.7581    6.5674   21.7636 C   0  0  0  0  0  0  0  0  0  0  0  0
    8.4452    8.7960   19.2958 O   0  0  0  0  0  0  0  0  0  0  0  0
    8.7122    6.7842   24.8569 C   0  0  0  0  0  0  0  0  0  0  0  0
   10.3400    6.1726   14.3081 C   0  0  0  0  0  0  0  0  0  0  0  0
    7.4297    7.5873   24.8962 C   0  0  0  0  0  0  0  0  0  0  0  0
    8.1566   10.0536   16.0516 O   0  0  0  0  0  0  0  0  0  0  0  0
   12.4989    6.2074   20.1776 C   0  0  0  0  0  0  0  0  0  0  0  0
    6.9192    9.1053   20.9073 O   0  0  0  0  0  0  0  0  0  0  0  0
   14.3979    6.0729   18.7784 C   0  0  0  0  0  0  0  0  0  0  0  0
    8.6811    9.5354   16.9998 C   0  0  0  0  0  0  0  0  0  0  0  0
    9.2512    4.2713   13.7653 O   0  0  0  0  0  0  0  0  0  0  0  0
    9.6495    8.6317   16.8332 N   0  0  0  0  0  0  0  0  0  0  0  0
    6.2934    8.6988   23.1988 O   0  0  0  0  0  0  0  0  0  0  0  0
    7.9806    8.6543   20.5437 C   0  0  0  0  0  0  0  0  0  0  0  0
   13.7270    5.7144   19.8610 O   0  0  0  0  0  0  0  0  0  0  0  0
    8.3351    5.5235   15.4478 C   0  0  0  0  0  0  0  0  0  0  0  0
    8.7700    7.8434   21.3915 C   0  0  0  0  0  0  0  0  0  0  0  0
   11.7856    6.8851   19.2401 C   0  0  0  0  0  0  0  0  0  0  0  0
   10.5281    7.4276   19.5649 C   0  0  0  0  0  0  0  0  0  0  0  0
   10.0256    7.2907   20.8484 C   0  0  0  0  0  0  0  0  0  0  0  0
    9.3113    5.3049   14.4911 C   0  0  0  0  0  0  0  0  0  0  0  0
    9.4607    7.5646   16.0139 C   0  0  0  0  0  0  0  0  0  0  0  0
   10.4192    7.3157   15.0955 C   0  0  0  0  0  0  0  0  0  0  0  0
   10.2489    6.4227   23.0218 N   0  0  0  0  0  0  0  0  0  0  0  0
    7.2472    8.0746   23.5050 C   0  0  0  0  0  0  0  0  0  0  0  0
    9.2051    6.9101   23.4604 C   0  0  0  0  0  0  0  0  0  0  0  0
   11.9646    6.0299   21.4251 C   0  0  0  0  0  0  0  0  0  0  0  0
  1  5  1  0
  1 13  1  0
  2 20  2  0
  2 28  1  0
  2 29  1  0
  3 19  4  0
  3 25  4  0
  4 23  4  0
  4 27  1  0
  4 30  4  0
  5 17  1  0
  6  8  1  0
  6 29  1  0
  7 24  4  0
  7 26  4  0
  8 28  1  0
  9 13  2  0
 10 18  1  0
 10 21  4  0
 10 30  4  0
 11 17  2  0
 12 18  1  0
 13 15  1  0
 14 24  1  0
 15 25  1  0
 16 28  2  0
 17 20  1  0
 19 24  4  0
 20 23  1  0
 21 22  4  0
 22 23  4  0
 25 26  4  0
 27 29  2  0
M  END
$$$$

 Created by Python create_sdf_string function

 30 33  0  0  0  0  0  0  0  0999 V2000
    8.3036    9.8571   18.4133 C   0  0  0  0  0  0  0  0  0  0  0  0
    8.3694    7.6612   22.6703 C   0  0  0  0  0  0  0  0  0  0  0  0
    8.4143    6.6863   16.2273 C   0  0  0  0  0  0  0  0  0  0  0  0
   10.7581    6.5674   21.7636 C   0  0  0  0  0  0  0  0  0  0  0  0
    8.4452    8.7960   19.2958 O   0  0  0  0  0  0  0  0  0  0  0  0
    8.7122    6.7842   24.8569 C   0  0  0  0  0  0  0  0  0  0  0  0
   10.3400    6.1726   14.3081 C   0  0  0  0  0  0  0  0  0  0  0  0
    7.4297    7.5873   24.8962 C   0  0  0  0  0  0  0  0  0  0  0  0
    8.1566   10.0536   16.0516 O   0  0  0  0  0  0  0  0  0  0  0  0
   12.4989    6.2074   20.1776 C   0  0  0  0  0  0  0  0  0  0  0  0
    6.9192    9.1053   20.9073 O   0  0  0  0  0  0  0  0  0  0  0  0
   14.3979    6.0729   18.7784 C   0  0  0  0  0  0  0  0  0  0  0  0
    8.6811    9.5354   16.9998 C   0  0  0  0  0  0  0  0  0  0  0  0
    9.2512    4.2713   13.7653 O   0  0  0  0  0  0  0  0  0  0  0  0
    9.6495    8.6317   16.8332 N   0  0  0  0  0  0  0  0  0  0  0  0
    6.2934    8.6988   23.1988 O   0  0  0  0  0  0  0  0  0  0  0  0
    7.9806    8.6543   20.5437 C   0  0  0  0  0  0  0  0  0  0  0  0
   13.7270    5.7144   19.8610 O   0  0  0  0  0  0  0  0  0  0  0  0
    8.3351    5.5235   15.4478 C   0  0  0  0  0  0  0  0  0  0  0  0
    8.7700    7.8434   21.3915 C   0  0  0  0  0  0  0  0  0  0  0  0
   11.7856    6.8851   19.2401 C   0  0  0  0  0  0  0  0  0  0  0  0
   10.5281    7.4276   19.5649 C   0  0  0  0  0  0  0  0  0  0  0  0
   10.0256    7.2907   20.8484 C   0  0  0  0  0  0  0  0  0  0  0  0
    9.3113    5.3049   14.4911 C   0  0  0  0  0  0  0  0  0  0  0  0
    9.4607    7.5646   16.0139 C   0  0  0  0  0  0  0  0  0  0  0  0
   10.4192    7.3157   15.0955 C   0  0  0  0  0  0  0  0  0  0  0  0
   10.2489    6.4227   23.0218 N   0  0  0  0  0  0  0  0  0  0  0  0
    7.2472    8.0746   23.5050 C   0  0  0  0  0  0  0  0  0  0  0  0
    9.2051    6.9101   23.4604 C   0  0  0  0  0  0  0  0  0  0  0  0
   11.9646    6.0299   21.4251 C   0  0  0  0  0  0  0  0  0  0  0  0
  1  5  1  0
  1 13  1  0
  2 20  2  0
  2 28  1  0
  2 29  1  0
  3 19  4  0
  3 25  4  0
  4 23  4  0
  4 27  1  0
  4 30  4  0
  5 17  1  0
  6  8  1  0
  6 29  1  0
  7 24  4  0
  7 26  4  0
  8 28  1  0
  9 13  2  0
 10 18  1  0
 10 21  4  0
 10 30  4  0
 11 17  2  0
 12 18  1  0
 13 15  1  0
 14 24  1  0
 15 25  1  0
 16 28  2  0
 17 20  1  0
 19 24  4  0
 20 23  1  0
 21 22  4  0
 22 23  4  0
 25 26  4  0
 27 29  2  0
M  END
$$$$

 Created by Python create_sdf_string function

 30 33  0  0  0  0  0  0  0  0999 V2000
    8.3036    9.8571   18.4133 C   0  0  0  0  0  0  0  0  0  0  0  0
    8.3694    7.6612   22.6703 C   0  0  0  0  0  0  0  0  0  0  0  0
    8.4143    6.6863   16.2273 C   0  0  0  0  0  0  0  0  0  0  0  0
   10.7581    6.5674   21.7636 C   0  0  0  0  0  0  0  0  0  0  0  0
    8.4452    8.7960   19.2958 O   0  0  0  0  0  0  0  0  0  0  0  0
    8.7122    6.7842   24.8569 C   0  0  0  0  0  0  0  0  0  0  0  0
   10.3400    6.1726   14.3081 C   0  0  0  0  0  0  0  0  0  0  0  0
    7.4297    7.5873   24.8962 C   0  0  0  0  0  0  0  0  0  0  0  0
    8.1566   10.0536   16.0516 O   0  0  0  0  0  0  0  0  0  0  0  0
   12.4989    6.2074   20.1776 C   0  0  0  0  0  0  0  0  0  0  0  0
    6.9192    9.1053   20.9073 O   0  0  0  0  0  0  0  0  0  0  0  0
   14.3979    6.0729   18.7784 C   0  0  0  0  0  0  0  0  0  0  0  0
    8.6811    9.5354   16.9998 C   0  0  0  0  0  0  0  0  0  0  0  0
    9.2512    4.2713   13.7653 O   0  0  0  0  0  0  0  0  0  0  0  0
    9.6495    8.6317   16.8332 N   0  0  0  0  0  0  0  0  0  0  0  0
    6.2934    8.6988   23.1988 O   0  0  0  0  0  0  0  0  0  0  0  0
    7.9806    8.6543   20.5437 C   0  0  0  0  0  0  0  0  0  0  0  0
   13.7270    5.7144   19.8610 O   0  0  0  0  0  0  0  0  0  0  0  0
    8.3351    5.5235   15.4478 C   0  0  0  0  0  0  0  0  0  0  0  0
    8.7700    7.8434   21.3915 C   0  0  0  0  0  0  0  0  0  0  0  0
   11.7856    6.8851   19.2401 C   0  0  0  0  0  0  0  0  0  0  0  0
   10.5281    7.4276   19.5649 C   0  0  0  0  0  0  0  0  0  0  0  0
   10.0256    7.2907   20.8484 C   0  0  0  0  0  0  0  0  0  0  0  0
    9.3113    5.3049   14.4911 C   0  0  0  0  0  0  0  0  0  0  0  0
    9.4607    7.5646   16.0139 C   0  0  0  0  0  0  0  0  0  0  0  0
   10.4192    7.3157   15.0955 C   0  0  0  0  0  0  0  0  0  0  0  0
   10.2489    6.4227   23.0218 N   0  0  0  0  0  0  0  0  0  0  0  0
    7.2472    8.0746   23.5050 C   0  0  0  0  0  0  0  0  0  0  0  0
    9.2051    6.9101   23.4604 C   0  0  0  0  0  0  0  0  0  0  0  0
   11.9646    6.0299   21.4251 C   0  0  0  0  0  0  0  0  0  0  0  0
  1  5  1  0
  1 13  1  0
  2 20  2  0
  2 28  1  0
  2 29  1  0
  3 19  4  0
  3 25  4  0
  4 23  4  0
  4 27  1  0
  4 30  4  0
  5 17  1  0
  6  8  1  0
  6 29  1  0
  7 24  4  0
  7 26  4  0
  8 28  1  0
  9 13  2  0
 10 18  1  0
 10 21  4  0
 10 30  4  0
 11 17  2  0
 12 18  1  0
 13 15  1  0
 14 24  1  0
 15 25  1  0
 16 28  2  0
 17 20  1  0
 19 24  4  0
 20 23  1  0
 21 22  4  0
 22 23  4  0
 25 26  4  0
 27 29  2  0
M  END
$$$$

 Created by Python create_sdf_string function

 30 33  0  0  0  0  0  0  0  0999 V2000
    8.3036    9.8571   18.4133 C   0  0  0  0  0  0  0  0  0  0  0  0
    8.3694    7.6612   22.6703 C   0  0  0  0  0  0  0  0  0  0  0  0
    8.4143    6.6863   16.2273 C   0  0  0  0  0  0  0  0  0  0  0  0
   10.7581    6.5674   21.7636 C   0  0  0  0  0  0  0  0  0  0  0  0
    8.4452    8.7960   19.2958 O   0  0  0  0  0  0  0  0  0  0  0  0
    8.7122    6.7842   24.8569 C   0  0  0  0  0  0  0  0  0  0  0  0
   10.3400    6.1726   14.3081 C   0  0  0  0  0  0  0  0  0  0  0  0
    7.4297    7.5873   24.8962 C   0  0  0  0  0  0  0  0  0  0  0  0
    8.1566   10.0536   16.0516 O   0  0  0  0  0  0  0  0  0  0  0  0
   12.4989    6.2074   20.1776 C   0  0  0  0  0  0  0  0  0  0  0  0
    6.9192    9.1053   20.9073 O   0  0  0  0  0  0  0  0  0  0  0  0
   14.3979    6.0729   18.7784 C   0  0  0  0  0  0  0  0  0  0  0  0
    8.6811    9.5354   16.9998 C   0  0  0  0  0  0  0  0  0  0  0  0
    9.2512    4.2713   13.7653 O   0  0  0  0  0  0  0  0  0  0  0  0
    9.6495    8.6317   16.8332 N   0  0  0  0  0  0  0  0  0  0  0  0
    6.2934    8.6988   23.1988 O   0  0  0  0  0  0  0  0  0  0  0  0
    7.9806    8.6543   20.5437 C   0  0  0  0  0  0  0  0  0  0  0  0
   13.7270    5.7144   19.8610 O   0  0  0  0  0  0  0  0  0  0  0  0
    8.3351    5.5235   15.4478 C   0  0  0  0  0  0  0  0  0  0  0  0
    8.7700    7.8434   21.3915 C   0  0  0  0  0  0  0  0  0  0  0  0
   11.7856    6.8851   19.2401 C   0  0  0  0  0  0  0  0  0  0  0  0
   10.5281    7.4276   19.5649 C   0  0  0  0  0  0  0  0  0  0  0  0
   10.0256    7.2907   20.8484 C   0  0  0  0  0  0  0  0  0  0  0  0
    9.3113    5.3049   14.4911 C   0  0  0  0  0  0  0  0  0  0  0  0
    9.4607    7.5646   16.0139 C   0  0  0  0  0  0  0  0  0  0  0  0
   10.4192    7.3157   15.0955 C   0  0  0  0  0  0  0  0  0  0  0  0
   10.2489    6.4227   23.0218 N   0  0  0  0  0  0  0  0  0  0  0  0
    7.2472    8.0746   23.5050 C   0  0  0  0  0  0  0  0  0  0  0  0
    9.2051    6.9101   23.4604 C   0  0  0  0  0  0  0  0  0  0  0  0
   11.9646    6.0299   21.4251 C   0  0  0  0  0  0  0  0  0  0  0  0
  1  5  1  0
  1 13  1  0
  2 20  2  0
  2 28  1  0
  2 29  1  0
  3 19  4  0
  3 25  4  0
  4 23  4  0
  4 27  1  0
  4 30  4  0
  5 17  1  0
  6  8  1  0
  6 29  1  0
  7 24  4  0
  7 26  4  0
  8 28  1  0
  9 13  2  0
 10 18  1  0
 10 21  4  0
 10 30  4  0
 11 17  2  0
 12 18  1  0
 13 15  1  0
 14 24  1  0
 15 25  1  0
 16 28  2  0
 17 20  1  0
 19 24  4  0
 20 23  1  0
 21 22  4  0
 22 23  4  0
 25 26  4  0
 27 29  2  0
M  END
$$$$

 Created by Python create_sdf_string function

 30 33  0  0  0  0  0  0  0  0999 V2000
    8.3036    9.8571   18.4133 C   0  0  0  0  0  0  0  0  0  0  0  0
    8.3694    7.6612   22.6703 C   0  0  0  0  0  0  0  0  0  0  0  0
    8.4143    6.6863   16.2273 C   0  0  0  0  0  0  0  0  0  0  0  0
   10.7581    6.5674   21.7636 C   0  0  0  0  0  0  0  0  0  0  0  0
    8.4452    8.7960   19.2958 O   0  0  0  0  0  0  0  0  0  0  0  0
    8.7122    6.7842   24.8569 C   0  0  0  0  0  0  0  0  0  0  0  0
   10.3400    6.1726   14.3081 C   0  0  0  0  0  0  0  0  0  0  0  0
    7.4297    7.5873   24.8962 C   0  0  0  0  0  0  0  0  0  0  0  0
    8.1566   10.0536   16.0516 O   0  0  0  0  0  0  0  0  0  0  0  0
   12.4989    6.2074   20.1776 C   0  0  0  0  0  0  0  0  0  0  0  0
    6.9192    9.1053   20.9073 O   0  0  0  0  0  0  0  0  0  0  0  0
   14.3979    6.0729   18.7784 C   0  0  0  0  0  0  0  0  0  0  0  0
    8.6811    9.5354   16.9998 C   0  0  0  0  0  0  0  0  0  0  0  0
    9.2512    4.2713   13.7653 O   0  0  0  0  0  0  0  0  0  0  0  0
    9.6495    8.6317   16.8332 N   0  0  0  0  0  0  0  0  0  0  0  0
    6.2934    8.6988   23.1988 O   0  0  0  0  0  0  0  0  0  0  0  0
    7.9806    8.6543   20.5437 C   0  0  0  0  0  0  0  0  0  0  0  0
   13.7270    5.7144   19.8610 O   0  0  0  0  0  0  0  0  0  0  0  0
    8.3351    5.5235   15.4478 C   0  0  0  0  0  0  0  0  0  0  0  0
    8.7700    7.8434   21.3915 C   0  0  0  0  0  0  0  0  0  0  0  0
   11.7856    6.8851   19.2401 C   0  0  0  0  0  0  0  0  0  0  0  0
   10.5281    7.4276   19.5649 C   0  0  0  0  0  0  0  0  0  0  0  0
   10.0256    7.2907   20.8484 C   0  0  0  0  0  0  0  0  0  0  0  0
    9.3113    5.3049   14.4911 C   0  0  0  0  0  0  0  0  0  0  0  0
    9.4607    7.5646   16.0139 C   0  0  0  0  0  0  0  0  0  0  0  0
   10.4192    7.3157   15.0955 C   0  0  0  0  0  0  0  0  0  0  0  0
   10.2489    6.4227   23.0218 N   0  0  0  0  0  0  0  0  0  0  0  0
    7.2472    8.0746   23.5050 C   0  0  0  0  0  0  0  0  0  0  0  0
    9.2051    6.9101   23.4604 C   0  0  0  0  0  0  0  0  0  0  0  0
   11.9646    6.0299   21.4251 C   0  0  0  0  0  0  0  0  0  0  0  0
  1  5  1  0
  1 13  1  0
  2 20  2  0
  2 28  1  0
  2 29  1  0
  3 19  4  0
  3 25  4  0
  4 23  4  0
  4 27  1  0
  4 30  4  0
  5 17  1  0
  6  8  1  0
  6 29  1  0
  7 24  4  0
  7 26  4  0
  8 28  1  0
  9 13  2  0
 10 18  1  0
 10 21  4  0
 10 30  4  0
 11 17  2  0
 12 18  1  0
 13 15  1  0
 14 24  1  0
 15 25  1  0
 16 28  2  0
 17 20  1  0
 19 24  4  0
 20 23  1  0
 21 22  4  0
 22 23  4  0
 25 26  4  0
 27 29  2  0
M  END
$$$$

 Created by Python create_sdf_string function

 30 33  0  0  0  0  0  0  0  0999 V2000
    8.3036    9.8571   18.4133 C   0  0  0  0  0  0  0  0  0  0  0  0
    8.3694    7.6612   22.6703 C   0  0  0  0  0  0  0  0  0  0  0  0
    8.4143    6.6863   16.2273 C   0  0  0  0  0  0  0  0  0  0  0  0
   10.7581    6.5674   21.7636 C   0  0  0  0  0  0  0  0  0  0  0  0
    8.4452    8.7960   19.2958 O   0  0  0  0  0  0  0  0  0  0  0  0
    8.7122    6.7842   24.8569 C   0  0  0  0  0  0  0  0  0  0  0  0
   10.3400    6.1726   14.3081 C   0  0  0  0  0  0  0  0  0  0  0  0
    7.4297    7.5873   24.8962 C   0  0  0  0  0  0  0  0  0  0  0  0
    8.1566   10.0536   16.0516 O   0  0  0  0  0  0  0  0  0  0  0  0
   12.4989    6.2074   20.1776 C   0  0  0  0  0  0  0  0  0  0  0  0
    6.9192    9.1053   20.9073 O   0  0  0  0  0  0  0  0  0  0  0  0
   14.3979    6.0729   18.7784 C   0  0  0  0  0  0  0  0  0  0  0  0
    8.6811    9.5354   16.9998 C   0  0  0  0  0  0  0  0  0  0  0  0
    9.2512    4.2713   13.7653 O   0  0  0  0  0  0  0  0  0  0  0  0
    9.6495    8.6317   16.8332 N   0  0  0  0  0  0  0  0  0  0  0  0
    6.2934    8.6988   23.1988 O   0  0  0  0  0  0  0  0  0  0  0  0
    7.9806    8.6543   20.5437 C   0  0  0  0  0  0  0  0  0  0  0  0
   13.7270    5.7144   19.8610 O   0  0  0  0  0  0  0  0  0  0  0  0
    8.3351    5.5235   15.4478 C   0  0  0  0  0  0  0  0  0  0  0  0
    8.7700    7.8434   21.3915 C   0  0  0  0  0  0  0  0  0  0  0  0
   11.7856    6.8851   19.2401 C   0  0  0  0  0  0  0  0  0  0  0  0
   10.5281    7.4276   19.5649 C   0  0  0  0  0  0  0  0  0  0  0  0
   10.0256    7.2907   20.8484 C   0  0  0  0  0  0  0  0  0  0  0  0
    9.3113    5.3049   14.4911 C   0  0  0  0  0  0  0  0  0  0  0  0
    9.4607    7.5646   16.0139 C   0  0  0  0  0  0  0  0  0  0  0  0
   10.4192    7.3157   15.0955 C   0  0  0  0  0  0  0  0  0  0  0  0
   10.2489    6.4227   23.0218 N   0  0  0  0  0  0  0  0  0  0  0  0
    7.2472    8.0746   23.5050 C   0  0  0  0  0  0  0  0  0  0  0  0
    9.2051    6.9101   23.4604 C   0  0  0  0  0  0  0  0  0  0  0  0
   11.9646    6.0299   21.4251 C   0  0  0  0  0  0  0  0  0  0  0  0
  1  5  1  0
  1 13  1  0
  2 20  2  0
  2 28  1  0
  2 29  1  0
  3 19  4  0
  3 25  4  0
  4 23  4  0
  4 27  1  0
  4 30  4  0
  5 17  1  0
  6  8  1  0
  6 29  1  0
  7 24  4  0
  7 26  4  0
  8 28  1  0
  9 13  2  0
 10 18  1  0
 10 21  4  0
 10 30  4  0
 11 17  2  0
 12 18  1  0
 13 15  1  0
 14 24  1  0
 15 25  1  0
 16 28  2  0
 17 20  1  0
 19 24  4  0
 20 23  1  0
 21 22  4  0
 22 23  4  0
 25 26  4  0
 27 29  2  0
M  END
$$$$

 Created by Python create_sdf_string function

 30 33  0  0  0  0  0  0  0  0999 V2000
    8.3036    9.8571   18.4133 C   0  0  0  0  0  0  0  0  0  0  0  0
    8.3694    7.6612   22.6703 C   0  0  0  0  0  0  0  0  0  0  0  0
    8.4143    6.6863   16.2273 C   0  0  0  0  0  0  0  0  0  0  0  0
   10.7581    6.5674   21.7636 C   0  0  0  0  0  0  0  0  0  0  0  0
    8.4452    8.7960   19.2958 O   0  0  0  0  0  0  0  0  0  0  0  0
    8.7122    6.7842   24.8569 C   0  0  0  0  0  0  0  0  0  0  0  0
   10.3400    6.1726   14.3081 C   0  0  0  0  0  0  0  0  0  0  0  0
    7.4297    7.5873   24.8962 C   0  0  0  0  0  0  0  0  0  0  0  0
    8.1566   10.0536   16.0516 O   0  0  0  0  0  0  0  0  0  0  0  0
   12.4989    6.2074   20.1776 C   0  0  0  0  0  0  0  0  0  0  0  0
    6.9192    9.1053   20.9073 O   0  0  0  0  0  0  0  0  0  0  0  0
   14.3979    6.0729   18.7784 C   0  0  0  0  0  0  0  0  0  0  0  0
    8.6811    9.5354   16.9998 C   0  0  0  0  0  0  0  0  0  0  0  0
    9.2512    4.2713   13.7653 O   0  0  0  0  0  0  0  0  0  0  0  0
    9.6495    8.6317   16.8332 N   0  0  0  0  0  0  0  0  0  0  0  0
    6.2934    8.6988   23.1988 O   0  0  0  0  0  0  0  0  0  0  0  0
    7.9806    8.6543   20.5437 C   0  0  0  0  0  0  0  0  0  0  0  0
   13.7270    5.7144   19.8610 O   0  0  0  0  0  0  0  0  0  0  0  0
    8.3351    5.5235   15.4478 C   0  0  0  0  0  0  0  0  0  0  0  0
    8.7700    7.8434   21.3915 C   0  0  0  0  0  0  0  0  0  0  0  0
   11.7856    6.8851   19.2401 C   0  0  0  0  0  0  0  0  0  0  0  0
   10.5281    7.4276   19.5649 C   0  0  0  0  0  0  0  0  0  0  0  0
   10.0256    7.2907   20.8484 C   0  0  0  0  0  0  0  0  0  0  0  0
    9.3113    5.3049   14.4911 C   0  0  0  0  0  0  0  0  0  0  0  0
    9.4607    7.5646   16.0139 C   0  0  0  0  0  0  0  0  0  0  0  0
   10.4192    7.3157   15.0955 C   0  0  0  0  0  0  0  0  0  0  0  0
   10.2489    6.4227   23.0218 N   0  0  0  0  0  0  0  0  0  0  0  0
    7.2472    8.0746   23.5050 C   0  0  0  0  0  0  0  0  0  0  0  0
    9.2051    6.9101   23.4604 C   0  0  0  0  0  0  0  0  0  0  0  0
   11.9646    6.0299   21.4251 C   0  0  0  0  0  0  0  0  0  0  0  0
  1  5  1  0
  1 13  1  0
  2 20  2  0
  2 28  1  0
  2 29  1  0
  3 19  4  0
  3 25  4  0
  4 23  4  0
  4 27  1  0
  4 30  4  0
  5 17  1  0
  6  8  1  0
  6 29  1  0
  7 24  4  0
  7 26  4  0
  8 28  1  0
  9 13  2  0
 10 18  1  0
 10 21  4  0
 10 30  4  0
 11 17  2  0
 12 18  1  0
 13 15  1  0
 14 24  1  0
 15 25  1  0
 16 28  2  0
 17 20  1  0
 19 24  4  0
 20 23  1  0
 21 22  4  0
 22 23  4  0
 25 26  4  0
 27 29  2  0
M  END
$$$$

 Created by Python create_sdf_string function

 30 33  0  0  0  0  0  0  0  0999 V2000
    8.3036    9.8571   18.4133 C   0  0  0  0  0  0  0  0  0  0  0  0
    8.3694    7.6612   22.6703 C   0  0  0  0  0  0  0  0  0  0  0  0
    8.4143    6.6863   16.2273 C   0  0  0  0  0  0  0  0  0  0  0  0
   10.7581    6.5674   21.7636 C   0  0  0  0  0  0  0  0  0  0  0  0
    8.4452    8.7960   19.2958 O   0  0  0  0  0  0  0  0  0  0  0  0
    8.7122    6.7842   24.8569 C   0  0  0  0  0  0  0  0  0  0  0  0
   10.3400    6.1726   14.3081 C   0  0  0  0  0  0  0  0  0  0  0  0
    7.4297    7.5873   24.8962 C   0  0  0  0  0  0  0  0  0  0  0  0
    8.1566   10.0536   16.0516 O   0  0  0  0  0  0  0  0  0  0  0  0
   12.4989    6.2074   20.1776 C   0  0  0  0  0  0  0  0  0  0  0  0
    6.9192    9.1053   20.9073 O   0  0  0  0  0  0  0  0  0  0  0  0
   14.3979    6.0729   18.7784 C   0  0  0  0  0  0  0  0  0  0  0  0
    8.6811    9.5354   16.9998 C   0  0  0  0  0  0  0  0  0  0  0  0
    9.2512    4.2713   13.7653 O   0  0  0  0  0  0  0  0  0  0  0  0
    9.6495    8.6317   16.8332 N   0  0  0  0  0  0  0  0  0  0  0  0
    6.2934    8.6988   23.1988 O   0  0  0  0  0  0  0  0  0  0  0  0
    7.9806    8.6543   20.5437 C   0  0  0  0  0  0  0  0  0  0  0  0
   13.7270    5.7144   19.8610 O   0  0  0  0  0  0  0  0  0  0  0  0
    8.3351    5.5235   15.4478 C   0  0  0  0  0  0  0  0  0  0  0  0
    8.7700    7.8434   21.3915 C   0  0  0  0  0  0  0  0  0  0  0  0
   11.7856    6.8851   19.2401 C   0  0  0  0  0  0  0  0  0  0  0  0
   10.5281    7.4276   19.5649 C   0  0  0  0  0  0  0  0  0  0  0  0
   10.0256    7.2907   20.8484 C   0  0  0  0  0  0  0  0  0  0  0  0
    9.3113    5.3049   14.4911 C   0  0  0  0  0  0  0  0  0  0  0  0
    9.4607    7.5646   16.0139 C   0  0  0  0  0  0  0  0  0  0  0  0
   10.4192    7.3157   15.0955 C   0  0  0  0  0  0  0  0  0  0  0  0
   10.2489    6.4227   23.0218 N   0  0  0  0  0  0  0  0  0  0  0  0
    7.2472    8.0746   23.5050 C   0  0  0  0  0  0  0  0  0  0  0  0
    9.2051    6.9101   23.4604 C   0  0  0  0  0  0  0  0  0  0  0  0
   11.9646    6.0299   21.4251 C   0  0  0  0  0  0  0  0  0  0  0  0
  1  5  1  0
  1 13  1  0
  2 20  2  0
  2 28  1  0
  2 29  1  0
  3 19  4  0
  3 25  4  0
  4 23  4  0
  4 27  1  0
  4 30  4  0
  5 17  1  0
  6  8  1  0
  6 29  1  0
  7 24  4  0
  7 26  4  0
  8 28  1  0
  9 13  2  0
 10 18  1  0
 10 21  4  0
 10 30  4  0
 11 17  2  0
 12 18  1  0
 13 15  1  0
 14 24  1  0
 15 25  1  0
 16 28  2  0
 17 20  1  0
 19 24  4  0
 20 23  1  0
 21 22  4  0
 22 23  4  0
 25 26  4  0
 27 29  2  0
M  END
$$$$

 Created by Python create_sdf_string function

 30 33  0  0  0  0  0  0  0  0999 V2000
    8.3036    9.8571   18.4133 C   0  0  0  0  0  0  0  0  0  0  0  0
    8.3694    7.6612   22.6703 C   0  0  0  0  0  0  0  0  0  0  0  0
    8.4143    6.6863   16.2273 C   0  0  0  0  0  0  0  0  0  0  0  0
   10.7581    6.5674   21.7636 C   0  0  0  0  0  0  0  0  0  0  0  0
    8.4452    8.7960   19.2958 O   0  0  0  0  0  0  0  0  0  0  0  0
    8.7122    6.7842   24.8569 C   0  0  0  0  0  0  0  0  0  0  0  0
   10.3400    6.1726   14.3081 C   0  0  0  0  0  0  0  0  0  0  0  0
    7.4297    7.5873   24.8962 C   0  0  0  0  0  0  0  0  0  0  0  0
    8.1566   10.0536   16.0516 O   0  0  0  0  0  0  0  0  0  0  0  0
   12.4989    6.2074   20.1776 C   0  0  0  0  0  0  0  0  0  0  0  0
    6.9192    9.1053   20.9073 O   0  0  0  0  0  0  0  0  0  0  0  0
   14.3979    6.0729   18.7784 C   0  0  0  0  0  0  0  0  0  0  0  0
    8.6811    9.5354   16.9998 C   0  0  0  0  0  0  0  0  0  0  0  0
    9.2512    4.2713   13.7653 O   0  0  0  0  0  0  0  0  0  0  0  0
    9.6495    8.6317   16.8332 N   0  0  0  0  0  0  0  0  0  0  0  0
    6.2934    8.6988   23.1988 O   0  0  0  0  0  0  0  0  0  0  0  0
    7.9806    8.6543   20.5437 C   0  0  0  0  0  0  0  0  0  0  0  0
   13.7270    5.7144   19.8610 O   0  0  0  0  0  0  0  0  0  0  0  0
    8.3351    5.5235   15.4478 C   0  0  0  0  0  0  0  0  0  0  0  0
    8.7700    7.8434   21.3915 C   0  0  0  0  0  0  0  0  0  0  0  0
   11.7856    6.8851   19.2401 C   0  0  0  0  0  0  0  0  0  0  0  0
   10.5281    7.4276   19.5649 C   0  0  0  0  0  0  0  0  0  0  0  0
   10.0256    7.2907   20.8484 C   0  0  0  0  0  0  0  0  0  0  0  0
    9.3113    5.3049   14.4911 C   0  0  0  0  0  0  0  0  0  0  0  0
    9.4607    7.5646   16.0139 C   0  0  0  0  0  0  0  0  0  0  0  0
   10.4192    7.3157   15.0955 C   0  0  0  0  0  0  0  0  0  0  0  0
   10.2489    6.4227   23.0218 N   0  0  0  0  0  0  0  0  0  0  0  0
    7.2472    8.0746   23.5050 C   0  0  0  0  0  0  0  0  0  0  0  0
    9.2051    6.9101   23.4604 C   0  0  0  0  0  0  0  0  0  0  0  0
   11.9646    6.0299   21.4251 C   0  0  0  0  0  0  0  0  0  0  0  0
  1  5  1  0
  1 13  1  0
  2 20  2  0
  2 28  1  0
  2 29  1  0
  3 19  4  0
  3 25  4  0
  4 23  4  0
  4 27  1  0
  4 30  4  0
  5 17  1  0
  6  8  1  0
  6 29  1  0
  7 24  4  0
  7 26  4  0
  8 28  1  0
  9 13  2  0
 10 18  1  0
 10 21  4  0
 10 30  4  0
 11 17  2  0
 12 18  1  0
 13 15  1  0
 14 24  1  0
 15 25  1  0
 16 28  2  0
 17 20  1  0
 19 24  4  0
 20 23  1  0
 21 22  4  0
 22 23  4  0
 25 26  4  0
 27 29  2  0
M  END
$$$$

 Created by Python create_sdf_string function

 30 33  0  0  0  0  0  0  0  0999 V2000
    8.3036    9.8571   18.4133 C   0  0  0  0  0  0  0  0  0  0  0  0
    8.3694    7.6612   22.6703 C   0  0  0  0  0  0  0  0  0  0  0  0
    8.4143    6.6863   16.2273 C   0  0  0  0  0  0  0  0  0  0  0  0
   10.7581    6.5674   21.7636 C   0  0  0  0  0  0  0  0  0  0  0  0
    8.4452    8.7960   19.2958 O   0  0  0  0  0  0  0  0  0  0  0  0
    8.7122    6.7842   24.8569 C   0  0  0  0  0  0  0  0  0  0  0  0
   10.3400    6.1726   14.3081 C   0  0  0  0  0  0  0  0  0  0  0  0
    7.4297    7.5873   24.8962 C   0  0  0  0  0  0  0  0  0  0  0  0
    8.1566   10.0536   16.0516 O   0  0  0  0  0  0  0  0  0  0  0  0
   12.4989    6.2074   20.1776 C   0  0  0  0  0  0  0  0  0  0  0  0
    6.9192    9.1053   20.9073 O   0  0  0  0  0  0  0  0  0  0  0  0
   14.3979    6.0729   18.7784 C   0  0  0  0  0  0  0  0  0  0  0  0
    8.6811    9.5354   16.9998 C   0  0  0  0  0  0  0  0  0  0  0  0
    9.2512    4.2713   13.7653 O   0  0  0  0  0  0  0  0  0  0  0  0
    9.6495    8.6317   16.8332 N   0  0  0  0  0  0  0  0  0  0  0  0
    6.2934    8.6988   23.1988 O   0  0  0  0  0  0  0  0  0  0  0  0
    7.9806    8.6543   20.5437 C   0  0  0  0  0  0  0  0  0  0  0  0
   13.7270    5.7144   19.8610 O   0  0  0  0  0  0  0  0  0  0  0  0
    8.3351    5.5235   15.4478 C   0  0  0  0  0  0  0  0  0  0  0  0
    8.7700    7.8434   21.3915 C   0  0  0  0  0  0  0  0  0  0  0  0
   11.7856    6.8851   19.2401 C   0  0  0  0  0  0  0  0  0  0  0  0
   10.5281    7.4276   19.5649 C   0  0  0  0  0  0  0  0  0  0  0  0
   10.0256    7.2907   20.8484 C   0  0  0  0  0  0  0  0  0  0  0  0
    9.3113    5.3049   14.4911 C   0  0  0  0  0  0  0  0  0  0  0  0
    9.4607    7.5646   16.0139 C   0  0  0  0  0  0  0  0  0  0  0  0
   10.4192    7.3157   15.0955 C   0  0  0  0  0  0  0  0  0  0  0  0
   10.2489    6.4227   23.0218 N   0  0  0  0  0  0  0  0  0  0  0  0
    7.2472    8.0746   23.5050 C   0  0  0  0  0  0  0  0  0  0  0  0
    9.2051    6.9101   23.4604 C   0  0  0  0  0  0  0  0  0  0  0  0
   11.9646    6.0299   21.4251 C   0  0  0  0  0  0  0  0  0  0  0  0
  1  5  1  0
  1 13  1  0
  2 20  2  0
  2 28  1  0
  2 29  1  0
  3 19  4  0
  3 25  4  0
  4 23  4  0
  4 27  1  0
  4 30  4  0
  5 17  1  0
  6  8  1  0
  6 29  1  0
  7 24  4  0
  7 26  4  0
  8 28  1  0
  9 13  2  0
 10 18  1  0
 10 21  4  0
 10 30  4  0
 11 17  2  0
 12 18  1  0
 13 15  1  0
 14 24  1  0
 15 25  1  0
 16 28  2  0
 17 20  1  0
 19 24  4  0
 20 23  1  0
 21 22  4  0
 22 23  4  0
 25 26  4  0
 27 29  2  0
M  END
$$$$

 Created by Python create_sdf_string function

 30 33  0  0  0  0  0  0  0  0999 V2000
    8.3036    9.8571   18.4133 C   0  0  0  0  0  0  0  0  0  0  0  0
    8.3694    7.6612   22.6703 C   0  0  0  0  0  0  0  0  0  0  0  0
    8.4143    6.6863   16.2273 C   0  0  0  0  0  0  0  0  0  0  0  0
   10.7581    6.5674   21.7636 C   0  0  0  0  0  0  0  0  0  0  0  0
    8.4452    8.7960   19.2958 O   0  0  0  0  0  0  0  0  0  0  0  0
    8.7122    6.7842   24.8569 C   0  0  0  0  0  0  0  0  0  0  0  0
   10.3400    6.1726   14.3081 C   0  0  0  0  0  0  0  0  0  0  0  0
    7.4297    7.5873   24.8962 C   0  0  0  0  0  0  0  0  0  0  0  0
    8.1566   10.0536   16.0516 O   0  0  0  0  0  0  0  0  0  0  0  0
   12.4989    6.2074   20.1776 C   0  0  0  0  0  0  0  0  0  0  0  0
    6.9192    9.1053   20.9073 O   0  0  0  0  0  0  0  0  0  0  0  0
   14.3979    6.0729   18.7784 C   0  0  0  0  0  0  0  0  0  0  0  0
    8.6811    9.5354   16.9998 C   0  0  0  0  0  0  0  0  0  0  0  0
    9.2512    4.2713   13.7653 O   0  0  0  0  0  0  0  0  0  0  0  0
    9.6495    8.6317   16.8332 N   0  0  0  0  0  0  0  0  0  0  0  0
    6.2934    8.6988   23.1988 O   0  0  0  0  0  0  0  0  0  0  0  0
    7.9806    8.6543   20.5437 C   0  0  0  0  0  0  0  0  0  0  0  0
   13.7270    5.7144   19.8610 O   0  0  0  0  0  0  0  0  0  0  0  0
    8.3351    5.5235   15.4478 C   0  0  0  0  0  0  0  0  0  0  0  0
    8.7700    7.8434   21.3915 C   0  0  0  0  0  0  0  0  0  0  0  0
   11.7856    6.8851   19.2401 C   0  0  0  0  0  0  0  0  0  0  0  0
   10.5281    7.4276   19.5649 C   0  0  0  0  0  0  0  0  0  0  0  0
   10.0256    7.2907   20.8484 C   0  0  0  0  0  0  0  0  0  0  0  0
    9.3113    5.3049   14.4911 C   0  0  0  0  0  0  0  0  0  0  0  0
    9.4607    7.5646   16.0139 C   0  0  0  0  0  0  0  0  0  0  0  0
   10.4192    7.3157   15.0955 C   0  0  0  0  0  0  0  0  0  0  0  0
   10.2489    6.4227   23.0218 N   0  0  0  0  0  0  0  0  0  0  0  0
    7.2472    8.0746   23.5050 C   0  0  0  0  0  0  0  0  0  0  0  0
    9.2051    6.9101   23.4604 C   0  0  0  0  0  0  0  0  0  0  0  0
   11.9646    6.0299   21.4251 C   0  0  0  0  0  0  0  0  0  0  0  0
  1  5  1  0
  1 13  1  0
  2 20  2  0
  2 28  1  0
  2 29  1  0
  3 19  4  0
  3 25  4  0
  4 23  4  0
  4 27  1  0
  4 30  4  0
  5 17  1  0
  6  8  1  0
  6 29  1  0
  7 24  4  0
  7 26  4  0
  8 28  1  0
  9 13  2  0
 10 18  1  0
 10 21  4  0
 10 30  4  0
 11 17  2  0
 12 18  1  0
 13 15  1  0
 14 24  1  0
 15 25  1  0
 16 28  2  0
 17 20  1  0
 19 24  4  0
 20 23  1  0
 21 22  4  0
 22 23  4  0
 25 26  4  0
 27 29  2  0
M  END
$$$$

 Created by Python create_sdf_string function

 30 33  0  0  0  0  0  0  0  0999 V2000
    8.3036    9.8571   18.4133 C   0  0  0  0  0  0  0  0  0  0  0  0
    8.3694    7.6612   22.6703 C   0  0  0  0  0  0  0  0  0  0  0  0
    8.4143    6.6863   16.2273 C   0  0  0  0  0  0  0  0  0  0  0  0
   10.7581    6.5674   21.7636 C   0  0  0  0  0  0  0  0  0  0  0  0
    8.4452    8.7960   19.2958 O   0  0  0  0  0  0  0  0  0  0  0  0
    8.7122    6.7842   24.8569 C   0  0  0  0  0  0  0  0  0  0  0  0
   10.3400    6.1726   14.3081 C   0  0  0  0  0  0  0  0  0  0  0  0
    7.4297    7.5873   24.8962 C   0  0  0  0  0  0  0  0  0  0  0  0
    8.1566   10.0536   16.0516 O   0  0  0  0  0  0  0  0  0  0  0  0
   12.4989    6.2074   20.1776 C   0  0  0  0  0  0  0  0  0  0  0  0
    6.9192    9.1053   20.9073 O   0  0  0  0  0  0  0  0  0  0  0  0
   14.3979    6.0729   18.7784 C   0  0  0  0  0  0  0  0  0  0  0  0
    8.6811    9.5354   16.9998 C   0  0  0  0  0  0  0  0  0  0  0  0
    9.2512    4.2713   13.7653 O   0  0  0  0  0  0  0  0  0  0  0  0
    9.6495    8.6317   16.8332 N   0  0  0  0  0  0  0  0  0  0  0  0
    6.2934    8.6988   23.1988 O   0  0  0  0  0  0  0  0  0  0  0  0
    7.9806    8.6543   20.5437 C   0  0  0  0  0  0  0  0  0  0  0  0
   13.7270    5.7144   19.8610 O   0  0  0  0  0  0  0  0  0  0  0  0
    8.3351    5.5235   15.4478 C   0  0  0  0  0  0  0  0  0  0  0  0
    8.7700    7.8434   21.3915 C   0  0  0  0  0  0  0  0  0  0  0  0
   11.7856    6.8851   19.2401 C   0  0  0  0  0  0  0  0  0  0  0  0
   10.5281    7.4276   19.5649 C   0  0  0  0  0  0  0  0  0  0  0  0
   10.0256    7.2907   20.8484 C   0  0  0  0  0  0  0  0  0  0  0  0
    9.3113    5.3049   14.4911 C   0  0  0  0  0  0  0  0  0  0  0  0
    9.4607    7.5646   16.0139 C   0  0  0  0  0  0  0  0  0  0  0  0
   10.4192    7.3157   15.0955 C   0  0  0  0  0  0  0  0  0  0  0  0
   10.2489    6.4227   23.0218 N   0  0  0  0  0  0  0  0  0  0  0  0
    7.2472    8.0746   23.5050 C   0  0  0  0  0  0  0  0  0  0  0  0
    9.2051    6.9101   23.4604 C   0  0  0  0  0  0  0  0  0  0  0  0
   11.9646    6.0299   21.4251 C   0  0  0  0  0  0  0  0  0  0  0  0
  1  5  1  0
  1 13  1  0
  2 20  2  0
  2 28  1  0
  2 29  1  0
  3 19  4  0
  3 25  4  0
  4 23  4  0
  4 27  1  0
  4 30  4  0
  5 17  1  0
  6  8  1  0
  6 29  1  0
  7 24  4  0
  7 26  4  0
  8 28  1  0
  9 13  2  0
 10 18  1  0
 10 21  4  0
 10 30  4  0
 11 17  2  0
 12 18  1  0
 13 15  1  0
 14 24  1  0
 15 25  1  0
 16 28  2  0
 17 20  1  0
 19 24  4  0
 20 23  1  0
 21 22  4  0
 22 23  4  0
 25 26  4  0
 27 29  2  0
M  END
$$$$

 Created by Python create_sdf_string function

 30 33  0  0  0  0  0  0  0  0999 V2000
    8.3036    9.8571   18.4133 C   0  0  0  0  0  0  0  0  0  0  0  0
    8.3694    7.6612   22.6703 C   0  0  0  0  0  0  0  0  0  0  0  0
    8.4143    6.6863   16.2273 C   0  0  0  0  0  0  0  0  0  0  0  0
   10.7581    6.5674   21.7636 C   0  0  0  0  0  0  0  0  0  0  0  0
    8.4452    8.7960   19.2958 O   0  0  0  0  0  0  0  0  0  0  0  0
    8.7122    6.7842   24.8569 C   0  0  0  0  0  0  0  0  0  0  0  0
   10.3400    6.1726   14.3081 C   0  0  0  0  0  0  0  0  0  0  0  0
    7.4297    7.5873   24.8962 C   0  0  0  0  0  0  0  0  0  0  0  0
    8.1566   10.0536   16.0516 O   0  0  0  0  0  0  0  0  0  0  0  0
   12.4989    6.2074   20.1776 C   0  0  0  0  0  0  0  0  0  0  0  0
    6.9192    9.1053   20.9073 O   0  0  0  0  0  0  0  0  0  0  0  0
   14.3979    6.0729   18.7784 C   0  0  0  0  0  0  0  0  0  0  0  0
    8.6811    9.5354   16.9998 C   0  0  0  0  0  0  0  0  0  0  0  0
    9.2512    4.2713   13.7653 O   0  0  0  0  0  0  0  0  0  0  0  0
    9.6495    8.6317   16.8332 N   0  0  0  0  0  0  0  0  0  0  0  0
    6.2934    8.6988   23.1988 O   0  0  0  0  0  0  0  0  0  0  0  0
    7.9806    8.6543   20.5437 C   0  0  0  0  0  0  0  0  0  0  0  0
   13.7270    5.7144   19.8610 O   0  0  0  0  0  0  0  0  0  0  0  0
    8.3351    5.5235   15.4478 C   0  0  0  0  0  0  0  0  0  0  0  0
    8.7700    7.8434   21.3915 C   0  0  0  0  0  0  0  0  0  0  0  0
   11.7856    6.8851   19.2401 C   0  0  0  0  0  0  0  0  0  0  0  0
   10.5281    7.4276   19.5649 C   0  0  0  0  0  0  0  0  0  0  0  0
   10.0256    7.2907   20.8484 C   0  0  0  0  0  0  0  0  0  0  0  0
    9.3113    5.3049   14.4911 C   0  0  0  0  0  0  0  0  0  0  0  0
    9.4607    7.5646   16.0139 C   0  0  0  0  0  0  0  0  0  0  0  0
   10.4192    7.3157   15.0955 C   0  0  0  0  0  0  0  0  0  0  0  0
   10.2489    6.4227   23.0218 N   0  0  0  0  0  0  0  0  0  0  0  0
    7.2472    8.0746   23.5050 C   0  0  0  0  0  0  0  0  0  0  0  0
    9.2051    6.9101   23.4604 C   0  0  0  0  0  0  0  0  0  0  0  0
   11.9646    6.0299   21.4251 C   0  0  0  0  0  0  0  0  0  0  0  0
  1  5  1  0
  1 13  1  0
  2 20  2  0
  2 28  1  0
  2 29  1  0
  3 19  4  0
  3 25  4  0
  4 23  4  0
  4 27  1  0
  4 30  4  0
  5 17  1  0
  6  8  1  0
  6 29  1  0
  7 24  4  0
  7 26  4  0
  8 28  1  0
  9 13  2  0
 10 18  1  0
 10 21  4  0
 10 30  4  0
 11 17  2  0
 12 18  1  0
 13 15  1  0
 14 24  1  0
 15 25  1  0
 16 28  2  0
 17 20  1  0
 19 24  4  0
 20 23  1  0
 21 22  4  0
 22 23  4  0
 25 26  4  0
 27 29  2  0
M  END
$$$$

 Created by Python create_sdf_string function

 30 33  0  0  0  0  0  0  0  0999 V2000
    8.3036    9.8571   18.4133 C   0  0  0  0  0  0  0  0  0  0  0  0
    8.3694    7.6612   22.6703 C   0  0  0  0  0  0  0  0  0  0  0  0
    8.4143    6.6863   16.2273 C   0  0  0  0  0  0  0  0  0  0  0  0
   10.7581    6.5674   21.7636 C   0  0  0  0  0  0  0  0  0  0  0  0
    8.4452    8.7960   19.2958 O   0  0  0  0  0  0  0  0  0  0  0  0
    8.7122    6.7842   24.8569 C   0  0  0  0  0  0  0  0  0  0  0  0
   10.3400    6.1726   14.3081 C   0  0  0  0  0  0  0  0  0  0  0  0
    7.4297    7.5873   24.8962 C   0  0  0  0  0  0  0  0  0  0  0  0
    8.1566   10.0536   16.0516 O   0  0  0  0  0  0  0  0  0  0  0  0
   12.4989    6.2074   20.1776 C   0  0  0  0  0  0  0  0  0  0  0  0
    6.9192    9.1053   20.9073 O   0  0  0  0  0  0  0  0  0  0  0  0
   14.3979    6.0729   18.7784 C   0  0  0  0  0  0  0  0  0  0  0  0
    8.6811    9.5354   16.9998 C   0  0  0  0  0  0  0  0  0  0  0  0
    9.2512    4.2713   13.7653 O   0  0  0  0  0  0  0  0  0  0  0  0
    9.6495    8.6317   16.8332 N   0  0  0  0  0  0  0  0  0  0  0  0
    6.2934    8.6988   23.1988 O   0  0  0  0  0  0  0  0  0  0  0  0
    7.9806    8.6543   20.5437 C   0  0  0  0  0  0  0  0  0  0  0  0
   13.7270    5.7144   19.8610 O   0  0  0  0  0  0  0  0  0  0  0  0
    8.3351    5.5235   15.4478 C   0  0  0  0  0  0  0  0  0  0  0  0
    8.7700    7.8434   21.3915 C   0  0  0  0  0  0  0  0  0  0  0  0
   11.7856    6.8851   19.2401 C   0  0  0  0  0  0  0  0  0  0  0  0
   10.5281    7.4276   19.5649 C   0  0  0  0  0  0  0  0  0  0  0  0
   10.0256    7.2907   20.8484 C   0  0  0  0  0  0  0  0  0  0  0  0
    9.3113    5.3049   14.4911 C   0  0  0  0  0  0  0  0  0  0  0  0
    9.4607    7.5646   16.0139 C   0  0  0  0  0  0  0  0  0  0  0  0
   10.4192    7.3157   15.0955 C   0  0  0  0  0  0  0  0  0  0  0  0
   10.2489    6.4227   23.0218 N   0  0  0  0  0  0  0  0  0  0  0  0
    7.2472    8.0746   23.5050 C   0  0  0  0  0  0  0  0  0  0  0  0
    9.2051    6.9101   23.4604 C   0  0  0  0  0  0  0  0  0  0  0  0
   11.9646    6.0299   21.4251 C   0  0  0  0  0  0  0  0  0  0  0  0
  1  5  1  0
  1 13  1  0
  2 20  2  0
  2 28  1  0
  2 29  1  0
  3 19  4  0
  3 25  4  0
  4 23  4  0
  4 27  1  0
  4 30  4  0
  5 17  1  0
  6  8  1  0
  6 29  1  0
  7 24  4  0
  7 26  4  0
  8 28  1  0
  9 13  2  0
 10 18  1  0
 10 21  4  0
 10 30  4  0
 11 17  2  0
 12 18  1  0
 13 15  1  0
 14 24  1  0
 15 25  1  0
 16 28  2  0
 17 20  1  0
 19 24  4  0
 20 23  1  0
 21 22  4  0
 22 23  4  0
 25 26  4  0
 27 29  2  0
M  END
$$$$

 Created by Python create_sdf_string function

 30 33  0  0  0  0  0  0  0  0999 V2000
    8.3036    9.8571   18.4133 C   0  0  0  0  0  0  0  0  0  0  0  0
    8.3694    7.6612   22.6703 C   0  0  0  0  0  0  0  0  0  0  0  0
    8.4143    6.6863   16.2273 C   0  0  0  0  0  0  0  0  0  0  0  0
   10.7581    6.5674   21.7636 C   0  0  0  0  0  0  0  0  0  0  0  0
    8.4452    8.7960   19.2958 O   0  0  0  0  0  0  0  0  0  0  0  0
    8.7122    6.7842   24.8569 C   0  0  0  0  0  0  0  0  0  0  0  0
   10.3400    6.1726   14.3081 C   0  0  0  0  0  0  0  0  0  0  0  0
    7.4297    7.5873   24.8962 C   0  0  0  0  0  0  0  0  0  0  0  0
    8.1566   10.0536   16.0516 O   0  0  0  0  0  0  0  0  0  0  0  0
   12.4989    6.2074   20.1776 C   0  0  0  0  0  0  0  0  0  0  0  0
    6.9192    9.1053   20.9073 O   0  0  0  0  0  0  0  0  0  0  0  0
   14.3979    6.0729   18.7784 C   0  0  0  0  0  0  0  0  0  0  0  0
    8.6811    9.5354   16.9998 C   0  0  0  0  0  0  0  0  0  0  0  0
    9.2512    4.2713   13.7653 O   0  0  0  0  0  0  0  0  0  0  0  0
    9.6495    8.6317   16.8332 N   0  0  0  0  0  0  0  0  0  0  0  0
    6.2934    8.6988   23.1988 O   0  0  0  0  0  0  0  0  0  0  0  0
    7.9806    8.6543   20.5437 C   0  0  0  0  0  0  0  0  0  0  0  0
   13.7270    5.7144   19.8610 O   0  0  0  0  0  0  0  0  0  0  0  0
    8.3351    5.5235   15.4478 C   0  0  0  0  0  0  0  0  0  0  0  0
    8.7700    7.8434   21.3915 C   0  0  0  0  0  0  0  0  0  0  0  0
   11.7856    6.8851   19.2401 C   0  0  0  0  0  0  0  0  0  0  0  0
   10.5281    7.4276   19.5649 C   0  0  0  0  0  0  0  0  0  0  0  0
   10.0256    7.2907   20.8484 C   0  0  0  0  0  0  0  0  0  0  0  0
    9.3113    5.3049   14.4911 C   0  0  0  0  0  0  0  0  0  0  0  0
    9.4607    7.5646   16.0139 C   0  0  0  0  0  0  0  0  0  0  0  0
   10.4192    7.3157   15.0955 C   0  0  0  0  0  0  0  0  0  0  0  0
   10.2489    6.4227   23.0218 N   0  0  0  0  0  0  0  0  0  0  0  0
    7.2472    8.0746   23.5050 C   0  0  0  0  0  0  0  0  0  0  0  0
    9.2051    6.9101   23.4604 C   0  0  0  0  0  0  0  0  0  0  0  0
   11.9646    6.0299   21.4251 C   0  0  0  0  0  0  0  0  0  0  0  0
  1  5  1  0
  1 13  1  0
  2 20  2  0
  2 28  1  0
  2 29  1  0
  3 19  4  0
  3 25  4  0
  4 23  4  0
  4 27  1  0
  4 30  4  0
  5 17  1  0
  6  8  1  0
  6 29  1  0
  7 24  4  0
  7 26  4  0
  8 28  1  0
  9 13  2  0
 10 18  1  0
 10 21  4  0
 10 30  4  0
 11 17  2  0
 12 18  1  0
 13 15  1  0
 14 24  1  0
 15 25  1  0
 16 28  2  0
 17 20  1  0
 19 24  4  0
 20 23  1  0
 21 22  4  0
 22 23  4  0
 25 26  4  0
 27 29  2  0
M  END
$$$$

 Created by Python create_sdf_string function

 30 33  0  0  0  0  0  0  0  0999 V2000
    8.3036    9.8571   18.4133 C   0  0  0  0  0  0  0  0  0  0  0  0
    8.3694    7.6612   22.6703 C   0  0  0  0  0  0  0  0  0  0  0  0
    8.4143    6.6863   16.2273 C   0  0  0  0  0  0  0  0  0  0  0  0
   10.7581    6.5674   21.7636 C   0  0  0  0  0  0  0  0  0  0  0  0
    8.4452    8.7960   19.2958 O   0  0  0  0  0  0  0  0  0  0  0  0
    8.7122    6.7842   24.8569 C   0  0  0  0  0  0  0  0  0  0  0  0
   10.3400    6.1726   14.3081 C   0  0  0  0  0  0  0  0  0  0  0  0
    7.4297    7.5873   24.8962 C   0  0  0  0  0  0  0  0  0  0  0  0
    8.1566   10.0536   16.0516 O   0  0  0  0  0  0  0  0  0  0  0  0
   12.4989    6.2074   20.1776 C   0  0  0  0  0  0  0  0  0  0  0  0
    6.9192    9.1053   20.9073 O   0  0  0  0  0  0  0  0  0  0  0  0
   14.3979    6.0729   18.7784 C   0  0  0  0  0  0  0  0  0  0  0  0
    8.6811    9.5354   16.9998 C   0  0  0  0  0  0  0  0  0  0  0  0
    9.2512    4.2713   13.7653 O   0  0  0  0  0  0  0  0  0  0  0  0
    9.6495    8.6317   16.8332 N   0  0  0  0  0  0  0  0  0  0  0  0
    6.2934    8.6988   23.1988 O   0  0  0  0  0  0  0  0  0  0  0  0
    7.9806    8.6543   20.5437 C   0  0  0  0  0  0  0  0  0  0  0  0
   13.7270    5.7144   19.8610 O   0  0  0  0  0  0  0  0  0  0  0  0
    8.3351    5.5235   15.4478 C   0  0  0  0  0  0  0  0  0  0  0  0
    8.7700    7.8434   21.3915 C   0  0  0  0  0  0  0  0  0  0  0  0
   11.7856    6.8851   19.2401 C   0  0  0  0  0  0  0  0  0  0  0  0
   10.5281    7.4276   19.5649 C   0  0  0  0  0  0  0  0  0  0  0  0
   10.0256    7.2907   20.8484 C   0  0  0  0  0  0  0  0  0  0  0  0
    9.3113    5.3049   14.4911 C   0  0  0  0  0  0  0  0  0  0  0  0
    9.4607    7.5646   16.0139 C   0  0  0  0  0  0  0  0  0  0  0  0
   10.4192    7.3157   15.0955 C   0  0  0  0  0  0  0  0  0  0  0  0
   10.2489    6.4227   23.0218 N   0  0  0  0  0  0  0  0  0  0  0  0
    7.2472    8.0746   23.5050 C   0  0  0  0  0  0  0  0  0  0  0  0
    9.2051    6.9101   23.4604 C   0  0  0  0  0  0  0  0  0  0  0  0
   11.9646    6.0299   21.4251 C   0  0  0  0  0  0  0  0  0  0  0  0
  1  5  1  0
  1 13  1  0
  2 20  2  0
  2 28  1  0
  2 29  1  0
  3 19  4  0
  3 25  4  0
  4 23  4  0
  4 27  1  0
  4 30  4  0
  5 17  1  0
  6  8  1  0
  6 29  1  0
  7 24  4  0
  7 26  4  0
  8 28  1  0
  9 13  2  0
 10 18  1  0
 10 21  4  0
 10 30  4  0
 11 17  2  0
 12 18  1  0
 13 15  1  0
 14 24  1  0
 15 25  1  0
 16 28  2  0
 17 20  1  0
 19 24  4  0
 20 23  1  0
 21 22  4  0
 22 23  4  0
 25 26  4  0
 27 29  2  0
M  END
$$$$

 Created by Python create_sdf_string function

 30 33  0  0  0  0  0  0  0  0999 V2000
    8.3036    9.8571   18.4133 C   0  0  0  0  0  0  0  0  0  0  0  0
    8.3694    7.6612   22.6703 C   0  0  0  0  0  0  0  0  0  0  0  0
    8.4143    6.6863   16.2273 C   0  0  0  0  0  0  0  0  0  0  0  0
   10.7581    6.5674   21.7636 C   0  0  0  0  0  0  0  0  0  0  0  0
    8.4452    8.7960   19.2958 O   0  0  0  0  0  0  0  0  0  0  0  0
    8.7122    6.7842   24.8569 C   0  0  0  0  0  0  0  0  0  0  0  0
   10.3400    6.1726   14.3081 C   0  0  0  0  0  0  0  0  0  0  0  0
    7.4297    7.5873   24.8962 C   0  0  0  0  0  0  0  0  0  0  0  0
    8.1566   10.0536   16.0516 O   0  0  0  0  0  0  0  0  0  0  0  0
   12.4989    6.2074   20.1776 C   0  0  0  0  0  0  0  0  0  0  0  0
    6.9192    9.1053   20.9073 O   0  0  0  0  0  0  0  0  0  0  0  0
   14.3979    6.0729   18.7784 C   0  0  0  0  0  0  0  0  0  0  0  0
    8.6811    9.5354   16.9998 C   0  0  0  0  0  0  0  0  0  0  0  0
    9.2512    4.2713   13.7653 O   0  0  0  0  0  0  0  0  0  0  0  0
    9.6495    8.6317   16.8332 N   0  0  0  0  0  0  0  0  0  0  0  0
    6.2934    8.6988   23.1988 O   0  0  0  0  0  0  0  0  0  0  0  0
    7.9806    8.6543   20.5437 C   0  0  0  0  0  0  0  0  0  0  0  0
   13.7270    5.7144   19.8610 O   0  0  0  0  0  0  0  0  0  0  0  0
    8.3351    5.5235   15.4478 C   0  0  0  0  0  0  0  0  0  0  0  0
    8.7700    7.8434   21.3915 C   0  0  0  0  0  0  0  0  0  0  0  0
   11.7856    6.8851   19.2401 C   0  0  0  0  0  0  0  0  0  0  0  0
   10.5281    7.4276   19.5649 C   0  0  0  0  0  0  0  0  0  0  0  0
   10.0256    7.2907   20.8484 C   0  0  0  0  0  0  0  0  0  0  0  0
    9.3113    5.3049   14.4911 C   0  0  0  0  0  0  0  0  0  0  0  0
    9.4607    7.5646   16.0139 C   0  0  0  0  0  0  0  0  0  0  0  0
   10.4192    7.3157   15.0955 C   0  0  0  0  0  0  0  0  0  0  0  0
   10.2489    6.4227   23.0218 N   0  0  0  0  0  0  0  0  0  0  0  0
    7.2472    8.0746   23.5050 C   0  0  0  0  0  0  0  0  0  0  0  0
    9.2051    6.9101   23.4604 C   0  0  0  0  0  0  0  0  0  0  0  0
   11.9646    6.0299   21.4251 C   0  0  0  0  0  0  0  0  0  0  0  0
  1  5  1  0
  1 13  1  0
  2 20  2  0
  2 28  1  0
  2 29  1  0
  3 19  4  0
  3 25  4  0
  4 23  4  0
  4 27  1  0
  4 30  4  0
  5 17  1  0
  6  8  1  0
  6 29  1  0
  7 24  4  0
  7 26  4  0
  8 28  1  0
  9 13  2  0
 10 18  1  0
 10 21  4  0
 10 30  4  0
 11 17  2  0
 12 18  1  0
 13 15  1  0
 14 24  1  0
 15 25  1  0
 16 28  2  0
 17 20  1  0
 19 24  4  0
 20 23  1  0
 21 22  4  0
 22 23  4  0
 25 26  4  0
 27 29  2  0
M  END
$$$$

 Created by Python create_sdf_string function

 30 33  0  0  0  0  0  0  0  0999 V2000
    8.3036    9.8571   18.4133 C   0  0  0  0  0  0  0  0  0  0  0  0
    8.3694    7.6612   22.6703 C   0  0  0  0  0  0  0  0  0  0  0  0
    8.4143    6.6863   16.2273 C   0  0  0  0  0  0  0  0  0  0  0  0
   10.7581    6.5674   21.7636 C   0  0  0  0  0  0  0  0  0  0  0  0
    8.4452    8.7960   19.2958 O   0  0  0  0  0  0  0  0  0  0  0  0
    8.7122    6.7842   24.8569 C   0  0  0  0  0  0  0  0  0  0  0  0
   10.3400    6.1726   14.3081 C   0  0  0  0  0  0  0  0  0  0  0  0
    7.4297    7.5873   24.8962 C   0  0  0  0  0  0  0  0  0  0  0  0
    8.1566   10.0536   16.0516 O   0  0  0  0  0  0  0  0  0  0  0  0
   12.4989    6.2074   20.1776 C   0  0  0  0  0  0  0  0  0  0  0  0
    6.9192    9.1053   20.9073 O   0  0  0  0  0  0  0  0  0  0  0  0
   14.3979    6.0729   18.7784 C   0  0  0  0  0  0  0  0  0  0  0  0
    8.6811    9.5354   16.9998 C   0  0  0  0  0  0  0  0  0  0  0  0
    9.2512    4.2713   13.7653 O   0  0  0  0  0  0  0  0  0  0  0  0
    9.6495    8.6317   16.8332 N   0  0  0  0  0  0  0  0  0  0  0  0
    6.2934    8.6988   23.1988 O   0  0  0  0  0  0  0  0  0  0  0  0
    7.9806    8.6543   20.5437 C   0  0  0  0  0  0  0  0  0  0  0  0
   13.7270    5.7144   19.8610 O   0  0  0  0  0  0  0  0  0  0  0  0
    8.3351    5.5235   15.4478 C   0  0  0  0  0  0  0  0  0  0  0  0
    8.7700    7.8434   21.3915 C   0  0  0  0  0  0  0  0  0  0  0  0
   11.7856    6.8851   19.2401 C   0  0  0  0  0  0  0  0  0  0  0  0
   10.5281    7.4276   19.5649 C   0  0  0  0  0  0  0  0  0  0  0  0
   10.0256    7.2907   20.8484 C   0  0  0  0  0  0  0  0  0  0  0  0
    9.3113    5.3049   14.4911 C   0  0  0  0  0  0  0  0  0  0  0  0
    9.4607    7.5646   16.0139 C   0  0  0  0  0  0  0  0  0  0  0  0
   10.4192    7.3157   15.0955 C   0  0  0  0  0  0  0  0  0  0  0  0
   10.2489    6.4227   23.0218 N   0  0  0  0  0  0  0  0  0  0  0  0
    7.2472    8.0746   23.5050 C   0  0  0  0  0  0  0  0  0  0  0  0
    9.2051    6.9101   23.4604 C   0  0  0  0  0  0  0  0  0  0  0  0
   11.9646    6.0299   21.4251 C   0  0  0  0  0  0  0  0  0  0  0  0
  1  5  1  0
  1 13  1  0
  2 20  2  0
  2 28  1  0
  2 29  1  0
  3 19  4  0
  3 25  4  0
  4 23  4  0
  4 27  1  0
  4 30  4  0
  5 17  1  0
  6  8  1  0
  6 29  1  0
  7 24  4  0
  7 26  4  0
  8 28  1  0
  9 13  2  0
 10 18  1  0
 10 21  4  0
 10 30  4  0
 11 17  2  0
 12 18  1  0
 13 15  1  0
 14 24  1  0
 15 25  1  0
 16 28  2  0
 17 20  1  0
 19 24  4  0
 20 23  1  0
 21 22  4  0
 22 23  4  0
 25 26  4  0
 27 29  2  0
M  END
$$$$

 Created by Python create_sdf_string function

 30 33  0  0  0  0  0  0  0  0999 V2000
    8.3036    9.8571   18.4133 C   0  0  0  0  0  0  0  0  0  0  0  0
    8.3694    7.6612   22.6703 C   0  0  0  0  0  0  0  0  0  0  0  0
    8.4143    6.6863   16.2273 C   0  0  0  0  0  0  0  0  0  0  0  0
   10.7581    6.5674   21.7636 C   0  0  0  0  0  0  0  0  0  0  0  0
    8.4452    8.7960   19.2958 O   0  0  0  0  0  0  0  0  0  0  0  0
    8.7122    6.7842   24.8569 C   0  0  0  0  0  0  0  0  0  0  0  0
   10.3400    6.1726   14.3081 C   0  0  0  0  0  0  0  0  0  0  0  0
    7.4297    7.5873   24.8962 C   0  0  0  0  0  0  0  0  0  0  0  0
    8.1566   10.0536   16.0516 O   0  0  0  0  0  0  0  0  0  0  0  0
   12.4989    6.2074   20.1776 C   0  0  0  0  0  0  0  0  0  0  0  0
    6.9192    9.1053   20.9073 O   0  0  0  0  0  0  0  0  0  0  0  0
   14.3979    6.0729   18.7784 C   0  0  0  0  0  0  0  0  0  0  0  0
    8.6811    9.5354   16.9998 C   0  0  0  0  0  0  0  0  0  0  0  0
    9.2512    4.2713   13.7653 O   0  0  0  0  0  0  0  0  0  0  0  0
    9.6495    8.6317   16.8332 N   0  0  0  0  0  0  0  0  0  0  0  0
    6.2934    8.6988   23.1988 O   0  0  0  0  0  0  0  0  0  0  0  0
    7.9806    8.6543   20.5437 C   0  0  0  0  0  0  0  0  0  0  0  0
   13.7270    5.7144   19.8610 O   0  0  0  0  0  0  0  0  0  0  0  0
    8.3351    5.5235   15.4478 C   0  0  0  0  0  0  0  0  0  0  0  0
    8.7700    7.8434   21.3915 C   0  0  0  0  0  0  0  0  0  0  0  0
   11.7856    6.8851   19.2401 C   0  0  0  0  0  0  0  0  0  0  0  0
   10.5281    7.4276   19.5649 C   0  0  0  0  0  0  0  0  0  0  0  0
   10.0256    7.2907   20.8484 C   0  0  0  0  0  0  0  0  0  0  0  0
    9.3113    5.3049   14.4911 C   0  0  0  0  0  0  0  0  0  0  0  0
    9.4607    7.5646   16.0139 C   0  0  0  0  0  0  0  0  0  0  0  0
   10.4192    7.3157   15.0955 C   0  0  0  0  0  0  0  0  0  0  0  0
   10.2489    6.4227   23.0218 N   0  0  0  0  0  0  0  0  0  0  0  0
    7.2472    8.0746   23.5050 C   0  0  0  0  0  0  0  0  0  0  0  0
    9.2051    6.9101   23.4604 C   0  0  0  0  0  0  0  0  0  0  0  0
   11.9646    6.0299   21.4251 C   0  0  0  0  0  0  0  0  0  0  0  0
  1  5  1  0
  1 13  1  0
  2 20  2  0
  2 28  1  0
  2 29  1  0
  3 19  4  0
  3 25  4  0
  4 23  4  0
  4 27  1  0
  4 30  4  0
  5 17  1  0
  6  8  1  0
  6 29  1  0
  7 24  4  0
  7 26  4  0
  8 28  1  0
  9 13  2  0
 10 18  1  0
 10 21  4  0
 10 30  4  0
 11 17  2  0
 12 18  1  0
 13 15  1  0
 14 24  1  0
 15 25  1  0
 16 28  2  0
 17 20  1  0
 19 24  4  0
 20 23  1  0
 21 22  4  0
 22 23  4  0
 25 26  4  0
 27 29  2  0
M  END
$$$$

 Created by Python create_sdf_string function

 30 33  0  0  0  0  0  0  0  0999 V2000
    8.3036    9.8571   18.4133 C   0  0  0  0  0  0  0  0  0  0  0  0
    8.3694    7.6612   22.6703 C   0  0  0  0  0  0  0  0  0  0  0  0
    8.4143    6.6863   16.2273 C   0  0  0  0  0  0  0  0  0  0  0  0
   10.7581    6.5674   21.7636 C   0  0  0  0  0  0  0  0  0  0  0  0
    8.4452    8.7960   19.2958 O   0  0  0  0  0  0  0  0  0  0  0  0
    8.7122    6.7842   24.8569 C   0  0  0  0  0  0  0  0  0  0  0  0
   10.3400    6.1726   14.3081 C   0  0  0  0  0  0  0  0  0  0  0  0
    7.4297    7.5873   24.8962 C   0  0  0  0  0  0  0  0  0  0  0  0
    8.1566   10.0536   16.0516 O   0  0  0  0  0  0  0  0  0  0  0  0
   12.4989    6.2074   20.1776 C   0  0  0  0  0  0  0  0  0  0  0  0
    6.9192    9.1053   20.9073 O   0  0  0  0  0  0  0  0  0  0  0  0
   14.3979    6.0729   18.7784 C   0  0  0  0  0  0  0  0  0  0  0  0
    8.6811    9.5354   16.9998 C   0  0  0  0  0  0  0  0  0  0  0  0
    9.2512    4.2713   13.7653 O   0  0  0  0  0  0  0  0  0  0  0  0
    9.6495    8.6317   16.8332 N   0  0  0  0  0  0  0  0  0  0  0  0
    6.2934    8.6988   23.1988 O   0  0  0  0  0  0  0  0  0  0  0  0
    7.9806    8.6543   20.5437 C   0  0  0  0  0  0  0  0  0  0  0  0
   13.7270    5.7144   19.8610 O   0  0  0  0  0  0  0  0  0  0  0  0
    8.3351    5.5235   15.4478 C   0  0  0  0  0  0  0  0  0  0  0  0
    8.7700    7.8434   21.3915 C   0  0  0  0  0  0  0  0  0  0  0  0
   11.7856    6.8851   19.2401 C   0  0  0  0  0  0  0  0  0  0  0  0
   10.5281    7.4276   19.5649 C   0  0  0  0  0  0  0  0  0  0  0  0
   10.0256    7.2907   20.8484 C   0  0  0  0  0  0  0  0  0  0  0  0
    9.3113    5.3049   14.4911 C   0  0  0  0  0  0  0  0  0  0  0  0
    9.4607    7.5646   16.0139 C   0  0  0  0  0  0  0  0  0  0  0  0
   10.4192    7.3157   15.0955 C   0  0  0  0  0  0  0  0  0  0  0  0
   10.2489    6.4227   23.0218 N   0  0  0  0  0  0  0  0  0  0  0  0
    7.2472    8.0746   23.5050 C   0  0  0  0  0  0  0  0  0  0  0  0
    9.2051    6.9101   23.4604 C   0  0  0  0  0  0  0  0  0  0  0  0
   11.9646    6.0299   21.4251 C   0  0  0  0  0  0  0  0  0  0  0  0
  1  5  1  0
  1 13  1  0
  2 20  2  0
  2 28  1  0
  2 29  1  0
  3 19  4  0
  3 25  4  0
  4 23  4  0
  4 27  1  0
  4 30  4  0
  5 17  1  0
  6  8  1  0
  6 29  1  0
  7 24  4  0
  7 26  4  0
  8 28  1  0
  9 13  2  0
 10 18  1  0
 10 21  4  0
 10 30  4  0
 11 17  2  0
 12 18  1  0
 13 15  1  0
 14 24  1  0
 15 25  1  0
 16 28  2  0
 17 20  1  0
 19 24  4  0
 20 23  1  0
 21 22  4  0
 22 23  4  0
 25 26  4  0
 27 29  2  0
M  END
$$$$

 Created by Python create_sdf_string function

 30 33  0  0  0  0  0  0  0  0999 V2000
    8.3036    9.8571   18.4133 C   0  0  0  0  0  0  0  0  0  0  0  0
    8.3694    7.6612   22.6703 C   0  0  0  0  0  0  0  0  0  0  0  0
    8.4143    6.6863   16.2273 C   0  0  0  0  0  0  0  0  0  0  0  0
   10.7581    6.5674   21.7636 C   0  0  0  0  0  0  0  0  0  0  0  0
    8.4452    8.7960   19.2958 O   0  0  0  0  0  0  0  0  0  0  0  0
    8.7122    6.7842   24.8569 C   0  0  0  0  0  0  0  0  0  0  0  0
   10.3400    6.1726   14.3081 C   0  0  0  0  0  0  0  0  0  0  0  0
    7.4297    7.5873   24.8962 C   0  0  0  0  0  0  0  0  0  0  0  0
    8.1566   10.0536   16.0516 O   0  0  0  0  0  0  0  0  0  0  0  0
   12.4989    6.2074   20.1776 C   0  0  0  0  0  0  0  0  0  0  0  0
    6.9192    9.1053   20.9073 O   0  0  0  0  0  0  0  0  0  0  0  0
   14.3979    6.0729   18.7784 C   0  0  0  0  0  0  0  0  0  0  0  0
    8.6811    9.5354   16.9998 C   0  0  0  0  0  0  0  0  0  0  0  0
    9.2512    4.2713   13.7653 O   0  0  0  0  0  0  0  0  0  0  0  0
    9.6495    8.6317   16.8332 N   0  0  0  0  0  0  0  0  0  0  0  0
    6.2934    8.6988   23.1988 O   0  0  0  0  0  0  0  0  0  0  0  0
    7.9806    8.6543   20.5437 C   0  0  0  0  0  0  0  0  0  0  0  0
   13.7270    5.7144   19.8610 O   0  0  0  0  0  0  0  0  0  0  0  0
    8.3351    5.5235   15.4478 C   0  0  0  0  0  0  0  0  0  0  0  0
    8.7700    7.8434   21.3915 C   0  0  0  0  0  0  0  0  0  0  0  0
   11.7856    6.8851   19.2401 C   0  0  0  0  0  0  0  0  0  0  0  0
   10.5281    7.4276   19.5649 C   0  0  0  0  0  0  0  0  0  0  0  0
   10.0256    7.2907   20.8484 C   0  0  0  0  0  0  0  0  0  0  0  0
    9.3113    5.3049   14.4911 C   0  0  0  0  0  0  0  0  0  0  0  0
    9.4607    7.5646   16.0139 C   0  0  0  0  0  0  0  0  0  0  0  0
   10.4192    7.3157   15.0955 C   0  0  0  0  0  0  0  0  0  0  0  0
   10.2489    6.4227   23.0218 N   0  0  0  0  0  0  0  0  0  0  0  0
    7.2472    8.0746   23.5050 C   0  0  0  0  0  0  0  0  0  0  0  0
    9.2051    6.9101   23.4604 C   0  0  0  0  0  0  0  0  0  0  0  0
   11.9646    6.0299   21.4251 C   0  0  0  0  0  0  0  0  0  0  0  0
  1  5  1  0
  1 13  1  0
  2 20  2  0
  2 28  1  0
  2 29  1  0
  3 19  4  0
  3 25  4  0
  4 23  4  0
  4 27  1  0
  4 30  4  0
  5 17  1  0
  6  8  1  0
  6 29  1  0
  7 24  4  0
  7 26  4  0
  8 28  1  0
  9 13  2  0
 10 18  1  0
 10 21  4  0
 10 30  4  0
 11 17  2  0
 12 18  1  0
 13 15  1  0
 14 24  1  0
 15 25  1  0
 16 28  2  0
 17 20  1  0
 19 24  4  0
 20 23  1  0
 21 22  4  0
 22 23  4  0
 25 26  4  0
 27 29  2  0
M  END
$$$$

 Created by Python create_sdf_string function

 30 33  0  0  0  0  0  0  0  0999 V2000
    8.3036    9.8571   18.4133 C   0  0  0  0  0  0  0  0  0  0  0  0
    8.3694    7.6612   22.6703 C   0  0  0  0  0  0  0  0  0  0  0  0
    8.4143    6.6863   16.2273 C   0  0  0  0  0  0  0  0  0  0  0  0
   10.7581    6.5674   21.7636 C   0  0  0  0  0  0  0  0  0  0  0  0
    8.4452    8.7960   19.2958 O   0  0  0  0  0  0  0  0  0  0  0  0
    8.7122    6.7842   24.8569 C   0  0  0  0  0  0  0  0  0  0  0  0
   10.3400    6.1726   14.3081 C   0  0  0  0  0  0  0  0  0  0  0  0
    7.4297    7.5873   24.8962 C   0  0  0  0  0  0  0  0  0  0  0  0
    8.1566   10.0536   16.0516 O   0  0  0  0  0  0  0  0  0  0  0  0
   12.4989    6.2074   20.1776 C   0  0  0  0  0  0  0  0  0  0  0  0
    6.9192    9.1053   20.9073 O   0  0  0  0  0  0  0  0  0  0  0  0
   14.3979    6.0729   18.7784 C   0  0  0  0  0  0  0  0  0  0  0  0
    8.6811    9.5354   16.9998 C   0  0  0  0  0  0  0  0  0  0  0  0
    9.2512    4.2713   13.7653 O   0  0  0  0  0  0  0  0  0  0  0  0
    9.6495    8.6317   16.8332 N   0  0  0  0  0  0  0  0  0  0  0  0
    6.2934    8.6988   23.1988 O   0  0  0  0  0  0  0  0  0  0  0  0
    7.9806    8.6543   20.5437 C   0  0  0  0  0  0  0  0  0  0  0  0
   13.7270    5.7144   19.8610 O   0  0  0  0  0  0  0  0  0  0  0  0
    8.3351    5.5235   15.4478 C   0  0  0  0  0  0  0  0  0  0  0  0
    8.7700    7.8434   21.3915 C   0  0  0  0  0  0  0  0  0  0  0  0
   11.7856    6.8851   19.2401 C   0  0  0  0  0  0  0  0  0  0  0  0
   10.5281    7.4276   19.5649 C   0  0  0  0  0  0  0  0  0  0  0  0
   10.0256    7.2907   20.8484 C   0  0  0  0  0  0  0  0  0  0  0  0
    9.3113    5.3049   14.4911 C   0  0  0  0  0  0  0  0  0  0  0  0
    9.4607    7.5646   16.0139 C   0  0  0  0  0  0  0  0  0  0  0  0
   10.4192    7.3157   15.0955 C   0  0  0  0  0  0  0  0  0  0  0  0
   10.2489    6.4227   23.0218 N   0  0  0  0  0  0  0  0  0  0  0  0
    7.2472    8.0746   23.5050 C   0  0  0  0  0  0  0  0  0  0  0  0
    9.2051    6.9101   23.4604 C   0  0  0  0  0  0  0  0  0  0  0  0
   11.9646    6.0299   21.4251 C   0  0  0  0  0  0  0  0  0  0  0  0
  1  5  1  0
  1 13  1  0
  2 20  2  0
  2 28  1  0
  2 29  1  0
  3 19  4  0
  3 25  4  0
  4 23  4  0
  4 27  1  0
  4 30  4  0
  5 17  1  0
  6  8  1  0
  6 29  1  0
  7 24  4  0
  7 26  4  0
  8 28  1  0
  9 13  2  0
 10 18  1  0
 10 21  4  0
 10 30  4  0
 11 17  2  0
 12 18  1  0
 13 15  1  0
 14 24  1  0
 15 25  1  0
 16 28  2  0
 17 20  1  0
 19 24  4  0
 20 23  1  0
 21 22  4  0
 22 23  4  0
 25 26  4  0
 27 29  2  0
M  END
$$$$

 Created by Python create_sdf_string function

 30 33  0  0  0  0  0  0  0  0999 V2000
    8.3036    9.8571   18.4133 C   0  0  0  0  0  0  0  0  0  0  0  0
    8.3694    7.6612   22.6703 C   0  0  0  0  0  0  0  0  0  0  0  0
    8.4143    6.6863   16.2273 C   0  0  0  0  0  0  0  0  0  0  0  0
   10.7581    6.5674   21.7636 C   0  0  0  0  0  0  0  0  0  0  0  0
    8.4452    8.7960   19.2958 O   0  0  0  0  0  0  0  0  0  0  0  0
    8.7122    6.7842   24.8569 C   0  0  0  0  0  0  0  0  0  0  0  0
   10.3400    6.1726   14.3081 C   0  0  0  0  0  0  0  0  0  0  0  0
    7.4297    7.5873   24.8962 C   0  0  0  0  0  0  0  0  0  0  0  0
    8.1566   10.0536   16.0516 O   0  0  0  0  0  0  0  0  0  0  0  0
   12.4989    6.2074   20.1776 C   0  0  0  0  0  0  0  0  0  0  0  0
    6.9192    9.1053   20.9073 O   0  0  0  0  0  0  0  0  0  0  0  0
   14.3979    6.0729   18.7784 C   0  0  0  0  0  0  0  0  0  0  0  0
    8.6811    9.5354   16.9998 C   0  0  0  0  0  0  0  0  0  0  0  0
    9.2512    4.2713   13.7653 O   0  0  0  0  0  0  0  0  0  0  0  0
    9.6495    8.6317   16.8332 N   0  0  0  0  0  0  0  0  0  0  0  0
    6.2934    8.6988   23.1988 O   0  0  0  0  0  0  0  0  0  0  0  0
    7.9806    8.6543   20.5437 C   0  0  0  0  0  0  0  0  0  0  0  0
   13.7270    5.7144   19.8610 O   0  0  0  0  0  0  0  0  0  0  0  0
    8.3351    5.5235   15.4478 C   0  0  0  0  0  0  0  0  0  0  0  0
    8.7700    7.8434   21.3915 C   0  0  0  0  0  0  0  0  0  0  0  0
   11.7856    6.8851   19.2401 C   0  0  0  0  0  0  0  0  0  0  0  0
   10.5281    7.4276   19.5649 C   0  0  0  0  0  0  0  0  0  0  0  0
   10.0256    7.2907   20.8484 C   0  0  0  0  0  0  0  0  0  0  0  0
    9.3113    5.3049   14.4911 C   0  0  0  0  0  0  0  0  0  0  0  0
    9.4607    7.5646   16.0139 C   0  0  0  0  0  0  0  0  0  0  0  0
   10.4192    7.3157   15.0955 C   0  0  0  0  0  0  0  0  0  0  0  0
   10.2489    6.4227   23.0218 N   0  0  0  0  0  0  0  0  0  0  0  0
    7.2472    8.0746   23.5050 C   0  0  0  0  0  0  0  0  0  0  0  0
    9.2051    6.9101   23.4604 C   0  0  0  0  0  0  0  0  0  0  0  0
   11.9646    6.0299   21.4251 C   0  0  0  0  0  0  0  0  0  0  0  0
  1  5  1  0
  1 13  1  0
  2 20  2  0
  2 28  1  0
  2 29  1  0
  3 19  4  0
  3 25  4  0
  4 23  4  0
  4 27  1  0
  4 30  4  0
  5 17  1  0
  6  8  1  0
  6 29  1  0
  7 24  4  0
  7 26  4  0
  8 28  1  0
  9 13  2  0
 10 18  1  0
 10 21  4  0
 10 30  4  0
 11 17  2  0
 12 18  1  0
 13 15  1  0
 14 24  1  0
 15 25  1  0
 16 28  2  0
 17 20  1  0
 19 24  4  0
 20 23  1  0
 21 22  4  0
 22 23  4  0
 25 26  4  0
 27 29  2  0
M  END
$$$$

 Created by Python create_sdf_string function

 30 33  0  0  0  0  0  0  0  0999 V2000
    8.3036    9.8571   18.4133 C   0  0  0  0  0  0  0  0  0  0  0  0
    8.3694    7.6612   22.6703 C   0  0  0  0  0  0  0  0  0  0  0  0
    8.4143    6.6863   16.2273 C   0  0  0  0  0  0  0  0  0  0  0  0
   10.7581    6.5674   21.7636 C   0  0  0  0  0  0  0  0  0  0  0  0
    8.4452    8.7960   19.2958 O   0  0  0  0  0  0  0  0  0  0  0  0
    8.7122    6.7842   24.8569 C   0  0  0  0  0  0  0  0  0  0  0  0
   10.3400    6.1726   14.3081 C   0  0  0  0  0  0  0  0  0  0  0  0
    7.4297    7.5873   24.8962 C   0  0  0  0  0  0  0  0  0  0  0  0
    8.1566   10.0536   16.0516 O   0  0  0  0  0  0  0  0  0  0  0  0
   12.4989    6.2074   20.1776 C   0  0  0  0  0  0  0  0  0  0  0  0
    6.9192    9.1053   20.9073 O   0  0  0  0  0  0  0  0  0  0  0  0
   14.3979    6.0729   18.7784 C   0  0  0  0  0  0  0  0  0  0  0  0
    8.6811    9.5354   16.9998 C   0  0  0  0  0  0  0  0  0  0  0  0
    9.2512    4.2713   13.7653 O   0  0  0  0  0  0  0  0  0  0  0  0
    9.6495    8.6317   16.8332 N   0  0  0  0  0  0  0  0  0  0  0  0
    6.2934    8.6988   23.1988 O   0  0  0  0  0  0  0  0  0  0  0  0
    7.9806    8.6543   20.5437 C   0  0  0  0  0  0  0  0  0  0  0  0
   13.7270    5.7144   19.8610 O   0  0  0  0  0  0  0  0  0  0  0  0
    8.3351    5.5235   15.4478 C   0  0  0  0  0  0  0  0  0  0  0  0
    8.7700    7.8434   21.3915 C   0  0  0  0  0  0  0  0  0  0  0  0
   11.7856    6.8851   19.2401 C   0  0  0  0  0  0  0  0  0  0  0  0
   10.5281    7.4276   19.5649 C   0  0  0  0  0  0  0  0  0  0  0  0
   10.0256    7.2907   20.8484 C   0  0  0  0  0  0  0  0  0  0  0  0
    9.3113    5.3049   14.4911 C   0  0  0  0  0  0  0  0  0  0  0  0
    9.4607    7.5646   16.0139 C   0  0  0  0  0  0  0  0  0  0  0  0
   10.4192    7.3157   15.0955 C   0  0  0  0  0  0  0  0  0  0  0  0
   10.2489    6.4227   23.0218 N   0  0  0  0  0  0  0  0  0  0  0  0
    7.2472    8.0746   23.5050 C   0  0  0  0  0  0  0  0  0  0  0  0
    9.2051    6.9101   23.4604 C   0  0  0  0  0  0  0  0  0  0  0  0
   11.9646    6.0299   21.4251 C   0  0  0  0  0  0  0  0  0  0  0  0
  1  5  1  0
  1 13  1  0
  2 20  2  0
  2 28  1  0
  2 29  1  0
  3 19  4  0
  3 25  4  0
  4 23  4  0
  4 27  1  0
  4 30  4  0
  5 17  1  0
  6  8  1  0
  6 29  1  0
  7 24  4  0
  7 26  4  0
  8 28  1  0
  9 13  2  0
 10 18  1  0
 10 21  4  0
 10 30  4  0
 11 17  2  0
 12 18  1  0
 13 15  1  0
 14 24  1  0
 15 25  1  0
 16 28  2  0
 17 20  1  0
 19 24  4  0
 20 23  1  0
 21 22  4  0
 22 23  4  0
 25 26  4  0
 27 29  2  0
M  END
$$$$

 Created by Python create_sdf_string function

 30 33  0  0  0  0  0  0  0  0999 V2000
    8.3036    9.8571   18.4133 C   0  0  0  0  0  0  0  0  0  0  0  0
    8.3694    7.6612   22.6703 C   0  0  0  0  0  0  0  0  0  0  0  0
    8.4143    6.6863   16.2273 C   0  0  0  0  0  0  0  0  0  0  0  0
   10.7581    6.5674   21.7636 C   0  0  0  0  0  0  0  0  0  0  0  0
    8.4452    8.7960   19.2958 O   0  0  0  0  0  0  0  0  0  0  0  0
    8.7122    6.7842   24.8569 C   0  0  0  0  0  0  0  0  0  0  0  0
   10.3400    6.1726   14.3081 C   0  0  0  0  0  0  0  0  0  0  0  0
    7.4297    7.5873   24.8962 C   0  0  0  0  0  0  0  0  0  0  0  0
    8.1566   10.0536   16.0516 O   0  0  0  0  0  0  0  0  0  0  0  0
   12.4989    6.2074   20.1776 C   0  0  0  0  0  0  0  0  0  0  0  0
    6.9192    9.1053   20.9073 O   0  0  0  0  0  0  0  0  0  0  0  0
   14.3979    6.0729   18.7784 C   0  0  0  0  0  0  0  0  0  0  0  0
    8.6811    9.5354   16.9998 C   0  0  0  0  0  0  0  0  0  0  0  0
    9.2512    4.2713   13.7653 O   0  0  0  0  0  0  0  0  0  0  0  0
    9.6495    8.6317   16.8332 N   0  0  0  0  0  0  0  0  0  0  0  0
    6.2934    8.6988   23.1988 O   0  0  0  0  0  0  0  0  0  0  0  0
    7.9806    8.6543   20.5437 C   0  0  0  0  0  0  0  0  0  0  0  0
   13.7270    5.7144   19.8610 O   0  0  0  0  0  0  0  0  0  0  0  0
    8.3351    5.5235   15.4478 C   0  0  0  0  0  0  0  0  0  0  0  0
    8.7700    7.8434   21.3915 C   0  0  0  0  0  0  0  0  0  0  0  0
   11.7856    6.8851   19.2401 C   0  0  0  0  0  0  0  0  0  0  0  0
   10.5281    7.4276   19.5649 C   0  0  0  0  0  0  0  0  0  0  0  0
   10.0256    7.2907   20.8484 C   0  0  0  0  0  0  0  0  0  0  0  0
    9.3113    5.3049   14.4911 C   0  0  0  0  0  0  0  0  0  0  0  0
    9.4607    7.5646   16.0139 C   0  0  0  0  0  0  0  0  0  0  0  0
   10.4192    7.3157   15.0955 C   0  0  0  0  0  0  0  0  0  0  0  0
   10.2489    6.4227   23.0218 N   0  0  0  0  0  0  0  0  0  0  0  0
    7.2472    8.0746   23.5050 C   0  0  0  0  0  0  0  0  0  0  0  0
    9.2051    6.9101   23.4604 C   0  0  0  0  0  0  0  0  0  0  0  0
   11.9646    6.0299   21.4251 C   0  0  0  0  0  0  0  0  0  0  0  0
  1  5  1  0
  1 13  1  0
  2 20  2  0
  2 28  1  0
  2 29  1  0
  3 19  4  0
  3 25  4  0
  4 23  4  0
  4 27  1  0
  4 30  4  0
  5 17  1  0
  6  8  1  0
  6 29  1  0
  7 24  4  0
  7 26  4  0
  8 28  1  0
  9 13  2  0
 10 18  1  0
 10 21  4  0
 10 30  4  0
 11 17  2  0
 12 18  1  0
 13 15  1  0
 14 24  1  0
 15 25  1  0
 16 28  2  0
 17 20  1  0
 19 24  4  0
 20 23  1  0
 21 22  4  0
 22 23  4  0
 25 26  4  0
 27 29  2  0
M  END
$$$$

 Created by Python create_sdf_string function

 30 33  0  0  0  0  0  0  0  0999 V2000
    8.3036    9.8571   18.4133 C   0  0  0  0  0  0  0  0  0  0  0  0
    8.3694    7.6612   22.6703 C   0  0  0  0  0  0  0  0  0  0  0  0
    8.4143    6.6863   16.2273 C   0  0  0  0  0  0  0  0  0  0  0  0
   10.7581    6.5674   21.7636 C   0  0  0  0  0  0  0  0  0  0  0  0
    8.4452    8.7960   19.2958 O   0  0  0  0  0  0  0  0  0  0  0  0
    8.7122    6.7842   24.8569 C   0  0  0  0  0  0  0  0  0  0  0  0
   10.3400    6.1726   14.3081 C   0  0  0  0  0  0  0  0  0  0  0  0
    7.4297    7.5873   24.8962 C   0  0  0  0  0  0  0  0  0  0  0  0
    8.1566   10.0536   16.0516 O   0  0  0  0  0  0  0  0  0  0  0  0
   12.4989    6.2074   20.1776 C   0  0  0  0  0  0  0  0  0  0  0  0
    6.9192    9.1053   20.9073 O   0  0  0  0  0  0  0  0  0  0  0  0
   14.3979    6.0729   18.7784 C   0  0  0  0  0  0  0  0  0  0  0  0
    8.6811    9.5354   16.9998 C   0  0  0  0  0  0  0  0  0  0  0  0
    9.2512    4.2713   13.7653 O   0  0  0  0  0  0  0  0  0  0  0  0
    9.6495    8.6317   16.8332 N   0  0  0  0  0  0  0  0  0  0  0  0
    6.2934    8.6988   23.1988 O   0  0  0  0  0  0  0  0  0  0  0  0
    7.9806    8.6543   20.5437 C   0  0  0  0  0  0  0  0  0  0  0  0
   13.7270    5.7144   19.8610 O   0  0  0  0  0  0  0  0  0  0  0  0
    8.3351    5.5235   15.4478 C   0  0  0  0  0  0  0  0  0  0  0  0
    8.7700    7.8434   21.3915 C   0  0  0  0  0  0  0  0  0  0  0  0
   11.7856    6.8851   19.2401 C   0  0  0  0  0  0  0  0  0  0  0  0
   10.5281    7.4276   19.5649 C   0  0  0  0  0  0  0  0  0  0  0  0
   10.0256    7.2907   20.8484 C   0  0  0  0  0  0  0  0  0  0  0  0
    9.3113    5.3049   14.4911 C   0  0  0  0  0  0  0  0  0  0  0  0
    9.4607    7.5646   16.0139 C   0  0  0  0  0  0  0  0  0  0  0  0
   10.4192    7.3157   15.0955 C   0  0  0  0  0  0  0  0  0  0  0  0
   10.2489    6.4227   23.0218 N   0  0  0  0  0  0  0  0  0  0  0  0
    7.2472    8.0746   23.5050 C   0  0  0  0  0  0  0  0  0  0  0  0
    9.2051    6.9101   23.4604 C   0  0  0  0  0  0  0  0  0  0  0  0
   11.9646    6.0299   21.4251 C   0  0  0  0  0  0  0  0  0  0  0  0
  1  5  1  0
  1 13  1  0
  2 20  2  0
  2 28  1  0
  2 29  1  0
  3 19  4  0
  3 25  4  0
  4 23  4  0
  4 27  1  0
  4 30  4  0
  5 17  1  0
  6  8  1  0
  6 29  1  0
  7 24  4  0
  7 26  4  0
  8 28  1  0
  9 13  2  0
 10 18  1  0
 10 21  4  0
 10 30  4  0
 11 17  2  0
 12 18  1  0
 13 15  1  0
 14 24  1  0
 15 25  1  0
 16 28  2  0
 17 20  1  0
 19 24  4  0
 20 23  1  0
 21 22  4  0
 22 23  4  0
 25 26  4  0
 27 29  2  0
M  END
$$$$

 Created by Python create_sdf_string function

 30 33  0  0  0  0  0  0  0  0999 V2000
    8.3036    9.8571   18.4133 C   0  0  0  0  0  0  0  0  0  0  0  0
    8.3694    7.6612   22.6703 C   0  0  0  0  0  0  0  0  0  0  0  0
    8.4143    6.6863   16.2273 C   0  0  0  0  0  0  0  0  0  0  0  0
   10.7581    6.5674   21.7636 C   0  0  0  0  0  0  0  0  0  0  0  0
    8.4452    8.7960   19.2958 O   0  0  0  0  0  0  0  0  0  0  0  0
    8.7122    6.7842   24.8569 C   0  0  0  0  0  0  0  0  0  0  0  0
   10.3400    6.1726   14.3081 C   0  0  0  0  0  0  0  0  0  0  0  0
    7.4297    7.5873   24.8962 C   0  0  0  0  0  0  0  0  0  0  0  0
    8.1566   10.0536   16.0516 O   0  0  0  0  0  0  0  0  0  0  0  0
   12.4989    6.2074   20.1776 C   0  0  0  0  0  0  0  0  0  0  0  0
    6.9192    9.1053   20.9073 O   0  0  0  0  0  0  0  0  0  0  0  0
   14.3979    6.0729   18.7784 C   0  0  0  0  0  0  0  0  0  0  0  0
    8.6811    9.5354   16.9998 C   0  0  0  0  0  0  0  0  0  0  0  0
    9.2512    4.2713   13.7653 O   0  0  0  0  0  0  0  0  0  0  0  0
    9.6495    8.6317   16.8332 N   0  0  0  0  0  0  0  0  0  0  0  0
    6.2934    8.6988   23.1988 O   0  0  0  0  0  0  0  0  0  0  0  0
    7.9806    8.6543   20.5437 C   0  0  0  0  0  0  0  0  0  0  0  0
   13.7270    5.7144   19.8610 O   0  0  0  0  0  0  0  0  0  0  0  0
    8.3351    5.5235   15.4478 C   0  0  0  0  0  0  0  0  0  0  0  0
    8.7700    7.8434   21.3915 C   0  0  0  0  0  0  0  0  0  0  0  0
   11.7856    6.8851   19.2401 C   0  0  0  0  0  0  0  0  0  0  0  0
   10.5281    7.4276   19.5649 C   0  0  0  0  0  0  0  0  0  0  0  0
   10.0256    7.2907   20.8484 C   0  0  0  0  0  0  0  0  0  0  0  0
    9.3113    5.3049   14.4911 C   0  0  0  0  0  0  0  0  0  0  0  0
    9.4607    7.5646   16.0139 C   0  0  0  0  0  0  0  0  0  0  0  0
   10.4192    7.3157   15.0955 C   0  0  0  0  0  0  0  0  0  0  0  0
   10.2489    6.4227   23.0218 N   0  0  0  0  0  0  0  0  0  0  0  0
    7.2472    8.0746   23.5050 C   0  0  0  0  0  0  0  0  0  0  0  0
    9.2051    6.9101   23.4604 C   0  0  0  0  0  0  0  0  0  0  0  0
   11.9646    6.0299   21.4251 C   0  0  0  0  0  0  0  0  0  0  0  0
  1  5  1  0
  1 13  1  0
  2 20  2  0
  2 28  1  0
  2 29  1  0
  3 19  4  0
  3 25  4  0
  4 23  4  0
  4 27  1  0
  4 30  4  0
  5 17  1  0
  6  8  1  0
  6 29  1  0
  7 24  4  0
  7 26  4  0
  8 28  1  0
  9 13  2  0
 10 18  1  0
 10 21  4  0
 10 30  4  0
 11 17  2  0
 12 18  1  0
 13 15  1  0
 14 24  1  0
 15 25  1  0
 16 28  2  0
 17 20  1  0
 19 24  4  0
 20 23  1  0
 21 22  4  0
 22 23  4  0
 25 26  4  0
 27 29  2  0
M  END
$$$$

 Created by Python create_sdf_string function

 30 33  0  0  0  0  0  0  0  0999 V2000
    8.3036    9.8571   18.4133 C   0  0  0  0  0  0  0  0  0  0  0  0
    8.3694    7.6612   22.6703 C   0  0  0  0  0  0  0  0  0  0  0  0
    8.4143    6.6863   16.2273 C   0  0  0  0  0  0  0  0  0  0  0  0
   10.7581    6.5674   21.7636 C   0  0  0  0  0  0  0  0  0  0  0  0
    8.4452    8.7960   19.2958 O   0  0  0  0  0  0  0  0  0  0  0  0
    8.7122    6.7842   24.8569 C   0  0  0  0  0  0  0  0  0  0  0  0
   10.3400    6.1726   14.3081 C   0  0  0  0  0  0  0  0  0  0  0  0
    7.4297    7.5873   24.8962 C   0  0  0  0  0  0  0  0  0  0  0  0
    8.1566   10.0536   16.0516 O   0  0  0  0  0  0  0  0  0  0  0  0
   12.4989    6.2074   20.1776 C   0  0  0  0  0  0  0  0  0  0  0  0
    6.9192    9.1053   20.9073 O   0  0  0  0  0  0  0  0  0  0  0  0
   14.3979    6.0729   18.7784 C   0  0  0  0  0  0  0  0  0  0  0  0
    8.6811    9.5354   16.9998 C   0  0  0  0  0  0  0  0  0  0  0  0
    9.2512    4.2713   13.7653 O   0  0  0  0  0  0  0  0  0  0  0  0
    9.6495    8.6317   16.8332 N   0  0  0  0  0  0  0  0  0  0  0  0
    6.2934    8.6988   23.1988 O   0  0  0  0  0  0  0  0  0  0  0  0
    7.9806    8.6543   20.5437 C   0  0  0  0  0  0  0  0  0  0  0  0
   13.7270    5.7144   19.8610 O   0  0  0  0  0  0  0  0  0  0  0  0
    8.3351    5.5235   15.4478 C   0  0  0  0  0  0  0  0  0  0  0  0
    8.7700    7.8434   21.3915 C   0  0  0  0  0  0  0  0  0  0  0  0
   11.7856    6.8851   19.2401 C   0  0  0  0  0  0  0  0  0  0  0  0
   10.5281    7.4276   19.5649 C   0  0  0  0  0  0  0  0  0  0  0  0
   10.0256    7.2907   20.8484 C   0  0  0  0  0  0  0  0  0  0  0  0
    9.3113    5.3049   14.4911 C   0  0  0  0  0  0  0  0  0  0  0  0
    9.4607    7.5646   16.0139 C   0  0  0  0  0  0  0  0  0  0  0  0
   10.4192    7.3157   15.0955 C   0  0  0  0  0  0  0  0  0  0  0  0
   10.2489    6.4227   23.0218 N   0  0  0  0  0  0  0  0  0  0  0  0
    7.2472    8.0746   23.5050 C   0  0  0  0  0  0  0  0  0  0  0  0
    9.2051    6.9101   23.4604 C   0  0  0  0  0  0  0  0  0  0  0  0
   11.9646    6.0299   21.4251 C   0  0  0  0  0  0  0  0  0  0  0  0
  1  5  1  0
  1 13  1  0
  2 20  2  0
  2 28  1  0
  2 29  1  0
  3 19  4  0
  3 25  4  0
  4 23  4  0
  4 27  1  0
  4 30  4  0
  5 17  1  0
  6  8  1  0
  6 29  1  0
  7 24  4  0
  7 26  4  0
  8 28  1  0
  9 13  2  0
 10 18  1  0
 10 21  4  0
 10 30  4  0
 11 17  2  0
 12 18  1  0
 13 15  1  0
 14 24  1  0
 15 25  1  0
 16 28  2  0
 17 20  1  0
 19 24  4  0
 20 23  1  0
 21 22  4  0
 22 23  4  0
 25 26  4  0
 27 29  2  0
M  END
$$$$

 Created by Python create_sdf_string function

 30 33  0  0  0  0  0  0  0  0999 V2000
    8.3036    9.8571   18.4133 C   0  0  0  0  0  0  0  0  0  0  0  0
    8.3694    7.6612   22.6703 C   0  0  0  0  0  0  0  0  0  0  0  0
    8.4143    6.6863   16.2273 C   0  0  0  0  0  0  0  0  0  0  0  0
   10.7581    6.5674   21.7636 C   0  0  0  0  0  0  0  0  0  0  0  0
    8.4452    8.7960   19.2958 O   0  0  0  0  0  0  0  0  0  0  0  0
    8.7122    6.7842   24.8569 C   0  0  0  0  0  0  0  0  0  0  0  0
   10.3400    6.1726   14.3081 C   0  0  0  0  0  0  0  0  0  0  0  0
    7.4297    7.5873   24.8962 C   0  0  0  0  0  0  0  0  0  0  0  0
    8.1566   10.0536   16.0516 O   0  0  0  0  0  0  0  0  0  0  0  0
   12.4989    6.2074   20.1776 C   0  0  0  0  0  0  0  0  0  0  0  0
    6.9192    9.1053   20.9073 O   0  0  0  0  0  0  0  0  0  0  0  0
   14.3979    6.0729   18.7784 C   0  0  0  0  0  0  0  0  0  0  0  0
    8.6811    9.5354   16.9998 C   0  0  0  0  0  0  0  0  0  0  0  0
    9.2512    4.2713   13.7653 O   0  0  0  0  0  0  0  0  0  0  0  0
    9.6495    8.6317   16.8332 N   0  0  0  0  0  0  0  0  0  0  0  0
    6.2934    8.6988   23.1988 O   0  0  0  0  0  0  0  0  0  0  0  0
    7.9806    8.6543   20.5437 C   0  0  0  0  0  0  0  0  0  0  0  0
   13.7270    5.7144   19.8610 O   0  0  0  0  0  0  0  0  0  0  0  0
    8.3351    5.5235   15.4478 C   0  0  0  0  0  0  0  0  0  0  0  0
    8.7700    7.8434   21.3915 C   0  0  0  0  0  0  0  0  0  0  0  0
   11.7856    6.8851   19.2401 C   0  0  0  0  0  0  0  0  0  0  0  0
   10.5281    7.4276   19.5649 C   0  0  0  0  0  0  0  0  0  0  0  0
   10.0256    7.2907   20.8484 C   0  0  0  0  0  0  0  0  0  0  0  0
    9.3113    5.3049   14.4911 C   0  0  0  0  0  0  0  0  0  0  0  0
    9.4607    7.5646   16.0139 C   0  0  0  0  0  0  0  0  0  0  0  0
   10.4192    7.3157   15.0955 C   0  0  0  0  0  0  0  0  0  0  0  0
   10.2489    6.4227   23.0218 N   0  0  0  0  0  0  0  0  0  0  0  0
    7.2472    8.0746   23.5050 C   0  0  0  0  0  0  0  0  0  0  0  0
    9.2051    6.9101   23.4604 C   0  0  0  0  0  0  0  0  0  0  0  0
   11.9646    6.0299   21.4251 C   0  0  0  0  0  0  0  0  0  0  0  0
  1  5  1  0
  1 13  1  0
  2 20  2  0
  2 28  1  0
  2 29  1  0
  3 19  4  0
  3 25  4  0
  4 23  4  0
  4 27  1  0
  4 30  4  0
  5 17  1  0
  6  8  1  0
  6 29  1  0
  7 24  4  0
  7 26  4  0
  8 28  1  0
  9 13  2  0
 10 18  1  0
 10 21  4  0
 10 30  4  0
 11 17  2  0
 12 18  1  0
 13 15  1  0
 14 24  1  0
 15 25  1  0
 16 28  2  0
 17 20  1  0
 19 24  4  0
 20 23  1  0
 21 22  4  0
 22 23  4  0
 25 26  4  0
 27 29  2  0
M  END
$$$$

 Created by Python create_sdf_string function

 30 33  0  0  0  0  0  0  0  0999 V2000
    8.3036    9.8571   18.4133 C   0  0  0  0  0  0  0  0  0  0  0  0
    8.3694    7.6612   22.6703 C   0  0  0  0  0  0  0  0  0  0  0  0
    8.4143    6.6863   16.2273 C   0  0  0  0  0  0  0  0  0  0  0  0
   10.7581    6.5674   21.7636 C   0  0  0  0  0  0  0  0  0  0  0  0
    8.4452    8.7960   19.2958 O   0  0  0  0  0  0  0  0  0  0  0  0
    8.7122    6.7842   24.8569 C   0  0  0  0  0  0  0  0  0  0  0  0
   10.3400    6.1726   14.3081 C   0  0  0  0  0  0  0  0  0  0  0  0
    7.4297    7.5873   24.8962 C   0  0  0  0  0  0  0  0  0  0  0  0
    8.1566   10.0536   16.0516 O   0  0  0  0  0  0  0  0  0  0  0  0
   12.4989    6.2074   20.1776 C   0  0  0  0  0  0  0  0  0  0  0  0
    6.9192    9.1053   20.9073 O   0  0  0  0  0  0  0  0  0  0  0  0
   14.3979    6.0729   18.7784 C   0  0  0  0  0  0  0  0  0  0  0  0
    8.6811    9.5354   16.9998 C   0  0  0  0  0  0  0  0  0  0  0  0
    9.2512    4.2713   13.7653 O   0  0  0  0  0  0  0  0  0  0  0  0
    9.6495    8.6317   16.8332 N   0  0  0  0  0  0  0  0  0  0  0  0
    6.2934    8.6988   23.1988 O   0  0  0  0  0  0  0  0  0  0  0  0
    7.9806    8.6543   20.5437 C   0  0  0  0  0  0  0  0  0  0  0  0
   13.7270    5.7144   19.8610 O   0  0  0  0  0  0  0  0  0  0  0  0
    8.3351    5.5235   15.4478 C   0  0  0  0  0  0  0  0  0  0  0  0
    8.7700    7.8434   21.3915 C   0  0  0  0  0  0  0  0  0  0  0  0
   11.7856    6.8851   19.2401 C   0  0  0  0  0  0  0  0  0  0  0  0
   10.5281    7.4276   19.5649 C   0  0  0  0  0  0  0  0  0  0  0  0
   10.0256    7.2907   20.8484 C   0  0  0  0  0  0  0  0  0  0  0  0
    9.3113    5.3049   14.4911 C   0  0  0  0  0  0  0  0  0  0  0  0
    9.4607    7.5646   16.0139 C   0  0  0  0  0  0  0  0  0  0  0  0
   10.4192    7.3157   15.0955 C   0  0  0  0  0  0  0  0  0  0  0  0
   10.2489    6.4227   23.0218 N   0  0  0  0  0  0  0  0  0  0  0  0
    7.2472    8.0746   23.5050 C   0  0  0  0  0  0  0  0  0  0  0  0
    9.2051    6.9101   23.4604 C   0  0  0  0  0  0  0  0  0  0  0  0
   11.9646    6.0299   21.4251 C   0  0  0  0  0  0  0  0  0  0  0  0
  1  5  1  0
  1 13  1  0
  2 20  2  0
  2 28  1  0
  2 29  1  0
  3 19  4  0
  3 25  4  0
  4 23  4  0
  4 27  1  0
  4 30  4  0
  5 17  1  0
  6  8  1  0
  6 29  1  0
  7 24  4  0
  7 26  4  0
  8 28  1  0
  9 13  2  0
 10 18  1  0
 10 21  4  0
 10 30  4  0
 11 17  2  0
 12 18  1  0
 13 15  1  0
 14 24  1  0
 15 25  1  0
 16 28  2  0
 17 20  1  0
 19 24  4  0
 20 23  1  0
 21 22  4  0
 22 23  4  0
 25 26  4  0
 27 29  2  0
M  END
$$$$

 Created by Python create_sdf_string function

 30 33  0  0  0  0  0  0  0  0999 V2000
    8.3036    9.8571   18.4133 C   0  0  0  0  0  0  0  0  0  0  0  0
    8.3694    7.6612   22.6703 C   0  0  0  0  0  0  0  0  0  0  0  0
    8.4143    6.6863   16.2273 C   0  0  0  0  0  0  0  0  0  0  0  0
   10.7581    6.5674   21.7636 C   0  0  0  0  0  0  0  0  0  0  0  0
    8.4452    8.7960   19.2958 O   0  0  0  0  0  0  0  0  0  0  0  0
    8.7122    6.7842   24.8569 C   0  0  0  0  0  0  0  0  0  0  0  0
   10.3400    6.1726   14.3081 C   0  0  0  0  0  0  0  0  0  0  0  0
    7.4297    7.5873   24.8962 C   0  0  0  0  0  0  0  0  0  0  0  0
    8.1566   10.0536   16.0516 O   0  0  0  0  0  0  0  0  0  0  0  0
   12.4989    6.2074   20.1776 C   0  0  0  0  0  0  0  0  0  0  0  0
    6.9192    9.1053   20.9073 O   0  0  0  0  0  0  0  0  0  0  0  0
   14.3979    6.0729   18.7784 C   0  0  0  0  0  0  0  0  0  0  0  0
    8.6811    9.5354   16.9998 C   0  0  0  0  0  0  0  0  0  0  0  0
    9.2512    4.2713   13.7653 O   0  0  0  0  0  0  0  0  0  0  0  0
    9.6495    8.6317   16.8332 N   0  0  0  0  0  0  0  0  0  0  0  0
    6.2934    8.6988   23.1988 O   0  0  0  0  0  0  0  0  0  0  0  0
    7.9806    8.6543   20.5437 C   0  0  0  0  0  0  0  0  0  0  0  0
   13.7270    5.7144   19.8610 O   0  0  0  0  0  0  0  0  0  0  0  0
    8.3351    5.5235   15.4478 C   0  0  0  0  0  0  0  0  0  0  0  0
    8.7700    7.8434   21.3915 C   0  0  0  0  0  0  0  0  0  0  0  0
   11.7856    6.8851   19.2401 C   0  0  0  0  0  0  0  0  0  0  0  0
   10.5281    7.4276   19.5649 C   0  0  0  0  0  0  0  0  0  0  0  0
   10.0256    7.2907   20.8484 C   0  0  0  0  0  0  0  0  0  0  0  0
    9.3113    5.3049   14.4911 C   0  0  0  0  0  0  0  0  0  0  0  0
    9.4607    7.5646   16.0139 C   0  0  0  0  0  0  0  0  0  0  0  0
   10.4192    7.3157   15.0955 C   0  0  0  0  0  0  0  0  0  0  0  0
   10.2489    6.4227   23.0218 N   0  0  0  0  0  0  0  0  0  0  0  0
    7.2472    8.0746   23.5050 C   0  0  0  0  0  0  0  0  0  0  0  0
    9.2051    6.9101   23.4604 C   0  0  0  0  0  0  0  0  0  0  0  0
   11.9646    6.0299   21.4251 C   0  0  0  0  0  0  0  0  0  0  0  0
  1  5  1  0
  1 13  1  0
  2 20  2  0
  2 28  1  0
  2 29  1  0
  3 19  4  0
  3 25  4  0
  4 23  4  0
  4 27  1  0
  4 30  4  0
  5 17  1  0
  6  8  1  0
  6 29  1  0
  7 24  4  0
  7 26  4  0
  8 28  1  0
  9 13  2  0
 10 18  1  0
 10 21  4  0
 10 30  4  0
 11 17  2  0
 12 18  1  0
 13 15  1  0
 14 24  1  0
 15 25  1  0
 16 28  2  0
 17 20  1  0
 19 24  4  0
 20 23  1  0
 21 22  4  0
 22 23  4  0
 25 26  4  0
 27 29  2  0
M  END
$$$$

 Created by Python create_sdf_string function

 30 33  0  0  0  0  0  0  0  0999 V2000
    8.3036    9.8571   18.4133 C   0  0  0  0  0  0  0  0  0  0  0  0
    8.3694    7.6612   22.6703 C   0  0  0  0  0  0  0  0  0  0  0  0
    8.4143    6.6863   16.2273 C   0  0  0  0  0  0  0  0  0  0  0  0
   10.7581    6.5674   21.7636 C   0  0  0  0  0  0  0  0  0  0  0  0
    8.4452    8.7960   19.2958 O   0  0  0  0  0  0  0  0  0  0  0  0
    8.7122    6.7842   24.8569 C   0  0  0  0  0  0  0  0  0  0  0  0
   10.3400    6.1726   14.3081 C   0  0  0  0  0  0  0  0  0  0  0  0
    7.4297    7.5873   24.8962 C   0  0  0  0  0  0  0  0  0  0  0  0
    8.1566   10.0536   16.0516 O   0  0  0  0  0  0  0  0  0  0  0  0
   12.4989    6.2074   20.1776 C   0  0  0  0  0  0  0  0  0  0  0  0
    6.9192    9.1053   20.9073 O   0  0  0  0  0  0  0  0  0  0  0  0
   14.3979    6.0729   18.7784 C   0  0  0  0  0  0  0  0  0  0  0  0
    8.6811    9.5354   16.9998 C   0  0  0  0  0  0  0  0  0  0  0  0
    9.2512    4.2713   13.7653 O   0  0  0  0  0  0  0  0  0  0  0  0
    9.6495    8.6317   16.8332 N   0  0  0  0  0  0  0  0  0  0  0  0
    6.2934    8.6988   23.1988 O   0  0  0  0  0  0  0  0  0  0  0  0
    7.9806    8.6543   20.5437 C   0  0  0  0  0  0  0  0  0  0  0  0
   13.7270    5.7144   19.8610 O   0  0  0  0  0  0  0  0  0  0  0  0
    8.3351    5.5235   15.4478 C   0  0  0  0  0  0  0  0  0  0  0  0
    8.7700    7.8434   21.3915 C   0  0  0  0  0  0  0  0  0  0  0  0
   11.7856    6.8851   19.2401 C   0  0  0  0  0  0  0  0  0  0  0  0
   10.5281    7.4276   19.5649 C   0  0  0  0  0  0  0  0  0  0  0  0
   10.0256    7.2907   20.8484 C   0  0  0  0  0  0  0  0  0  0  0  0
    9.3113    5.3049   14.4911 C   0  0  0  0  0  0  0  0  0  0  0  0
    9.4607    7.5646   16.0139 C   0  0  0  0  0  0  0  0  0  0  0  0
   10.4192    7.3157   15.0955 C   0  0  0  0  0  0  0  0  0  0  0  0
   10.2489    6.4227   23.0218 N   0  0  0  0  0  0  0  0  0  0  0  0
    7.2472    8.0746   23.5050 C   0  0  0  0  0  0  0  0  0  0  0  0
    9.2051    6.9101   23.4604 C   0  0  0  0  0  0  0  0  0  0  0  0
   11.9646    6.0299   21.4251 C   0  0  0  0  0  0  0  0  0  0  0  0
  1  5  1  0
  1 13  1  0
  2 20  2  0
  2 28  1  0
  2 29  1  0
  3 19  4  0
  3 25  4  0
  4 23  4  0
  4 27  1  0
  4 30  4  0
  5 17  1  0
  6  8  1  0
  6 29  1  0
  7 24  4  0
  7 26  4  0
  8 28  1  0
  9 13  2  0
 10 18  1  0
 10 21  4  0
 10 30  4  0
 11 17  2  0
 12 18  1  0
 13 15  1  0
 14 24  1  0
 15 25  1  0
 16 28  2  0
 17 20  1  0
 19 24  4  0
 20 23  1  0
 21 22  4  0
 22 23  4  0
 25 26  4  0
 27 29  2  0
M  END
$$$$

 Created by Python create_sdf_string function

 30 33  0  0  0  0  0  0  0  0999 V2000
    8.3036    9.8571   18.4133 C   0  0  0  0  0  0  0  0  0  0  0  0
    8.3694    7.6612   22.6703 C   0  0  0  0  0  0  0  0  0  0  0  0
    8.4143    6.6863   16.2273 C   0  0  0  0  0  0  0  0  0  0  0  0
   10.7581    6.5674   21.7636 C   0  0  0  0  0  0  0  0  0  0  0  0
    8.4452    8.7960   19.2958 O   0  0  0  0  0  0  0  0  0  0  0  0
    8.7122    6.7842   24.8569 C   0  0  0  0  0  0  0  0  0  0  0  0
   10.3400    6.1726   14.3081 C   0  0  0  0  0  0  0  0  0  0  0  0
    7.4297    7.5873   24.8962 C   0  0  0  0  0  0  0  0  0  0  0  0
    8.1566   10.0536   16.0516 O   0  0  0  0  0  0  0  0  0  0  0  0
   12.4989    6.2074   20.1776 C   0  0  0  0  0  0  0  0  0  0  0  0
    6.9192    9.1053   20.9073 O   0  0  0  0  0  0  0  0  0  0  0  0
   14.3979    6.0729   18.7784 C   0  0  0  0  0  0  0  0  0  0  0  0
    8.6811    9.5354   16.9998 C   0  0  0  0  0  0  0  0  0  0  0  0
    9.2512    4.2713   13.7653 O   0  0  0  0  0  0  0  0  0  0  0  0
    9.6495    8.6317   16.8332 N   0  0  0  0  0  0  0  0  0  0  0  0
    6.2934    8.6988   23.1988 O   0  0  0  0  0  0  0  0  0  0  0  0
    7.9806    8.6543   20.5437 C   0  0  0  0  0  0  0  0  0  0  0  0
   13.7270    5.7144   19.8610 O   0  0  0  0  0  0  0  0  0  0  0  0
    8.3351    5.5235   15.4478 C   0  0  0  0  0  0  0  0  0  0  0  0
    8.7700    7.8434   21.3915 C   0  0  0  0  0  0  0  0  0  0  0  0
   11.7856    6.8851   19.2401 C   0  0  0  0  0  0  0  0  0  0  0  0
   10.5281    7.4276   19.5649 C   0  0  0  0  0  0  0  0  0  0  0  0
   10.0256    7.2907   20.8484 C   0  0  0  0  0  0  0  0  0  0  0  0
    9.3113    5.3049   14.4911 C   0  0  0  0  0  0  0  0  0  0  0  0
    9.4607    7.5646   16.0139 C   0  0  0  0  0  0  0  0  0  0  0  0
   10.4192    7.3157   15.0955 C   0  0  0  0  0  0  0  0  0  0  0  0
   10.2489    6.4227   23.0218 N   0  0  0  0  0  0  0  0  0  0  0  0
    7.2472    8.0746   23.5050 C   0  0  0  0  0  0  0  0  0  0  0  0
    9.2051    6.9101   23.4604 C   0  0  0  0  0  0  0  0  0  0  0  0
   11.9646    6.0299   21.4251 C   0  0  0  0  0  0  0  0  0  0  0  0
  1  5  1  0
  1 13  1  0
  2 20  2  0
  2 28  1  0
  2 29  1  0
  3 19  4  0
  3 25  4  0
  4 23  4  0
  4 27  1  0
  4 30  4  0
  5 17  1  0
  6  8  1  0
  6 29  1  0
  7 24  4  0
  7 26  4  0
  8 28  1  0
  9 13  2  0
 10 18  1  0
 10 21  4  0
 10 30  4  0
 11 17  2  0
 12 18  1  0
 13 15  1  0
 14 24  1  0
 15 25  1  0
 16 28  2  0
 17 20  1  0
 19 24  4  0
 20 23  1  0
 21 22  4  0
 22 23  4  0
 25 26  4  0
 27 29  2  0
M  END
$$$$

 Created by Python create_sdf_string function

 30 33  0  0  0  0  0  0  0  0999 V2000
    8.3036    9.8571   18.4133 C   0  0  0  0  0  0  0  0  0  0  0  0
    8.3694    7.6612   22.6703 C   0  0  0  0  0  0  0  0  0  0  0  0
    8.4143    6.6863   16.2273 C   0  0  0  0  0  0  0  0  0  0  0  0
   10.7581    6.5674   21.7636 C   0  0  0  0  0  0  0  0  0  0  0  0
    8.4452    8.7960   19.2958 O   0  0  0  0  0  0  0  0  0  0  0  0
    8.7122    6.7842   24.8569 C   0  0  0  0  0  0  0  0  0  0  0  0
   10.3400    6.1726   14.3081 C   0  0  0  0  0  0  0  0  0  0  0  0
    7.4297    7.5873   24.8962 C   0  0  0  0  0  0  0  0  0  0  0  0
    8.1566   10.0536   16.0516 O   0  0  0  0  0  0  0  0  0  0  0  0
   12.4989    6.2074   20.1776 C   0  0  0  0  0  0  0  0  0  0  0  0
    6.9192    9.1053   20.9073 O   0  0  0  0  0  0  0  0  0  0  0  0
   14.3979    6.0729   18.7784 C   0  0  0  0  0  0  0  0  0  0  0  0
    8.6811    9.5354   16.9998 C   0  0  0  0  0  0  0  0  0  0  0  0
    9.2512    4.2713   13.7653 O   0  0  0  0  0  0  0  0  0  0  0  0
    9.6495    8.6317   16.8332 N   0  0  0  0  0  0  0  0  0  0  0  0
    6.2934    8.6988   23.1988 O   0  0  0  0  0  0  0  0  0  0  0  0
    7.9806    8.6543   20.5437 C   0  0  0  0  0  0  0  0  0  0  0  0
   13.7270    5.7144   19.8610 O   0  0  0  0  0  0  0  0  0  0  0  0
    8.3351    5.5235   15.4478 C   0  0  0  0  0  0  0  0  0  0  0  0
    8.7700    7.8434   21.3915 C   0  0  0  0  0  0  0  0  0  0  0  0
   11.7856    6.8851   19.2401 C   0  0  0  0  0  0  0  0  0  0  0  0
   10.5281    7.4276   19.5649 C   0  0  0  0  0  0  0  0  0  0  0  0
   10.0256    7.2907   20.8484 C   0  0  0  0  0  0  0  0  0  0  0  0
    9.3113    5.3049   14.4911 C   0  0  0  0  0  0  0  0  0  0  0  0
    9.4607    7.5646   16.0139 C   0  0  0  0  0  0  0  0  0  0  0  0
   10.4192    7.3157   15.0955 C   0  0  0  0  0  0  0  0  0  0  0  0
   10.2489    6.4227   23.0218 N   0  0  0  0  0  0  0  0  0  0  0  0
    7.2472    8.0746   23.5050 C   0  0  0  0  0  0  0  0  0  0  0  0
    9.2051    6.9101   23.4604 C   0  0  0  0  0  0  0  0  0  0  0  0
   11.9646    6.0299   21.4251 C   0  0  0  0  0  0  0  0  0  0  0  0
  1  5  1  0
  1 13  1  0
  2 20  2  0
  2 28  1  0
  2 29  1  0
  3 19  4  0
  3 25  4  0
  4 23  4  0
  4 27  1  0
  4 30  4  0
  5 17  1  0
  6  8  1  0
  6 29  1  0
  7 24  4  0
  7 26  4  0
  8 28  1  0
  9 13  2  0
 10 18  1  0
 10 21  4  0
 10 30  4  0
 11 17  2  0
 12 18  1  0
 13 15  1  0
 14 24  1  0
 15 25  1  0
 16 28  2  0
 17 20  1  0
 19 24  4  0
 20 23  1  0
 21 22  4  0
 22 23  4  0
 25 26  4  0
 27 29  2  0
M  END
$$$$

 Created by Python create_sdf_string function

 30 33  0  0  0  0  0  0  0  0999 V2000
    8.3036    9.8571   18.4133 C   0  0  0  0  0  0  0  0  0  0  0  0
    8.3694    7.6612   22.6703 C   0  0  0  0  0  0  0  0  0  0  0  0
    8.4143    6.6863   16.2273 C   0  0  0  0  0  0  0  0  0  0  0  0
   10.7581    6.5674   21.7636 C   0  0  0  0  0  0  0  0  0  0  0  0
    8.4452    8.7960   19.2958 O   0  0  0  0  0  0  0  0  0  0  0  0
    8.7122    6.7842   24.8569 C   0  0  0  0  0  0  0  0  0  0  0  0
   10.3400    6.1726   14.3081 C   0  0  0  0  0  0  0  0  0  0  0  0
    7.4297    7.5873   24.8962 C   0  0  0  0  0  0  0  0  0  0  0  0
    8.1566   10.0536   16.0516 O   0  0  0  0  0  0  0  0  0  0  0  0
   12.4989    6.2074   20.1776 C   0  0  0  0  0  0  0  0  0  0  0  0
    6.9192    9.1053   20.9073 O   0  0  0  0  0  0  0  0  0  0  0  0
   14.3979    6.0729   18.7784 C   0  0  0  0  0  0  0  0  0  0  0  0
    8.6811    9.5354   16.9998 C   0  0  0  0  0  0  0  0  0  0  0  0
    9.2512    4.2713   13.7653 O   0  0  0  0  0  0  0  0  0  0  0  0
    9.6495    8.6317   16.8332 N   0  0  0  0  0  0  0  0  0  0  0  0
    6.2934    8.6988   23.1988 O   0  0  0  0  0  0  0  0  0  0  0  0
    7.9806    8.6543   20.5437 C   0  0  0  0  0  0  0  0  0  0  0  0
   13.7270    5.7144   19.8610 O   0  0  0  0  0  0  0  0  0  0  0  0
    8.3351    5.5235   15.4478 C   0  0  0  0  0  0  0  0  0  0  0  0
    8.7700    7.8434   21.3915 C   0  0  0  0  0  0  0  0  0  0  0  0
   11.7856    6.8851   19.2401 C   0  0  0  0  0  0  0  0  0  0  0  0
   10.5281    7.4276   19.5649 C   0  0  0  0  0  0  0  0  0  0  0  0
   10.0256    7.2907   20.8484 C   0  0  0  0  0  0  0  0  0  0  0  0
    9.3113    5.3049   14.4911 C   0  0  0  0  0  0  0  0  0  0  0  0
    9.4607    7.5646   16.0139 C   0  0  0  0  0  0  0  0  0  0  0  0
   10.4192    7.3157   15.0955 C   0  0  0  0  0  0  0  0  0  0  0  0
   10.2489    6.4227   23.0218 N   0  0  0  0  0  0  0  0  0  0  0  0
    7.2472    8.0746   23.5050 C   0  0  0  0  0  0  0  0  0  0  0  0
    9.2051    6.9101   23.4604 C   0  0  0  0  0  0  0  0  0  0  0  0
   11.9646    6.0299   21.4251 C   0  0  0  0  0  0  0  0  0  0  0  0
  1  5  1  0
  1 13  1  0
  2 20  2  0
  2 28  1  0
  2 29  1  0
  3 19  4  0
  3 25  4  0
  4 23  4  0
  4 27  1  0
  4 30  4  0
  5 17  1  0
  6  8  1  0
  6 29  1  0
  7 24  4  0
  7 26  4  0
  8 28  1  0
  9 13  2  0
 10 18  1  0
 10 21  4  0
 10 30  4  0
 11 17  2  0
 12 18  1  0
 13 15  1  0
 14 24  1  0
 15 25  1  0
 16 28  2  0
 17 20  1  0
 19 24  4  0
 20 23  1  0
 21 22  4  0
 22 23  4  0
 25 26  4  0
 27 29  2  0
M  END
$$$$

 Created by Python create_sdf_string function

 30 33  0  0  0  0  0  0  0  0999 V2000
    8.3036    9.8571   18.4133 C   0  0  0  0  0  0  0  0  0  0  0  0
    8.3694    7.6612   22.6703 C   0  0  0  0  0  0  0  0  0  0  0  0
    8.4143    6.6863   16.2273 C   0  0  0  0  0  0  0  0  0  0  0  0
   10.7581    6.5674   21.7636 C   0  0  0  0  0  0  0  0  0  0  0  0
    8.4452    8.7960   19.2958 O   0  0  0  0  0  0  0  0  0  0  0  0
    8.7122    6.7842   24.8569 C   0  0  0  0  0  0  0  0  0  0  0  0
   10.3400    6.1726   14.3081 C   0  0  0  0  0  0  0  0  0  0  0  0
    7.4297    7.5873   24.8962 C   0  0  0  0  0  0  0  0  0  0  0  0
    8.1566   10.0536   16.0516 O   0  0  0  0  0  0  0  0  0  0  0  0
   12.4989    6.2074   20.1776 C   0  0  0  0  0  0  0  0  0  0  0  0
    6.9192    9.1053   20.9073 O   0  0  0  0  0  0  0  0  0  0  0  0
   14.3979    6.0729   18.7784 C   0  0  0  0  0  0  0  0  0  0  0  0
    8.6811    9.5354   16.9998 C   0  0  0  0  0  0  0  0  0  0  0  0
    9.2512    4.2713   13.7653 O   0  0  0  0  0  0  0  0  0  0  0  0
    9.6495    8.6317   16.8332 N   0  0  0  0  0  0  0  0  0  0  0  0
    6.2934    8.6988   23.1988 O   0  0  0  0  0  0  0  0  0  0  0  0
    7.9806    8.6543   20.5437 C   0  0  0  0  0  0  0  0  0  0  0  0
   13.7270    5.7144   19.8610 O   0  0  0  0  0  0  0  0  0  0  0  0
    8.3351    5.5235   15.4478 C   0  0  0  0  0  0  0  0  0  0  0  0
    8.7700    7.8434   21.3915 C   0  0  0  0  0  0  0  0  0  0  0  0
   11.7856    6.8851   19.2401 C   0  0  0  0  0  0  0  0  0  0  0  0
   10.5281    7.4276   19.5649 C   0  0  0  0  0  0  0  0  0  0  0  0
   10.0256    7.2907   20.8484 C   0  0  0  0  0  0  0  0  0  0  0  0
    9.3113    5.3049   14.4911 C   0  0  0  0  0  0  0  0  0  0  0  0
    9.4607    7.5646   16.0139 C   0  0  0  0  0  0  0  0  0  0  0  0
   10.4192    7.3157   15.0955 C   0  0  0  0  0  0  0  0  0  0  0  0
   10.2489    6.4227   23.0218 N   0  0  0  0  0  0  0  0  0  0  0  0
    7.2472    8.0746   23.5050 C   0  0  0  0  0  0  0  0  0  0  0  0
    9.2051    6.9101   23.4604 C   0  0  0  0  0  0  0  0  0  0  0  0
   11.9646    6.0299   21.4251 C   0  0  0  0  0  0  0  0  0  0  0  0
  1  5  1  0
  1 13  1  0
  2 20  2  0
  2 28  1  0
  2 29  1  0
  3 19  4  0
  3 25  4  0
  4 23  4  0
  4 27  1  0
  4 30  4  0
  5 17  1  0
  6  8  1  0
  6 29  1  0
  7 24  4  0
  7 26  4  0
  8 28  1  0
  9 13  2  0
 10 18  1  0
 10 21  4  0
 10 30  4  0
 11 17  2  0
 12 18  1  0
 13 15  1  0
 14 24  1  0
 15 25  1  0
 16 28  2  0
 17 20  1  0
 19 24  4  0
 20 23  1  0
 21 22  4  0
 22 23  4  0
 25 26  4  0
 27 29  2  0
M  END
$$$$

 Created by Python create_sdf_string function

 30 33  0  0  0  0  0  0  0  0999 V2000
    8.3036    9.8571   18.4133 C   0  0  0  0  0  0  0  0  0  0  0  0
    8.3694    7.6612   22.6703 C   0  0  0  0  0  0  0  0  0  0  0  0
    8.4143    6.6863   16.2273 C   0  0  0  0  0  0  0  0  0  0  0  0
   10.7581    6.5674   21.7636 C   0  0  0  0  0  0  0  0  0  0  0  0
    8.4452    8.7960   19.2958 O   0  0  0  0  0  0  0  0  0  0  0  0
    8.7122    6.7842   24.8569 C   0  0  0  0  0  0  0  0  0  0  0  0
   10.3400    6.1726   14.3081 C   0  0  0  0  0  0  0  0  0  0  0  0
    7.4297    7.5873   24.8962 C   0  0  0  0  0  0  0  0  0  0  0  0
    8.1566   10.0536   16.0516 O   0  0  0  0  0  0  0  0  0  0  0  0
   12.4989    6.2074   20.1776 C   0  0  0  0  0  0  0  0  0  0  0  0
    6.9192    9.1053   20.9073 O   0  0  0  0  0  0  0  0  0  0  0  0
   14.3979    6.0729   18.7784 C   0  0  0  0  0  0  0  0  0  0  0  0
    8.6811    9.5354   16.9998 C   0  0  0  0  0  0  0  0  0  0  0  0
    9.2512    4.2713   13.7653 O   0  0  0  0  0  0  0  0  0  0  0  0
    9.6495    8.6317   16.8332 N   0  0  0  0  0  0  0  0  0  0  0  0
    6.2934    8.6988   23.1988 O   0  0  0  0  0  0  0  0  0  0  0  0
    7.9806    8.6543   20.5437 C   0  0  0  0  0  0  0  0  0  0  0  0
   13.7270    5.7144   19.8610 O   0  0  0  0  0  0  0  0  0  0  0  0
    8.3351    5.5235   15.4478 C   0  0  0  0  0  0  0  0  0  0  0  0
    8.7700    7.8434   21.3915 C   0  0  0  0  0  0  0  0  0  0  0  0
   11.7856    6.8851   19.2401 C   0  0  0  0  0  0  0  0  0  0  0  0
   10.5281    7.4276   19.5649 C   0  0  0  0  0  0  0  0  0  0  0  0
   10.0256    7.2907   20.8484 C   0  0  0  0  0  0  0  0  0  0  0  0
    9.3113    5.3049   14.4911 C   0  0  0  0  0  0  0  0  0  0  0  0
    9.4607    7.5646   16.0139 C   0  0  0  0  0  0  0  0  0  0  0  0
   10.4192    7.3157   15.0955 C   0  0  0  0  0  0  0  0  0  0  0  0
   10.2489    6.4227   23.0218 N   0  0  0  0  0  0  0  0  0  0  0  0
    7.2472    8.0746   23.5050 C   0  0  0  0  0  0  0  0  0  0  0  0
    9.2051    6.9101   23.4604 C   0  0  0  0  0  0  0  0  0  0  0  0
   11.9646    6.0299   21.4251 C   0  0  0  0  0  0  0  0  0  0  0  0
  1  5  1  0
  1 13  1  0
  2 20  2  0
  2 28  1  0
  2 29  1  0
  3 19  4  0
  3 25  4  0
  4 23  4  0
  4 27  1  0
  4 30  4  0
  5 17  1  0
  6  8  1  0
  6 29  1  0
  7 24  4  0
  7 26  4  0
  8 28  1  0
  9 13  2  0
 10 18  1  0
 10 21  4  0
 10 30  4  0
 11 17  2  0
 12 18  1  0
 13 15  1  0
 14 24  1  0
 15 25  1  0
 16 28  2  0
 17 20  1  0
 19 24  4  0
 20 23  1  0
 21 22  4  0
 22 23  4  0
 25 26  4  0
 27 29  2  0
M  END
$$$$

 Created by Python create_sdf_string function

 30 33  0  0  0  0  0  0  0  0999 V2000
    8.3036    9.8571   18.4133 C   0  0  0  0  0  0  0  0  0  0  0  0
    8.3694    7.6612   22.6703 C   0  0  0  0  0  0  0  0  0  0  0  0
    8.4143    6.6863   16.2273 C   0  0  0  0  0  0  0  0  0  0  0  0
   10.7581    6.5674   21.7636 C   0  0  0  0  0  0  0  0  0  0  0  0
    8.4452    8.7960   19.2958 O   0  0  0  0  0  0  0  0  0  0  0  0
    8.7122    6.7842   24.8569 C   0  0  0  0  0  0  0  0  0  0  0  0
   10.3400    6.1726   14.3081 C   0  0  0  0  0  0  0  0  0  0  0  0
    7.4297    7.5873   24.8962 C   0  0  0  0  0  0  0  0  0  0  0  0
    8.1566   10.0536   16.0516 O   0  0  0  0  0  0  0  0  0  0  0  0
   12.4989    6.2074   20.1776 C   0  0  0  0  0  0  0  0  0  0  0  0
    6.9192    9.1053   20.9073 O   0  0  0  0  0  0  0  0  0  0  0  0
   14.3979    6.0729   18.7784 C   0  0  0  0  0  0  0  0  0  0  0  0
    8.6811    9.5354   16.9998 C   0  0  0  0  0  0  0  0  0  0  0  0
    9.2512    4.2713   13.7653 O   0  0  0  0  0  0  0  0  0  0  0  0
    9.6495    8.6317   16.8332 N   0  0  0  0  0  0  0  0  0  0  0  0
    6.2934    8.6988   23.1988 O   0  0  0  0  0  0  0  0  0  0  0  0
    7.9806    8.6543   20.5437 C   0  0  0  0  0  0  0  0  0  0  0  0
   13.7270    5.7144   19.8610 O   0  0  0  0  0  0  0  0  0  0  0  0
    8.3351    5.5235   15.4478 C   0  0  0  0  0  0  0  0  0  0  0  0
    8.7700    7.8434   21.3915 C   0  0  0  0  0  0  0  0  0  0  0  0
   11.7856    6.8851   19.2401 C   0  0  0  0  0  0  0  0  0  0  0  0
   10.5281    7.4276   19.5649 C   0  0  0  0  0  0  0  0  0  0  0  0
   10.0256    7.2907   20.8484 C   0  0  0  0  0  0  0  0  0  0  0  0
    9.3113    5.3049   14.4911 C   0  0  0  0  0  0  0  0  0  0  0  0
    9.4607    7.5646   16.0139 C   0  0  0  0  0  0  0  0  0  0  0  0
   10.4192    7.3157   15.0955 C   0  0  0  0  0  0  0  0  0  0  0  0
   10.2489    6.4227   23.0218 N   0  0  0  0  0  0  0  0  0  0  0  0
    7.2472    8.0746   23.5050 C   0  0  0  0  0  0  0  0  0  0  0  0
    9.2051    6.9101   23.4604 C   0  0  0  0  0  0  0  0  0  0  0  0
   11.9646    6.0299   21.4251 C   0  0  0  0  0  0  0  0  0  0  0  0
  1  5  1  0
  1 13  1  0
  2 20  2  0
  2 28  1  0
  2 29  1  0
  3 19  4  0
  3 25  4  0
  4 23  4  0
  4 27  1  0
  4 30  4  0
  5 17  1  0
  6  8  1  0
  6 29  1  0
  7 24  4  0
  7 26  4  0
  8 28  1  0
  9 13  2  0
 10 18  1  0
 10 21  4  0
 10 30  4  0
 11 17  2  0
 12 18  1  0
 13 15  1  0
 14 24  1  0
 15 25  1  0
 16 28  2  0
 17 20  1  0
 19 24  4  0
 20 23  1  0
 21 22  4  0
 22 23  4  0
 25 26  4  0
 27 29  2  0
M  END
$$$$

 Created by Python create_sdf_string function

 30 33  0  0  0  0  0  0  0  0999 V2000
    8.3036    9.8571   18.4133 C   0  0  0  0  0  0  0  0  0  0  0  0
    8.3694    7.6612   22.6703 C   0  0  0  0  0  0  0  0  0  0  0  0
    8.4143    6.6863   16.2273 C   0  0  0  0  0  0  0  0  0  0  0  0
   10.7581    6.5674   21.7636 C   0  0  0  0  0  0  0  0  0  0  0  0
    8.4452    8.7960   19.2958 O   0  0  0  0  0  0  0  0  0  0  0  0
    8.7122    6.7842   24.8569 C   0  0  0  0  0  0  0  0  0  0  0  0
   10.3400    6.1726   14.3081 C   0  0  0  0  0  0  0  0  0  0  0  0
    7.4297    7.5873   24.8962 C   0  0  0  0  0  0  0  0  0  0  0  0
    8.1566   10.0536   16.0516 O   0  0  0  0  0  0  0  0  0  0  0  0
   12.4989    6.2074   20.1776 C   0  0  0  0  0  0  0  0  0  0  0  0
    6.9192    9.1053   20.9073 O   0  0  0  0  0  0  0  0  0  0  0  0
   14.3979    6.0729   18.7784 C   0  0  0  0  0  0  0  0  0  0  0  0
    8.6811    9.5354   16.9998 C   0  0  0  0  0  0  0  0  0  0  0  0
    9.2512    4.2713   13.7653 O   0  0  0  0  0  0  0  0  0  0  0  0
    9.6495    8.6317   16.8332 N   0  0  0  0  0  0  0  0  0  0  0  0
    6.2934    8.6988   23.1988 O   0  0  0  0  0  0  0  0  0  0  0  0
    7.9806    8.6543   20.5437 C   0  0  0  0  0  0  0  0  0  0  0  0
   13.7270    5.7144   19.8610 O   0  0  0  0  0  0  0  0  0  0  0  0
    8.3351    5.5235   15.4478 C   0  0  0  0  0  0  0  0  0  0  0  0
    8.7700    7.8434   21.3915 C   0  0  0  0  0  0  0  0  0  0  0  0
   11.7856    6.8851   19.2401 C   0  0  0  0  0  0  0  0  0  0  0  0
   10.5281    7.4276   19.5649 C   0  0  0  0  0  0  0  0  0  0  0  0
   10.0256    7.2907   20.8484 C   0  0  0  0  0  0  0  0  0  0  0  0
    9.3113    5.3049   14.4911 C   0  0  0  0  0  0  0  0  0  0  0  0
    9.4607    7.5646   16.0139 C   0  0  0  0  0  0  0  0  0  0  0  0
   10.4192    7.3157   15.0955 C   0  0  0  0  0  0  0  0  0  0  0  0
   10.2489    6.4227   23.0218 N   0  0  0  0  0  0  0  0  0  0  0  0
    7.2472    8.0746   23.5050 C   0  0  0  0  0  0  0  0  0  0  0  0
    9.2051    6.9101   23.4604 C   0  0  0  0  0  0  0  0  0  0  0  0
   11.9646    6.0299   21.4251 C   0  0  0  0  0  0  0  0  0  0  0  0
  1  5  1  0
  1 13  1  0
  2 20  2  0
  2 28  1  0
  2 29  1  0
  3 19  4  0
  3 25  4  0
  4 23  4  0
  4 27  1  0
  4 30  4  0
  5 17  1  0
  6  8  1  0
  6 29  1  0
  7 24  4  0
  7 26  4  0
  8 28  1  0
  9 13  2  0
 10 18  1  0
 10 21  4  0
 10 30  4  0
 11 17  2  0
 12 18  1  0
 13 15  1  0
 14 24  1  0
 15 25  1  0
 16 28  2  0
 17 20  1  0
 19 24  4  0
 20 23  1  0
 21 22  4  0
 22 23  4  0
 25 26  4  0
 27 29  2  0
M  END
$$$$

 Created by Python create_sdf_string function

 30 33  0  0  0  0  0  0  0  0999 V2000
    8.3036    9.8571   18.4133 C   0  0  0  0  0  0  0  0  0  0  0  0
    8.3694    7.6612   22.6703 C   0  0  0  0  0  0  0  0  0  0  0  0
    8.4143    6.6863   16.2273 C   0  0  0  0  0  0  0  0  0  0  0  0
   10.7581    6.5674   21.7636 C   0  0  0  0  0  0  0  0  0  0  0  0
    8.4452    8.7960   19.2958 O   0  0  0  0  0  0  0  0  0  0  0  0
    8.7122    6.7842   24.8569 C   0  0  0  0  0  0  0  0  0  0  0  0
   10.3400    6.1726   14.3081 C   0  0  0  0  0  0  0  0  0  0  0  0
    7.4297    7.5873   24.8962 C   0  0  0  0  0  0  0  0  0  0  0  0
    8.1566   10.0536   16.0516 O   0  0  0  0  0  0  0  0  0  0  0  0
   12.4989    6.2074   20.1776 C   0  0  0  0  0  0  0  0  0  0  0  0
    6.9192    9.1053   20.9073 O   0  0  0  0  0  0  0  0  0  0  0  0
   14.3979    6.0729   18.7784 C   0  0  0  0  0  0  0  0  0  0  0  0
    8.6811    9.5354   16.9998 C   0  0  0  0  0  0  0  0  0  0  0  0
    9.2512    4.2713   13.7653 O   0  0  0  0  0  0  0  0  0  0  0  0
    9.6495    8.6317   16.8332 N   0  0  0  0  0  0  0  0  0  0  0  0
    6.2934    8.6988   23.1988 O   0  0  0  0  0  0  0  0  0  0  0  0
    7.9806    8.6543   20.5437 C   0  0  0  0  0  0  0  0  0  0  0  0
   13.7270    5.7144   19.8610 O   0  0  0  0  0  0  0  0  0  0  0  0
    8.3351    5.5235   15.4478 C   0  0  0  0  0  0  0  0  0  0  0  0
    8.7700    7.8434   21.3915 C   0  0  0  0  0  0  0  0  0  0  0  0
   11.7856    6.8851   19.2401 C   0  0  0  0  0  0  0  0  0  0  0  0
   10.5281    7.4276   19.5649 C   0  0  0  0  0  0  0  0  0  0  0  0
   10.0256    7.2907   20.8484 C   0  0  0  0  0  0  0  0  0  0  0  0
    9.3113    5.3049   14.4911 C   0  0  0  0  0  0  0  0  0  0  0  0
    9.4607    7.5646   16.0139 C   0  0  0  0  0  0  0  0  0  0  0  0
   10.4192    7.3157   15.0955 C   0  0  0  0  0  0  0  0  0  0  0  0
   10.2489    6.4227   23.0218 N   0  0  0  0  0  0  0  0  0  0  0  0
    7.2472    8.0746   23.5050 C   0  0  0  0  0  0  0  0  0  0  0  0
    9.2051    6.9101   23.4604 C   0  0  0  0  0  0  0  0  0  0  0  0
   11.9646    6.0299   21.4251 C   0  0  0  0  0  0  0  0  0  0  0  0
  1  5  1  0
  1 13  1  0
  2 20  2  0
  2 28  1  0
  2 29  1  0
  3 19  4  0
  3 25  4  0
  4 23  4  0
  4 27  1  0
  4 30  4  0
  5 17  1  0
  6  8  1  0
  6 29  1  0
  7 24  4  0
  7 26  4  0
  8 28  1  0
  9 13  2  0
 10 18  1  0
 10 21  4  0
 10 30  4  0
 11 17  2  0
 12 18  1  0
 13 15  1  0
 14 24  1  0
 15 25  1  0
 16 28  2  0
 17 20  1  0
 19 24  4  0
 20 23  1  0
 21 22  4  0
 22 23  4  0
 25 26  4  0
 27 29  2  0
M  END
$$$$

 Created by Python create_sdf_string function

 30 33  0  0  0  0  0  0  0  0999 V2000
    8.3036    9.8571   18.4133 C   0  0  0  0  0  0  0  0  0  0  0  0
    8.3694    7.6612   22.6703 C   0  0  0  0  0  0  0  0  0  0  0  0
    8.4143    6.6863   16.2273 C   0  0  0  0  0  0  0  0  0  0  0  0
   10.7581    6.5674   21.7636 C   0  0  0  0  0  0  0  0  0  0  0  0
    8.4452    8.7960   19.2958 O   0  0  0  0  0  0  0  0  0  0  0  0
    8.7122    6.7842   24.8569 C   0  0  0  0  0  0  0  0  0  0  0  0
   10.3400    6.1726   14.3081 C   0  0  0  0  0  0  0  0  0  0  0  0
    7.4297    7.5873   24.8962 C   0  0  0  0  0  0  0  0  0  0  0  0
    8.1566   10.0536   16.0516 O   0  0  0  0  0  0  0  0  0  0  0  0
   12.4989    6.2074   20.1776 C   0  0  0  0  0  0  0  0  0  0  0  0
    6.9192    9.1053   20.9073 O   0  0  0  0  0  0  0  0  0  0  0  0
   14.3979    6.0729   18.7784 C   0  0  0  0  0  0  0  0  0  0  0  0
    8.6811    9.5354   16.9998 C   0  0  0  0  0  0  0  0  0  0  0  0
    9.2512    4.2713   13.7653 O   0  0  0  0  0  0  0  0  0  0  0  0
    9.6495    8.6317   16.8332 N   0  0  0  0  0  0  0  0  0  0  0  0
    6.2934    8.6988   23.1988 O   0  0  0  0  0  0  0  0  0  0  0  0
    7.9806    8.6543   20.5437 C   0  0  0  0  0  0  0  0  0  0  0  0
   13.7270    5.7144   19.8610 O   0  0  0  0  0  0  0  0  0  0  0  0
    8.3351    5.5235   15.4478 C   0  0  0  0  0  0  0  0  0  0  0  0
    8.7700    7.8434   21.3915 C   0  0  0  0  0  0  0  0  0  0  0  0
   11.7856    6.8851   19.2401 C   0  0  0  0  0  0  0  0  0  0  0  0
   10.5281    7.4276   19.5649 C   0  0  0  0  0  0  0  0  0  0  0  0
   10.0256    7.2907   20.8484 C   0  0  0  0  0  0  0  0  0  0  0  0
    9.3113    5.3049   14.4911 C   0  0  0  0  0  0  0  0  0  0  0  0
    9.4607    7.5646   16.0139 C   0  0  0  0  0  0  0  0  0  0  0  0
   10.4192    7.3157   15.0955 C   0  0  0  0  0  0  0  0  0  0  0  0
   10.2489    6.4227   23.0218 N   0  0  0  0  0  0  0  0  0  0  0  0
    7.2472    8.0746   23.5050 C   0  0  0  0  0  0  0  0  0  0  0  0
    9.2051    6.9101   23.4604 C   0  0  0  0  0  0  0  0  0  0  0  0
   11.9646    6.0299   21.4251 C   0  0  0  0  0  0  0  0  0  0  0  0
  1  5  1  0
  1 13  1  0
  2 20  2  0
  2 28  1  0
  2 29  1  0
  3 19  4  0
  3 25  4  0
  4 23  4  0
  4 27  1  0
  4 30  4  0
  5 17  1  0
  6  8  1  0
  6 29  1  0
  7 24  4  0
  7 26  4  0
  8 28  1  0
  9 13  2  0
 10 18  1  0
 10 21  4  0
 10 30  4  0
 11 17  2  0
 12 18  1  0
 13 15  1  0
 14 24  1  0
 15 25  1  0
 16 28  2  0
 17 20  1  0
 19 24  4  0
 20 23  1  0
 21 22  4  0
 22 23  4  0
 25 26  4  0
 27 29  2  0
M  END
$$$$

 Created by Python create_sdf_string function

 30 33  0  0  0  0  0  0  0  0999 V2000
    8.3036    9.8571   18.4133 C   0  0  0  0  0  0  0  0  0  0  0  0
    8.3694    7.6612   22.6703 C   0  0  0  0  0  0  0  0  0  0  0  0
    8.4143    6.6863   16.2273 C   0  0  0  0  0  0  0  0  0  0  0  0
   10.7581    6.5674   21.7636 C   0  0  0  0  0  0  0  0  0  0  0  0
    8.4452    8.7960   19.2958 O   0  0  0  0  0  0  0  0  0  0  0  0
    8.7122    6.7842   24.8569 C   0  0  0  0  0  0  0  0  0  0  0  0
   10.3400    6.1726   14.3081 C   0  0  0  0  0  0  0  0  0  0  0  0
    7.4297    7.5873   24.8962 C   0  0  0  0  0  0  0  0  0  0  0  0
    8.1566   10.0536   16.0516 O   0  0  0  0  0  0  0  0  0  0  0  0
   12.4989    6.2074   20.1776 C   0  0  0  0  0  0  0  0  0  0  0  0
    6.9192    9.1053   20.9073 O   0  0  0  0  0  0  0  0  0  0  0  0
   14.3979    6.0729   18.7784 C   0  0  0  0  0  0  0  0  0  0  0  0
    8.6811    9.5354   16.9998 C   0  0  0  0  0  0  0  0  0  0  0  0
    9.2512    4.2713   13.7653 O   0  0  0  0  0  0  0  0  0  0  0  0
    9.6495    8.6317   16.8332 N   0  0  0  0  0  0  0  0  0  0  0  0
    6.2934    8.6988   23.1988 O   0  0  0  0  0  0  0  0  0  0  0  0
    7.9806    8.6543   20.5437 C   0  0  0  0  0  0  0  0  0  0  0  0
   13.7270    5.7144   19.8610 O   0  0  0  0  0  0  0  0  0  0  0  0
    8.3351    5.5235   15.4478 C   0  0  0  0  0  0  0  0  0  0  0  0
    8.7700    7.8434   21.3915 C   0  0  0  0  0  0  0  0  0  0  0  0
   11.7856    6.8851   19.2401 C   0  0  0  0  0  0  0  0  0  0  0  0
   10.5281    7.4276   19.5649 C   0  0  0  0  0  0  0  0  0  0  0  0
   10.0256    7.2907   20.8484 C   0  0  0  0  0  0  0  0  0  0  0  0
    9.3113    5.3049   14.4911 C   0  0  0  0  0  0  0  0  0  0  0  0
    9.4607    7.5646   16.0139 C   0  0  0  0  0  0  0  0  0  0  0  0
   10.4192    7.3157   15.0955 C   0  0  0  0  0  0  0  0  0  0  0  0
   10.2489    6.4227   23.0218 N   0  0  0  0  0  0  0  0  0  0  0  0
    7.2472    8.0746   23.5050 C   0  0  0  0  0  0  0  0  0  0  0  0
    9.2051    6.9101   23.4604 C   0  0  0  0  0  0  0  0  0  0  0  0
   11.9646    6.0299   21.4251 C   0  0  0  0  0  0  0  0  0  0  0  0
  1  5  1  0
  1 13  1  0
  2 20  2  0
  2 28  1  0
  2 29  1  0
  3 19  4  0
  3 25  4  0
  4 23  4  0
  4 27  1  0
  4 30  4  0
  5 17  1  0
  6  8  1  0
  6 29  1  0
  7 24  4  0
  7 26  4  0
  8 28  1  0
  9 13  2  0
 10 18  1  0
 10 21  4  0
 10 30  4  0
 11 17  2  0
 12 18  1  0
 13 15  1  0
 14 24  1  0
 15 25  1  0
 16 28  2  0
 17 20  1  0
 19 24  4  0
 20 23  1  0
 21 22  4  0
 22 23  4  0
 25 26  4  0
 27 29  2  0
M  END
$$$$

 Created by Python create_sdf_string function

 30 33  0  0  0  0  0  0  0  0999 V2000
    8.3036    9.8571   18.4133 C   0  0  0  0  0  0  0  0  0  0  0  0
    8.3694    7.6612   22.6703 C   0  0  0  0  0  0  0  0  0  0  0  0
    8.4143    6.6863   16.2273 C   0  0  0  0  0  0  0  0  0  0  0  0
   10.7581    6.5674   21.7636 C   0  0  0  0  0  0  0  0  0  0  0  0
    8.4452    8.7960   19.2958 O   0  0  0  0  0  0  0  0  0  0  0  0
    8.7122    6.7842   24.8569 C   0  0  0  0  0  0  0  0  0  0  0  0
   10.3400    6.1726   14.3081 C   0  0  0  0  0  0  0  0  0  0  0  0
    7.4297    7.5873   24.8962 C   0  0  0  0  0  0  0  0  0  0  0  0
    8.1566   10.0536   16.0516 O   0  0  0  0  0  0  0  0  0  0  0  0
   12.4989    6.2074   20.1776 C   0  0  0  0  0  0  0  0  0  0  0  0
    6.9192    9.1053   20.9073 O   0  0  0  0  0  0  0  0  0  0  0  0
   14.3979    6.0729   18.7784 C   0  0  0  0  0  0  0  0  0  0  0  0
    8.6811    9.5354   16.9998 C   0  0  0  0  0  0  0  0  0  0  0  0
    9.2512    4.2713   13.7653 O   0  0  0  0  0  0  0  0  0  0  0  0
    9.6495    8.6317   16.8332 N   0  0  0  0  0  0  0  0  0  0  0  0
    6.2934    8.6988   23.1988 O   0  0  0  0  0  0  0  0  0  0  0  0
    7.9806    8.6543   20.5437 C   0  0  0  0  0  0  0  0  0  0  0  0
   13.7270    5.7144   19.8610 O   0  0  0  0  0  0  0  0  0  0  0  0
    8.3351    5.5235   15.4478 C   0  0  0  0  0  0  0  0  0  0  0  0
    8.7700    7.8434   21.3915 C   0  0  0  0  0  0  0  0  0  0  0  0
   11.7856    6.8851   19.2401 C   0  0  0  0  0  0  0  0  0  0  0  0
   10.5281    7.4276   19.5649 C   0  0  0  0  0  0  0  0  0  0  0  0
   10.0256    7.2907   20.8484 C   0  0  0  0  0  0  0  0  0  0  0  0
    9.3113    5.3049   14.4911 C   0  0  0  0  0  0  0  0  0  0  0  0
    9.4607    7.5646   16.0139 C   0  0  0  0  0  0  0  0  0  0  0  0
   10.4192    7.3157   15.0955 C   0  0  0  0  0  0  0  0  0  0  0  0
   10.2489    6.4227   23.0218 N   0  0  0  0  0  0  0  0  0  0  0  0
    7.2472    8.0746   23.5050 C   0  0  0  0  0  0  0  0  0  0  0  0
    9.2051    6.9101   23.4604 C   0  0  0  0  0  0  0  0  0  0  0  0
   11.9646    6.0299   21.4251 C   0  0  0  0  0  0  0  0  0  0  0  0
  1  5  1  0
  1 13  1  0
  2 20  2  0
  2 28  1  0
  2 29  1  0
  3 19  4  0
  3 25  4  0
  4 23  4  0
  4 27  1  0
  4 30  4  0
  5 17  1  0
  6  8  1  0
  6 29  1  0
  7 24  4  0
  7 26  4  0
  8 28  1  0
  9 13  2  0
 10 18  1  0
 10 21  4  0
 10 30  4  0
 11 17  2  0
 12 18  1  0
 13 15  1  0
 14 24  1  0
 15 25  1  0
 16 28  2  0
 17 20  1  0
 19 24  4  0
 20 23  1  0
 21 22  4  0
 22 23  4  0
 25 26  4  0
 27 29  2  0
M  END
$$$$

 Created by Python create_sdf_string function

 30 33  0  0  0  0  0  0  0  0999 V2000
    8.3036    9.8571   18.4133 C   0  0  0  0  0  0  0  0  0  0  0  0
    8.3694    7.6612   22.6703 C   0  0  0  0  0  0  0  0  0  0  0  0
    8.4143    6.6863   16.2273 C   0  0  0  0  0  0  0  0  0  0  0  0
   10.7581    6.5674   21.7636 C   0  0  0  0  0  0  0  0  0  0  0  0
    8.4452    8.7960   19.2958 O   0  0  0  0  0  0  0  0  0  0  0  0
    8.7122    6.7842   24.8569 C   0  0  0  0  0  0  0  0  0  0  0  0
   10.3400    6.1726   14.3081 C   0  0  0  0  0  0  0  0  0  0  0  0
    7.4297    7.5873   24.8962 C   0  0  0  0  0  0  0  0  0  0  0  0
    8.1566   10.0536   16.0516 O   0  0  0  0  0  0  0  0  0  0  0  0
   12.4989    6.2074   20.1776 C   0  0  0  0  0  0  0  0  0  0  0  0
    6.9192    9.1053   20.9073 O   0  0  0  0  0  0  0  0  0  0  0  0
   14.3979    6.0729   18.7784 C   0  0  0  0  0  0  0  0  0  0  0  0
    8.6811    9.5354   16.9998 C   0  0  0  0  0  0  0  0  0  0  0  0
    9.2512    4.2713   13.7653 O   0  0  0  0  0  0  0  0  0  0  0  0
    9.6495    8.6317   16.8332 N   0  0  0  0  0  0  0  0  0  0  0  0
    6.2934    8.6988   23.1988 O   0  0  0  0  0  0  0  0  0  0  0  0
    7.9806    8.6543   20.5437 C   0  0  0  0  0  0  0  0  0  0  0  0
   13.7270    5.7144   19.8610 O   0  0  0  0  0  0  0  0  0  0  0  0
    8.3351    5.5235   15.4478 C   0  0  0  0  0  0  0  0  0  0  0  0
    8.7700    7.8434   21.3915 C   0  0  0  0  0  0  0  0  0  0  0  0
   11.7856    6.8851   19.2401 C   0  0  0  0  0  0  0  0  0  0  0  0
   10.5281    7.4276   19.5649 C   0  0  0  0  0  0  0  0  0  0  0  0
   10.0256    7.2907   20.8484 C   0  0  0  0  0  0  0  0  0  0  0  0
    9.3113    5.3049   14.4911 C   0  0  0  0  0  0  0  0  0  0  0  0
    9.4607    7.5646   16.0139 C   0  0  0  0  0  0  0  0  0  0  0  0
   10.4192    7.3157   15.0955 C   0  0  0  0  0  0  0  0  0  0  0  0
   10.2489    6.4227   23.0218 N   0  0  0  0  0  0  0  0  0  0  0  0
    7.2472    8.0746   23.5050 C   0  0  0  0  0  0  0  0  0  0  0  0
    9.2051    6.9101   23.4604 C   0  0  0  0  0  0  0  0  0  0  0  0
   11.9646    6.0299   21.4251 C   0  0  0  0  0  0  0  0  0  0  0  0
  1  5  1  0
  1 13  1  0
  2 20  2  0
  2 28  1  0
  2 29  1  0
  3 19  4  0
  3 25  4  0
  4 23  4  0
  4 27  1  0
  4 30  4  0
  5 17  1  0
  6  8  1  0
  6 29  1  0
  7 24  4  0
  7 26  4  0
  8 28  1  0
  9 13  2  0
 10 18  1  0
 10 21  4  0
 10 30  4  0
 11 17  2  0
 12 18  1  0
 13 15  1  0
 14 24  1  0
 15 25  1  0
 16 28  2  0
 17 20  1  0
 19 24  4  0
 20 23  1  0
 21 22  4  0
 22 23  4  0
 25 26  4  0
 27 29  2  0
M  END
$$$$

 Created by Python create_sdf_string function

 30 33  0  0  0  0  0  0  0  0999 V2000
    8.3036    9.8571   18.4133 C   0  0  0  0  0  0  0  0  0  0  0  0
    8.3694    7.6612   22.6703 C   0  0  0  0  0  0  0  0  0  0  0  0
    8.4143    6.6863   16.2273 C   0  0  0  0  0  0  0  0  0  0  0  0
   10.7581    6.5674   21.7636 C   0  0  0  0  0  0  0  0  0  0  0  0
    8.4452    8.7960   19.2958 O   0  0  0  0  0  0  0  0  0  0  0  0
    8.7122    6.7842   24.8569 C   0  0  0  0  0  0  0  0  0  0  0  0
   10.3400    6.1726   14.3081 C   0  0  0  0  0  0  0  0  0  0  0  0
    7.4297    7.5873   24.8962 C   0  0  0  0  0  0  0  0  0  0  0  0
    8.1566   10.0536   16.0516 O   0  0  0  0  0  0  0  0  0  0  0  0
   12.4989    6.2074   20.1776 C   0  0  0  0  0  0  0  0  0  0  0  0
    6.9192    9.1053   20.9073 O   0  0  0  0  0  0  0  0  0  0  0  0
   14.3979    6.0729   18.7784 C   0  0  0  0  0  0  0  0  0  0  0  0
    8.6811    9.5354   16.9998 C   0  0  0  0  0  0  0  0  0  0  0  0
    9.2512    4.2713   13.7653 O   0  0  0  0  0  0  0  0  0  0  0  0
    9.6495    8.6317   16.8332 N   0  0  0  0  0  0  0  0  0  0  0  0
    6.2934    8.6988   23.1988 O   0  0  0  0  0  0  0  0  0  0  0  0
    7.9806    8.6543   20.5437 C   0  0  0  0  0  0  0  0  0  0  0  0
   13.7270    5.7144   19.8610 O   0  0  0  0  0  0  0  0  0  0  0  0
    8.3351    5.5235   15.4478 C   0  0  0  0  0  0  0  0  0  0  0  0
    8.7700    7.8434   21.3915 C   0  0  0  0  0  0  0  0  0  0  0  0
   11.7856    6.8851   19.2401 C   0  0  0  0  0  0  0  0  0  0  0  0
   10.5281    7.4276   19.5649 C   0  0  0  0  0  0  0  0  0  0  0  0
   10.0256    7.2907   20.8484 C   0  0  0  0  0  0  0  0  0  0  0  0
    9.3113    5.3049   14.4911 C   0  0  0  0  0  0  0  0  0  0  0  0
    9.4607    7.5646   16.0139 C   0  0  0  0  0  0  0  0  0  0  0  0
   10.4192    7.3157   15.0955 C   0  0  0  0  0  0  0  0  0  0  0  0
   10.2489    6.4227   23.0218 N   0  0  0  0  0  0  0  0  0  0  0  0
    7.2472    8.0746   23.5050 C   0  0  0  0  0  0  0  0  0  0  0  0
    9.2051    6.9101   23.4604 C   0  0  0  0  0  0  0  0  0  0  0  0
   11.9646    6.0299   21.4251 C   0  0  0  0  0  0  0  0  0  0  0  0
  1  5  1  0
  1 13  1  0
  2 20  2  0
  2 28  1  0
  2 29  1  0
  3 19  4  0
  3 25  4  0
  4 23  4  0
  4 27  1  0
  4 30  4  0
  5 17  1  0
  6  8  1  0
  6 29  1  0
  7 24  4  0
  7 26  4  0
  8 28  1  0
  9 13  2  0
 10 18  1  0
 10 21  4  0
 10 30  4  0
 11 17  2  0
 12 18  1  0
 13 15  1  0
 14 24  1  0
 15 25  1  0
 16 28  2  0
 17 20  1  0
 19 24  4  0
 20 23  1  0
 21 22  4  0
 22 23  4  0
 25 26  4  0
 27 29  2  0
M  END
$$$$

 Created by Python create_sdf_string function

 30 33  0  0  0  0  0  0  0  0999 V2000
    8.3036    9.8571   18.4133 C   0  0  0  0  0  0  0  0  0  0  0  0
    8.3694    7.6612   22.6703 C   0  0  0  0  0  0  0  0  0  0  0  0
    8.4143    6.6863   16.2273 C   0  0  0  0  0  0  0  0  0  0  0  0
   10.7581    6.5674   21.7636 C   0  0  0  0  0  0  0  0  0  0  0  0
    8.4452    8.7960   19.2958 O   0  0  0  0  0  0  0  0  0  0  0  0
    8.7122    6.7842   24.8569 C   0  0  0  0  0  0  0  0  0  0  0  0
   10.3400    6.1726   14.3081 C   0  0  0  0  0  0  0  0  0  0  0  0
    7.4297    7.5873   24.8962 C   0  0  0  0  0  0  0  0  0  0  0  0
    8.1566   10.0536   16.0516 O   0  0  0  0  0  0  0  0  0  0  0  0
   12.4989    6.2074   20.1776 C   0  0  0  0  0  0  0  0  0  0  0  0
    6.9192    9.1053   20.9073 O   0  0  0  0  0  0  0  0  0  0  0  0
   14.3979    6.0729   18.7784 C   0  0  0  0  0  0  0  0  0  0  0  0
    8.6811    9.5354   16.9998 C   0  0  0  0  0  0  0  0  0  0  0  0
    9.2512    4.2713   13.7653 O   0  0  0  0  0  0  0  0  0  0  0  0
    9.6495    8.6317   16.8332 N   0  0  0  0  0  0  0  0  0  0  0  0
    6.2934    8.6988   23.1988 O   0  0  0  0  0  0  0  0  0  0  0  0
    7.9806    8.6543   20.5437 C   0  0  0  0  0  0  0  0  0  0  0  0
   13.7270    5.7144   19.8610 O   0  0  0  0  0  0  0  0  0  0  0  0
    8.3351    5.5235   15.4478 C   0  0  0  0  0  0  0  0  0  0  0  0
    8.7700    7.8434   21.3915 C   0  0  0  0  0  0  0  0  0  0  0  0
   11.7856    6.8851   19.2401 C   0  0  0  0  0  0  0  0  0  0  0  0
   10.5281    7.4276   19.5649 C   0  0  0  0  0  0  0  0  0  0  0  0
   10.0256    7.2907   20.8484 C   0  0  0  0  0  0  0  0  0  0  0  0
    9.3113    5.3049   14.4911 C   0  0  0  0  0  0  0  0  0  0  0  0
    9.4607    7.5646   16.0139 C   0  0  0  0  0  0  0  0  0  0  0  0
   10.4192    7.3157   15.0955 C   0  0  0  0  0  0  0  0  0  0  0  0
   10.2489    6.4227   23.0218 N   0  0  0  0  0  0  0  0  0  0  0  0
    7.2472    8.0746   23.5050 C   0  0  0  0  0  0  0  0  0  0  0  0
    9.2051    6.9101   23.4604 C   0  0  0  0  0  0  0  0  0  0  0  0
   11.9646    6.0299   21.4251 C   0  0  0  0  0  0  0  0  0  0  0  0
  1  5  1  0
  1 13  1  0
  2 20  2  0
  2 28  1  0
  2 29  1  0
  3 19  4  0
  3 25  4  0
  4 23  4  0
  4 27  1  0
  4 30  4  0
  5 17  1  0
  6  8  1  0
  6 29  1  0
  7 24  4  0
  7 26  4  0
  8 28  1  0
  9 13  2  0
 10 18  1  0
 10 21  4  0
 10 30  4  0
 11 17  2  0
 12 18  1  0
 13 15  1  0
 14 24  1  0
 15 25  1  0
 16 28  2  0
 17 20  1  0
 19 24  4  0
 20 23  1  0
 21 22  4  0
 22 23  4  0
 25 26  4  0
 27 29  2  0
M  END
$$$$

 Created by Python create_sdf_string function

 30 33  0  0  0  0  0  0  0  0999 V2000
    8.3036    9.8571   18.4133 C   0  0  0  0  0  0  0  0  0  0  0  0
    8.3694    7.6612   22.6703 C   0  0  0  0  0  0  0  0  0  0  0  0
    8.4143    6.6863   16.2273 C   0  0  0  0  0  0  0  0  0  0  0  0
   10.7581    6.5674   21.7636 C   0  0  0  0  0  0  0  0  0  0  0  0
    8.4452    8.7960   19.2958 O   0  0  0  0  0  0  0  0  0  0  0  0
    8.7122    6.7842   24.8569 C   0  0  0  0  0  0  0  0  0  0  0  0
   10.3400    6.1726   14.3081 C   0  0  0  0  0  0  0  0  0  0  0  0
    7.4297    7.5873   24.8962 C   0  0  0  0  0  0  0  0  0  0  0  0
    8.1566   10.0536   16.0516 O   0  0  0  0  0  0  0  0  0  0  0  0
   12.4989    6.2074   20.1776 C   0  0  0  0  0  0  0  0  0  0  0  0
    6.9192    9.1053   20.9073 O   0  0  0  0  0  0  0  0  0  0  0  0
   14.3979    6.0729   18.7784 C   0  0  0  0  0  0  0  0  0  0  0  0
    8.6811    9.5354   16.9998 C   0  0  0  0  0  0  0  0  0  0  0  0
    9.2512    4.2713   13.7653 O   0  0  0  0  0  0  0  0  0  0  0  0
    9.6495    8.6317   16.8332 N   0  0  0  0  0  0  0  0  0  0  0  0
    6.2934    8.6988   23.1988 O   0  0  0  0  0  0  0  0  0  0  0  0
    7.9806    8.6543   20.5437 C   0  0  0  0  0  0  0  0  0  0  0  0
   13.7270    5.7144   19.8610 O   0  0  0  0  0  0  0  0  0  0  0  0
    8.3351    5.5235   15.4478 C   0  0  0  0  0  0  0  0  0  0  0  0
    8.7700    7.8434   21.3915 C   0  0  0  0  0  0  0  0  0  0  0  0
   11.7856    6.8851   19.2401 C   0  0  0  0  0  0  0  0  0  0  0  0
   10.5281    7.4276   19.5649 C   0  0  0  0  0  0  0  0  0  0  0  0
   10.0256    7.2907   20.8484 C   0  0  0  0  0  0  0  0  0  0  0  0
    9.3113    5.3049   14.4911 C   0  0  0  0  0  0  0  0  0  0  0  0
    9.4607    7.5646   16.0139 C   0  0  0  0  0  0  0  0  0  0  0  0
   10.4192    7.3157   15.0955 C   0  0  0  0  0  0  0  0  0  0  0  0
   10.2489    6.4227   23.0218 N   0  0  0  0  0  0  0  0  0  0  0  0
    7.2472    8.0746   23.5050 C   0  0  0  0  0  0  0  0  0  0  0  0
    9.2051    6.9101   23.4604 C   0  0  0  0  0  0  0  0  0  0  0  0
   11.9646    6.0299   21.4251 C   0  0  0  0  0  0  0  0  0  0  0  0
  1  5  1  0
  1 13  1  0
  2 20  2  0
  2 28  1  0
  2 29  1  0
  3 19  4  0
  3 25  4  0
  4 23  4  0
  4 27  1  0
  4 30  4  0
  5 17  1  0
  6  8  1  0
  6 29  1  0
  7 24  4  0
  7 26  4  0
  8 28  1  0
  9 13  2  0
 10 18  1  0
 10 21  4  0
 10 30  4  0
 11 17  2  0
 12 18  1  0
 13 15  1  0
 14 24  1  0
 15 25  1  0
 16 28  2  0
 17 20  1  0
 19 24  4  0
 20 23  1  0
 21 22  4  0
 22 23  4  0
 25 26  4  0
 27 29  2  0
M  END
$$$$

 Created by Python create_sdf_string function

 30 33  0  0  0  0  0  0  0  0999 V2000
    8.3036    9.8571   18.4133 C   0  0  0  0  0  0  0  0  0  0  0  0
    8.3694    7.6612   22.6703 C   0  0  0  0  0  0  0  0  0  0  0  0
    8.4143    6.6863   16.2273 C   0  0  0  0  0  0  0  0  0  0  0  0
   10.7581    6.5674   21.7636 C   0  0  0  0  0  0  0  0  0  0  0  0
    8.4452    8.7960   19.2958 O   0  0  0  0  0  0  0  0  0  0  0  0
    8.7122    6.7842   24.8569 C   0  0  0  0  0  0  0  0  0  0  0  0
   10.3400    6.1726   14.3081 C   0  0  0  0  0  0  0  0  0  0  0  0
    7.4297    7.5873   24.8962 C   0  0  0  0  0  0  0  0  0  0  0  0
    8.1566   10.0536   16.0516 O   0  0  0  0  0  0  0  0  0  0  0  0
   12.4989    6.2074   20.1776 C   0  0  0  0  0  0  0  0  0  0  0  0
    6.9192    9.1053   20.9073 O   0  0  0  0  0  0  0  0  0  0  0  0
   14.3979    6.0729   18.7784 C   0  0  0  0  0  0  0  0  0  0  0  0
    8.6811    9.5354   16.9998 C   0  0  0  0  0  0  0  0  0  0  0  0
    9.2512    4.2713   13.7653 O   0  0  0  0  0  0  0  0  0  0  0  0
    9.6495    8.6317   16.8332 N   0  0  0  0  0  0  0  0  0  0  0  0
    6.2934    8.6988   23.1988 O   0  0  0  0  0  0  0  0  0  0  0  0
    7.9806    8.6543   20.5437 C   0  0  0  0  0  0  0  0  0  0  0  0
   13.7270    5.7144   19.8610 O   0  0  0  0  0  0  0  0  0  0  0  0
    8.3351    5.5235   15.4478 C   0  0  0  0  0  0  0  0  0  0  0  0
    8.7700    7.8434   21.3915 C   0  0  0  0  0  0  0  0  0  0  0  0
   11.7856    6.8851   19.2401 C   0  0  0  0  0  0  0  0  0  0  0  0
   10.5281    7.4276   19.5649 C   0  0  0  0  0  0  0  0  0  0  0  0
   10.0256    7.2907   20.8484 C   0  0  0  0  0  0  0  0  0  0  0  0
    9.3113    5.3049   14.4911 C   0  0  0  0  0  0  0  0  0  0  0  0
    9.4607    7.5646   16.0139 C   0  0  0  0  0  0  0  0  0  0  0  0
   10.4192    7.3157   15.0955 C   0  0  0  0  0  0  0  0  0  0  0  0
   10.2489    6.4227   23.0218 N   0  0  0  0  0  0  0  0  0  0  0  0
    7.2472    8.0746   23.5050 C   0  0  0  0  0  0  0  0  0  0  0  0
    9.2051    6.9101   23.4604 C   0  0  0  0  0  0  0  0  0  0  0  0
   11.9646    6.0299   21.4251 C   0  0  0  0  0  0  0  0  0  0  0  0
  1  5  1  0
  1 13  1  0
  2 20  2  0
  2 28  1  0
  2 29  1  0
  3 19  4  0
  3 25  4  0
  4 23  4  0
  4 27  1  0
  4 30  4  0
  5 17  1  0
  6  8  1  0
  6 29  1  0
  7 24  4  0
  7 26  4  0
  8 28  1  0
  9 13  2  0
 10 18  1  0
 10 21  4  0
 10 30  4  0
 11 17  2  0
 12 18  1  0
 13 15  1  0
 14 24  1  0
 15 25  1  0
 16 28  2  0
 17 20  1  0
 19 24  4  0
 20 23  1  0
 21 22  4  0
 22 23  4  0
 25 26  4  0
 27 29  2  0
M  END
$$$$

 Created by Python create_sdf_string function

 30 33  0  0  0  0  0  0  0  0999 V2000
    8.3036    9.8571   18.4133 C   0  0  0  0  0  0  0  0  0  0  0  0
    8.3694    7.6612   22.6703 C   0  0  0  0  0  0  0  0  0  0  0  0
    8.4143    6.6863   16.2273 C   0  0  0  0  0  0  0  0  0  0  0  0
   10.7581    6.5674   21.7636 C   0  0  0  0  0  0  0  0  0  0  0  0
    8.4452    8.7960   19.2958 O   0  0  0  0  0  0  0  0  0  0  0  0
    8.7122    6.7842   24.8569 C   0  0  0  0  0  0  0  0  0  0  0  0
   10.3400    6.1726   14.3081 C   0  0  0  0  0  0  0  0  0  0  0  0
    7.4297    7.5873   24.8962 C   0  0  0  0  0  0  0  0  0  0  0  0
    8.1566   10.0536   16.0516 O   0  0  0  0  0  0  0  0  0  0  0  0
   12.4989    6.2074   20.1776 C   0  0  0  0  0  0  0  0  0  0  0  0
    6.9192    9.1053   20.9073 O   0  0  0  0  0  0  0  0  0  0  0  0
   14.3979    6.0729   18.7784 C   0  0  0  0  0  0  0  0  0  0  0  0
    8.6811    9.5354   16.9998 C   0  0  0  0  0  0  0  0  0  0  0  0
    9.2512    4.2713   13.7653 O   0  0  0  0  0  0  0  0  0  0  0  0
    9.6495    8.6317   16.8332 N   0  0  0  0  0  0  0  0  0  0  0  0
    6.2934    8.6988   23.1988 O   0  0  0  0  0  0  0  0  0  0  0  0
    7.9806    8.6543   20.5437 C   0  0  0  0  0  0  0  0  0  0  0  0
   13.7270    5.7144   19.8610 O   0  0  0  0  0  0  0  0  0  0  0  0
    8.3351    5.5235   15.4478 C   0  0  0  0  0  0  0  0  0  0  0  0
    8.7700    7.8434   21.3915 C   0  0  0  0  0  0  0  0  0  0  0  0
   11.7856    6.8851   19.2401 C   0  0  0  0  0  0  0  0  0  0  0  0
   10.5281    7.4276   19.5649 C   0  0  0  0  0  0  0  0  0  0  0  0
   10.0256    7.2907   20.8484 C   0  0  0  0  0  0  0  0  0  0  0  0
    9.3113    5.3049   14.4911 C   0  0  0  0  0  0  0  0  0  0  0  0
    9.4607    7.5646   16.0139 C   0  0  0  0  0  0  0  0  0  0  0  0
   10.4192    7.3157   15.0955 C   0  0  0  0  0  0  0  0  0  0  0  0
   10.2489    6.4227   23.0218 N   0  0  0  0  0  0  0  0  0  0  0  0
    7.2472    8.0746   23.5050 C   0  0  0  0  0  0  0  0  0  0  0  0
    9.2051    6.9101   23.4604 C   0  0  0  0  0  0  0  0  0  0  0  0
   11.9646    6.0299   21.4251 C   0  0  0  0  0  0  0  0  0  0  0  0
  1  5  1  0
  1 13  1  0
  2 20  2  0
  2 28  1  0
  2 29  1  0
  3 19  4  0
  3 25  4  0
  4 23  4  0
  4 27  1  0
  4 30  4  0
  5 17  1  0
  6  8  1  0
  6 29  1  0
  7 24  4  0
  7 26  4  0
  8 28  1  0
  9 13  2  0
 10 18  1  0
 10 21  4  0
 10 30  4  0
 11 17  2  0
 12 18  1  0
 13 15  1  0
 14 24  1  0
 15 25  1  0
 16 28  2  0
 17 20  1  0
 19 24  4  0
 20 23  1  0
 21 22  4  0
 22 23  4  0
 25 26  4  0
 27 29  2  0
M  END
$$$$

 Created by Python create_sdf_string function

 30 33  0  0  0  0  0  0  0  0999 V2000
    8.3036    9.8571   18.4133 C   0  0  0  0  0  0  0  0  0  0  0  0
    8.3694    7.6612   22.6703 C   0  0  0  0  0  0  0  0  0  0  0  0
    8.4143    6.6863   16.2273 C   0  0  0  0  0  0  0  0  0  0  0  0
   10.7581    6.5674   21.7636 C   0  0  0  0  0  0  0  0  0  0  0  0
    8.4452    8.7960   19.2958 O   0  0  0  0  0  0  0  0  0  0  0  0
    8.7122    6.7842   24.8569 C   0  0  0  0  0  0  0  0  0  0  0  0
   10.3400    6.1726   14.3081 C   0  0  0  0  0  0  0  0  0  0  0  0
    7.4297    7.5873   24.8962 C   0  0  0  0  0  0  0  0  0  0  0  0
    8.1566   10.0536   16.0516 O   0  0  0  0  0  0  0  0  0  0  0  0
   12.4989    6.2074   20.1776 C   0  0  0  0  0  0  0  0  0  0  0  0
    6.9192    9.1053   20.9073 O   0  0  0  0  0  0  0  0  0  0  0  0
   14.3979    6.0729   18.7784 C   0  0  0  0  0  0  0  0  0  0  0  0
    8.6811    9.5354   16.9998 C   0  0  0  0  0  0  0  0  0  0  0  0
    9.2512    4.2713   13.7653 O   0  0  0  0  0  0  0  0  0  0  0  0
    9.6495    8.6317   16.8332 N   0  0  0  0  0  0  0  0  0  0  0  0
    6.2934    8.6988   23.1988 O   0  0  0  0  0  0  0  0  0  0  0  0
    7.9806    8.6543   20.5437 C   0  0  0  0  0  0  0  0  0  0  0  0
   13.7270    5.7144   19.8610 O   0  0  0  0  0  0  0  0  0  0  0  0
    8.3351    5.5235   15.4478 C   0  0  0  0  0  0  0  0  0  0  0  0
    8.7700    7.8434   21.3915 C   0  0  0  0  0  0  0  0  0  0  0  0
   11.7856    6.8851   19.2401 C   0  0  0  0  0  0  0  0  0  0  0  0
   10.5281    7.4276   19.5649 C   0  0  0  0  0  0  0  0  0  0  0  0
   10.0256    7.2907   20.8484 C   0  0  0  0  0  0  0  0  0  0  0  0
    9.3113    5.3049   14.4911 C   0  0  0  0  0  0  0  0  0  0  0  0
    9.4607    7.5646   16.0139 C   0  0  0  0  0  0  0  0  0  0  0  0
   10.4192    7.3157   15.0955 C   0  0  0  0  0  0  0  0  0  0  0  0
   10.2489    6.4227   23.0218 N   0  0  0  0  0  0  0  0  0  0  0  0
    7.2472    8.0746   23.5050 C   0  0  0  0  0  0  0  0  0  0  0  0
    9.2051    6.9101   23.4604 C   0  0  0  0  0  0  0  0  0  0  0  0
   11.9646    6.0299   21.4251 C   0  0  0  0  0  0  0  0  0  0  0  0
  1  5  1  0
  1 13  1  0
  2 20  2  0
  2 28  1  0
  2 29  1  0
  3 19  4  0
  3 25  4  0
  4 23  4  0
  4 27  1  0
  4 30  4  0
  5 17  1  0
  6  8  1  0
  6 29  1  0
  7 24  4  0
  7 26  4  0
  8 28  1  0
  9 13  2  0
 10 18  1  0
 10 21  4  0
 10 30  4  0
 11 17  2  0
 12 18  1  0
 13 15  1  0
 14 24  1  0
 15 25  1  0
 16 28  2  0
 17 20  1  0
 19 24  4  0
 20 23  1  0
 21 22  4  0
 22 23  4  0
 25 26  4  0
 27 29  2  0
M  END
$$$$

 Created by Python create_sdf_string function

 30 33  0  0  0  0  0  0  0  0999 V2000
    8.3036    9.8571   18.4133 C   0  0  0  0  0  0  0  0  0  0  0  0
    8.3694    7.6612   22.6703 C   0  0  0  0  0  0  0  0  0  0  0  0
    8.4143    6.6863   16.2273 C   0  0  0  0  0  0  0  0  0  0  0  0
   10.7581    6.5674   21.7636 C   0  0  0  0  0  0  0  0  0  0  0  0
    8.4452    8.7960   19.2958 O   0  0  0  0  0  0  0  0  0  0  0  0
    8.7122    6.7842   24.8569 C   0  0  0  0  0  0  0  0  0  0  0  0
   10.3400    6.1726   14.3081 C   0  0  0  0  0  0  0  0  0  0  0  0
    7.4297    7.5873   24.8962 C   0  0  0  0  0  0  0  0  0  0  0  0
    8.1566   10.0536   16.0516 O   0  0  0  0  0  0  0  0  0  0  0  0
   12.4989    6.2074   20.1776 C   0  0  0  0  0  0  0  0  0  0  0  0
    6.9192    9.1053   20.9073 O   0  0  0  0  0  0  0  0  0  0  0  0
   14.3979    6.0729   18.7784 C   0  0  0  0  0  0  0  0  0  0  0  0
    8.6811    9.5354   16.9998 C   0  0  0  0  0  0  0  0  0  0  0  0
    9.2512    4.2713   13.7653 O   0  0  0  0  0  0  0  0  0  0  0  0
    9.6495    8.6317   16.8332 N   0  0  0  0  0  0  0  0  0  0  0  0
    6.2934    8.6988   23.1988 O   0  0  0  0  0  0  0  0  0  0  0  0
    7.9806    8.6543   20.5437 C   0  0  0  0  0  0  0  0  0  0  0  0
   13.7270    5.7144   19.8610 O   0  0  0  0  0  0  0  0  0  0  0  0
    8.3351    5.5235   15.4478 C   0  0  0  0  0  0  0  0  0  0  0  0
    8.7700    7.8434   21.3915 C   0  0  0  0  0  0  0  0  0  0  0  0
   11.7856    6.8851   19.2401 C   0  0  0  0  0  0  0  0  0  0  0  0
   10.5281    7.4276   19.5649 C   0  0  0  0  0  0  0  0  0  0  0  0
   10.0256    7.2907   20.8484 C   0  0  0  0  0  0  0  0  0  0  0  0
    9.3113    5.3049   14.4911 C   0  0  0  0  0  0  0  0  0  0  0  0
    9.4607    7.5646   16.0139 C   0  0  0  0  0  0  0  0  0  0  0  0
   10.4192    7.3157   15.0955 C   0  0  0  0  0  0  0  0  0  0  0  0
   10.2489    6.4227   23.0218 N   0  0  0  0  0  0  0  0  0  0  0  0
    7.2472    8.0746   23.5050 C   0  0  0  0  0  0  0  0  0  0  0  0
    9.2051    6.9101   23.4604 C   0  0  0  0  0  0  0  0  0  0  0  0
   11.9646    6.0299   21.4251 C   0  0  0  0  0  0  0  0  0  0  0  0
  1  5  1  0
  1 13  1  0
  2 20  2  0
  2 28  1  0
  2 29  1  0
  3 19  4  0
  3 25  4  0
  4 23  4  0
  4 27  1  0
  4 30  4  0
  5 17  1  0
  6  8  1  0
  6 29  1  0
  7 24  4  0
  7 26  4  0
  8 28  1  0
  9 13  2  0
 10 18  1  0
 10 21  4  0
 10 30  4  0
 11 17  2  0
 12 18  1  0
 13 15  1  0
 14 24  1  0
 15 25  1  0
 16 28  2  0
 17 20  1  0
 19 24  4  0
 20 23  1  0
 21 22  4  0
 22 23  4  0
 25 26  4  0
 27 29  2  0
M  END
$$$$

 Created by Python create_sdf_string function

 30 33  0  0  0  0  0  0  0  0999 V2000
    8.3036    9.8571   18.4133 C   0  0  0  0  0  0  0  0  0  0  0  0
    8.3694    7.6612   22.6703 C   0  0  0  0  0  0  0  0  0  0  0  0
    8.4143    6.6863   16.2273 C   0  0  0  0  0  0  0  0  0  0  0  0
   10.7581    6.5674   21.7636 C   0  0  0  0  0  0  0  0  0  0  0  0
    8.4452    8.7960   19.2958 O   0  0  0  0  0  0  0  0  0  0  0  0
    8.7122    6.7842   24.8569 C   0  0  0  0  0  0  0  0  0  0  0  0
   10.3400    6.1726   14.3081 C   0  0  0  0  0  0  0  0  0  0  0  0
    7.4297    7.5873   24.8962 C   0  0  0  0  0  0  0  0  0  0  0  0
    8.1566   10.0536   16.0516 O   0  0  0  0  0  0  0  0  0  0  0  0
   12.4989    6.2074   20.1776 C   0  0  0  0  0  0  0  0  0  0  0  0
    6.9192    9.1053   20.9073 O   0  0  0  0  0  0  0  0  0  0  0  0
   14.3979    6.0729   18.7784 C   0  0  0  0  0  0  0  0  0  0  0  0
    8.6811    9.5354   16.9998 C   0  0  0  0  0  0  0  0  0  0  0  0
    9.2512    4.2713   13.7653 O   0  0  0  0  0  0  0  0  0  0  0  0
    9.6495    8.6317   16.8332 N   0  0  0  0  0  0  0  0  0  0  0  0
    6.2934    8.6988   23.1988 O   0  0  0  0  0  0  0  0  0  0  0  0
    7.9806    8.6543   20.5437 C   0  0  0  0  0  0  0  0  0  0  0  0
   13.7270    5.7144   19.8610 O   0  0  0  0  0  0  0  0  0  0  0  0
    8.3351    5.5235   15.4478 C   0  0  0  0  0  0  0  0  0  0  0  0
    8.7700    7.8434   21.3915 C   0  0  0  0  0  0  0  0  0  0  0  0
   11.7856    6.8851   19.2401 C   0  0  0  0  0  0  0  0  0  0  0  0
   10.5281    7.4276   19.5649 C   0  0  0  0  0  0  0  0  0  0  0  0
   10.0256    7.2907   20.8484 C   0  0  0  0  0  0  0  0  0  0  0  0
    9.3113    5.3049   14.4911 C   0  0  0  0  0  0  0  0  0  0  0  0
    9.4607    7.5646   16.0139 C   0  0  0  0  0  0  0  0  0  0  0  0
   10.4192    7.3157   15.0955 C   0  0  0  0  0  0  0  0  0  0  0  0
   10.2489    6.4227   23.0218 N   0  0  0  0  0  0  0  0  0  0  0  0
    7.2472    8.0746   23.5050 C   0  0  0  0  0  0  0  0  0  0  0  0
    9.2051    6.9101   23.4604 C   0  0  0  0  0  0  0  0  0  0  0  0
   11.9646    6.0299   21.4251 C   0  0  0  0  0  0  0  0  0  0  0  0
  1  5  1  0
  1 13  1  0
  2 20  2  0
  2 28  1  0
  2 29  1  0
  3 19  4  0
  3 25  4  0
  4 23  4  0
  4 27  1  0
  4 30  4  0
  5 17  1  0
  6  8  1  0
  6 29  1  0
  7 24  4  0
  7 26  4  0
  8 28  1  0
  9 13  2  0
 10 18  1  0
 10 21  4  0
 10 30  4  0
 11 17  2  0
 12 18  1  0
 13 15  1  0
 14 24  1  0
 15 25  1  0
 16 28  2  0
 17 20  1  0
 19 24  4  0
 20 23  1  0
 21 22  4  0
 22 23  4  0
 25 26  4  0
 27 29  2  0
M  END
$$$$

 Created by Python create_sdf_string function

 30 33  0  0  0  0  0  0  0  0999 V2000
    8.3036    9.8571   18.4133 C   0  0  0  0  0  0  0  0  0  0  0  0
    8.3694    7.6612   22.6703 C   0  0  0  0  0  0  0  0  0  0  0  0
    8.4143    6.6863   16.2273 C   0  0  0  0  0  0  0  0  0  0  0  0
   10.7581    6.5674   21.7636 C   0  0  0  0  0  0  0  0  0  0  0  0
    8.4452    8.7960   19.2958 O   0  0  0  0  0  0  0  0  0  0  0  0
    8.7122    6.7842   24.8569 C   0  0  0  0  0  0  0  0  0  0  0  0
   10.3400    6.1726   14.3081 C   0  0  0  0  0  0  0  0  0  0  0  0
    7.4297    7.5873   24.8962 C   0  0  0  0  0  0  0  0  0  0  0  0
    8.1566   10.0536   16.0516 O   0  0  0  0  0  0  0  0  0  0  0  0
   12.4989    6.2074   20.1776 C   0  0  0  0  0  0  0  0  0  0  0  0
    6.9192    9.1053   20.9073 O   0  0  0  0  0  0  0  0  0  0  0  0
   14.3979    6.0729   18.7784 C   0  0  0  0  0  0  0  0  0  0  0  0
    8.6811    9.5354   16.9998 C   0  0  0  0  0  0  0  0  0  0  0  0
    9.2512    4.2713   13.7653 O   0  0  0  0  0  0  0  0  0  0  0  0
    9.6495    8.6317   16.8332 N   0  0  0  0  0  0  0  0  0  0  0  0
    6.2934    8.6988   23.1988 O   0  0  0  0  0  0  0  0  0  0  0  0
    7.9806    8.6543   20.5437 C   0  0  0  0  0  0  0  0  0  0  0  0
   13.7270    5.7144   19.8610 O   0  0  0  0  0  0  0  0  0  0  0  0
    8.3351    5.5235   15.4478 C   0  0  0  0  0  0  0  0  0  0  0  0
    8.7700    7.8434   21.3915 C   0  0  0  0  0  0  0  0  0  0  0  0
   11.7856    6.8851   19.2401 C   0  0  0  0  0  0  0  0  0  0  0  0
   10.5281    7.4276   19.5649 C   0  0  0  0  0  0  0  0  0  0  0  0
   10.0256    7.2907   20.8484 C   0  0  0  0  0  0  0  0  0  0  0  0
    9.3113    5.3049   14.4911 C   0  0  0  0  0  0  0  0  0  0  0  0
    9.4607    7.5646   16.0139 C   0  0  0  0  0  0  0  0  0  0  0  0
   10.4192    7.3157   15.0955 C   0  0  0  0  0  0  0  0  0  0  0  0
   10.2489    6.4227   23.0218 N   0  0  0  0  0  0  0  0  0  0  0  0
    7.2472    8.0746   23.5050 C   0  0  0  0  0  0  0  0  0  0  0  0
    9.2051    6.9101   23.4604 C   0  0  0  0  0  0  0  0  0  0  0  0
   11.9646    6.0299   21.4251 C   0  0  0  0  0  0  0  0  0  0  0  0
  1  5  1  0
  1 13  1  0
  2 20  2  0
  2 28  1  0
  2 29  1  0
  3 19  4  0
  3 25  4  0
  4 23  4  0
  4 27  1  0
  4 30  4  0
  5 17  1  0
  6  8  1  0
  6 29  1  0
  7 24  4  0
  7 26  4  0
  8 28  1  0
  9 13  2  0
 10 18  1  0
 10 21  4  0
 10 30  4  0
 11 17  2  0
 12 18  1  0
 13 15  1  0
 14 24  1  0
 15 25  1  0
 16 28  2  0
 17 20  1  0
 19 24  4  0
 20 23  1  0
 21 22  4  0
 22 23  4  0
 25 26  4  0
 27 29  2  0
M  END
$$$$

 Created by Python create_sdf_string function

 30 33  0  0  0  0  0  0  0  0999 V2000
    8.3036    9.8571   18.4133 C   0  0  0  0  0  0  0  0  0  0  0  0
    8.3694    7.6612   22.6703 C   0  0  0  0  0  0  0  0  0  0  0  0
    8.4143    6.6863   16.2273 C   0  0  0  0  0  0  0  0  0  0  0  0
   10.7581    6.5674   21.7636 C   0  0  0  0  0  0  0  0  0  0  0  0
    8.4452    8.7960   19.2958 O   0  0  0  0  0  0  0  0  0  0  0  0
    8.7122    6.7842   24.8569 C   0  0  0  0  0  0  0  0  0  0  0  0
   10.3400    6.1726   14.3081 C   0  0  0  0  0  0  0  0  0  0  0  0
    7.4297    7.5873   24.8962 C   0  0  0  0  0  0  0  0  0  0  0  0
    8.1566   10.0536   16.0516 O   0  0  0  0  0  0  0  0  0  0  0  0
   12.4989    6.2074   20.1776 C   0  0  0  0  0  0  0  0  0  0  0  0
    6.9192    9.1053   20.9073 O   0  0  0  0  0  0  0  0  0  0  0  0
   14.3979    6.0729   18.7784 C   0  0  0  0  0  0  0  0  0  0  0  0
    8.6811    9.5354   16.9998 C   0  0  0  0  0  0  0  0  0  0  0  0
    9.2512    4.2713   13.7653 O   0  0  0  0  0  0  0  0  0  0  0  0
    9.6495    8.6317   16.8332 N   0  0  0  0  0  0  0  0  0  0  0  0
    6.2934    8.6988   23.1988 O   0  0  0  0  0  0  0  0  0  0  0  0
    7.9806    8.6543   20.5437 C   0  0  0  0  0  0  0  0  0  0  0  0
   13.7270    5.7144   19.8610 O   0  0  0  0  0  0  0  0  0  0  0  0
    8.3351    5.5235   15.4478 C   0  0  0  0  0  0  0  0  0  0  0  0
    8.7700    7.8434   21.3915 C   0  0  0  0  0  0  0  0  0  0  0  0
   11.7856    6.8851   19.2401 C   0  0  0  0  0  0  0  0  0  0  0  0
   10.5281    7.4276   19.5649 C   0  0  0  0  0  0  0  0  0  0  0  0
   10.0256    7.2907   20.8484 C   0  0  0  0  0  0  0  0  0  0  0  0
    9.3113    5.3049   14.4911 C   0  0  0  0  0  0  0  0  0  0  0  0
    9.4607    7.5646   16.0139 C   0  0  0  0  0  0  0  0  0  0  0  0
   10.4192    7.3157   15.0955 C   0  0  0  0  0  0  0  0  0  0  0  0
   10.2489    6.4227   23.0218 N   0  0  0  0  0  0  0  0  0  0  0  0
    7.2472    8.0746   23.5050 C   0  0  0  0  0  0  0  0  0  0  0  0
    9.2051    6.9101   23.4604 C   0  0  0  0  0  0  0  0  0  0  0  0
   11.9646    6.0299   21.4251 C   0  0  0  0  0  0  0  0  0  0  0  0
  1  5  1  0
  1 13  1  0
  2 20  2  0
  2 28  1  0
  2 29  1  0
  3 19  4  0
  3 25  4  0
  4 23  4  0
  4 27  1  0
  4 30  4  0
  5 17  1  0
  6  8  1  0
  6 29  1  0
  7 24  4  0
  7 26  4  0
  8 28  1  0
  9 13  2  0
 10 18  1  0
 10 21  4  0
 10 30  4  0
 11 17  2  0
 12 18  1  0
 13 15  1  0
 14 24  1  0
 15 25  1  0
 16 28  2  0
 17 20  1  0
 19 24  4  0
 20 23  1  0
 21 22  4  0
 22 23  4  0
 25 26  4  0
 27 29  2  0
M  END
$$$$

 Created by Python create_sdf_string function

 30 33  0  0  0  0  0  0  0  0999 V2000
    8.3036    9.8571   18.4133 C   0  0  0  0  0  0  0  0  0  0  0  0
    8.3694    7.6612   22.6703 C   0  0  0  0  0  0  0  0  0  0  0  0
    8.4143    6.6863   16.2273 C   0  0  0  0  0  0  0  0  0  0  0  0
   10.7581    6.5674   21.7636 C   0  0  0  0  0  0  0  0  0  0  0  0
    8.4452    8.7960   19.2958 O   0  0  0  0  0  0  0  0  0  0  0  0
    8.7122    6.7842   24.8569 C   0  0  0  0  0  0  0  0  0  0  0  0
   10.3400    6.1726   14.3081 C   0  0  0  0  0  0  0  0  0  0  0  0
    7.4297    7.5873   24.8962 C   0  0  0  0  0  0  0  0  0  0  0  0
    8.1566   10.0536   16.0516 O   0  0  0  0  0  0  0  0  0  0  0  0
   12.4989    6.2074   20.1776 C   0  0  0  0  0  0  0  0  0  0  0  0
    6.9192    9.1053   20.9073 O   0  0  0  0  0  0  0  0  0  0  0  0
   14.3979    6.0729   18.7784 C   0  0  0  0  0  0  0  0  0  0  0  0
    8.6811    9.5354   16.9998 C   0  0  0  0  0  0  0  0  0  0  0  0
    9.2512    4.2713   13.7653 O   0  0  0  0  0  0  0  0  0  0  0  0
    9.6495    8.6317   16.8332 N   0  0  0  0  0  0  0  0  0  0  0  0
    6.2934    8.6988   23.1988 O   0  0  0  0  0  0  0  0  0  0  0  0
    7.9806    8.6543   20.5437 C   0  0  0  0  0  0  0  0  0  0  0  0
   13.7270    5.7144   19.8610 O   0  0  0  0  0  0  0  0  0  0  0  0
    8.3351    5.5235   15.4478 C   0  0  0  0  0  0  0  0  0  0  0  0
    8.7700    7.8434   21.3915 C   0  0  0  0  0  0  0  0  0  0  0  0
   11.7856    6.8851   19.2401 C   0  0  0  0  0  0  0  0  0  0  0  0
   10.5281    7.4276   19.5649 C   0  0  0  0  0  0  0  0  0  0  0  0
   10.0256    7.2907   20.8484 C   0  0  0  0  0  0  0  0  0  0  0  0
    9.3113    5.3049   14.4911 C   0  0  0  0  0  0  0  0  0  0  0  0
    9.4607    7.5646   16.0139 C   0  0  0  0  0  0  0  0  0  0  0  0
   10.4192    7.3157   15.0955 C   0  0  0  0  0  0  0  0  0  0  0  0
   10.2489    6.4227   23.0218 N   0  0  0  0  0  0  0  0  0  0  0  0
    7.2472    8.0746   23.5050 C   0  0  0  0  0  0  0  0  0  0  0  0
    9.2051    6.9101   23.4604 C   0  0  0  0  0  0  0  0  0  0  0  0
   11.9646    6.0299   21.4251 C   0  0  0  0  0  0  0  0  0  0  0  0
  1  5  1  0
  1 13  1  0
  2 20  2  0
  2 28  1  0
  2 29  1  0
  3 19  4  0
  3 25  4  0
  4 23  4  0
  4 27  1  0
  4 30  4  0
  5 17  1  0
  6  8  1  0
  6 29  1  0
  7 24  4  0
  7 26  4  0
  8 28  1  0
  9 13  2  0
 10 18  1  0
 10 21  4  0
 10 30  4  0
 11 17  2  0
 12 18  1  0
 13 15  1  0
 14 24  1  0
 15 25  1  0
 16 28  2  0
 17 20  1  0
 19 24  4  0
 20 23  1  0
 21 22  4  0
 22 23  4  0
 25 26  4  0
 27 29  2  0
M  END
$$$$

 Created by Python create_sdf_string function

 30 33  0  0  0  0  0  0  0  0999 V2000
    8.3036    9.8571   18.4133 C   0  0  0  0  0  0  0  0  0  0  0  0
    8.3694    7.6612   22.6703 C   0  0  0  0  0  0  0  0  0  0  0  0
    8.4143    6.6863   16.2273 C   0  0  0  0  0  0  0  0  0  0  0  0
   10.7581    6.5674   21.7636 C   0  0  0  0  0  0  0  0  0  0  0  0
    8.4452    8.7960   19.2958 O   0  0  0  0  0  0  0  0  0  0  0  0
    8.7122    6.7842   24.8569 C   0  0  0  0  0  0  0  0  0  0  0  0
   10.3400    6.1726   14.3081 C   0  0  0  0  0  0  0  0  0  0  0  0
    7.4297    7.5873   24.8962 C   0  0  0  0  0  0  0  0  0  0  0  0
    8.1566   10.0536   16.0516 O   0  0  0  0  0  0  0  0  0  0  0  0
   12.4989    6.2074   20.1776 C   0  0  0  0  0  0  0  0  0  0  0  0
    6.9192    9.1053   20.9073 O   0  0  0  0  0  0  0  0  0  0  0  0
   14.3979    6.0729   18.7784 C   0  0  0  0  0  0  0  0  0  0  0  0
    8.6811    9.5354   16.9998 C   0  0  0  0  0  0  0  0  0  0  0  0
    9.2512    4.2713   13.7653 O   0  0  0  0  0  0  0  0  0  0  0  0
    9.6495    8.6317   16.8332 N   0  0  0  0  0  0  0  0  0  0  0  0
    6.2934    8.6988   23.1988 O   0  0  0  0  0  0  0  0  0  0  0  0
    7.9806    8.6543   20.5437 C   0  0  0  0  0  0  0  0  0  0  0  0
   13.7270    5.7144   19.8610 O   0  0  0  0  0  0  0  0  0  0  0  0
    8.3351    5.5235   15.4478 C   0  0  0  0  0  0  0  0  0  0  0  0
    8.7700    7.8434   21.3915 C   0  0  0  0  0  0  0  0  0  0  0  0
   11.7856    6.8851   19.2401 C   0  0  0  0  0  0  0  0  0  0  0  0
   10.5281    7.4276   19.5649 C   0  0  0  0  0  0  0  0  0  0  0  0
   10.0256    7.2907   20.8484 C   0  0  0  0  0  0  0  0  0  0  0  0
    9.3113    5.3049   14.4911 C   0  0  0  0  0  0  0  0  0  0  0  0
    9.4607    7.5646   16.0139 C   0  0  0  0  0  0  0  0  0  0  0  0
   10.4192    7.3157   15.0955 C   0  0  0  0  0  0  0  0  0  0  0  0
   10.2489    6.4227   23.0218 N   0  0  0  0  0  0  0  0  0  0  0  0
    7.2472    8.0746   23.5050 C   0  0  0  0  0  0  0  0  0  0  0  0
    9.2051    6.9101   23.4604 C   0  0  0  0  0  0  0  0  0  0  0  0
   11.9646    6.0299   21.4251 C   0  0  0  0  0  0  0  0  0  0  0  0
  1  5  1  0
  1 13  1  0
  2 20  2  0
  2 28  1  0
  2 29  1  0
  3 19  4  0
  3 25  4  0
  4 23  4  0
  4 27  1  0
  4 30  4  0
  5 17  1  0
  6  8  1  0
  6 29  1  0
  7 24  4  0
  7 26  4  0
  8 28  1  0
  9 13  2  0
 10 18  1  0
 10 21  4  0
 10 30  4  0
 11 17  2  0
 12 18  1  0
 13 15  1  0
 14 24  1  0
 15 25  1  0
 16 28  2  0
 17 20  1  0
 19 24  4  0
 20 23  1  0
 21 22  4  0
 22 23  4  0
 25 26  4  0
 27 29  2  0
M  END
$$$$

 Created by Python create_sdf_string function

 30 33  0  0  0  0  0  0  0  0999 V2000
    8.3036    9.8571   18.4133 C   0  0  0  0  0  0  0  0  0  0  0  0
    8.3694    7.6612   22.6703 C   0  0  0  0  0  0  0  0  0  0  0  0
    8.4143    6.6863   16.2273 C   0  0  0  0  0  0  0  0  0  0  0  0
   10.7581    6.5674   21.7636 C   0  0  0  0  0  0  0  0  0  0  0  0
    8.4452    8.7960   19.2958 O   0  0  0  0  0  0  0  0  0  0  0  0
    8.7122    6.7842   24.8569 C   0  0  0  0  0  0  0  0  0  0  0  0
   10.3400    6.1726   14.3081 C   0  0  0  0  0  0  0  0  0  0  0  0
    7.4297    7.5873   24.8962 C   0  0  0  0  0  0  0  0  0  0  0  0
    8.1566   10.0536   16.0516 O   0  0  0  0  0  0  0  0  0  0  0  0
   12.4989    6.2074   20.1776 C   0  0  0  0  0  0  0  0  0  0  0  0
    6.9192    9.1053   20.9073 O   0  0  0  0  0  0  0  0  0  0  0  0
   14.3979    6.0729   18.7784 C   0  0  0  0  0  0  0  0  0  0  0  0
    8.6811    9.5354   16.9998 C   0  0  0  0  0  0  0  0  0  0  0  0
    9.2512    4.2713   13.7653 O   0  0  0  0  0  0  0  0  0  0  0  0
    9.6495    8.6317   16.8332 N   0  0  0  0  0  0  0  0  0  0  0  0
    6.2934    8.6988   23.1988 O   0  0  0  0  0  0  0  0  0  0  0  0
    7.9806    8.6543   20.5437 C   0  0  0  0  0  0  0  0  0  0  0  0
   13.7270    5.7144   19.8610 O   0  0  0  0  0  0  0  0  0  0  0  0
    8.3351    5.5235   15.4478 C   0  0  0  0  0  0  0  0  0  0  0  0
    8.7700    7.8434   21.3915 C   0  0  0  0  0  0  0  0  0  0  0  0
   11.7856    6.8851   19.2401 C   0  0  0  0  0  0  0  0  0  0  0  0
   10.5281    7.4276   19.5649 C   0  0  0  0  0  0  0  0  0  0  0  0
   10.0256    7.2907   20.8484 C   0  0  0  0  0  0  0  0  0  0  0  0
    9.3113    5.3049   14.4911 C   0  0  0  0  0  0  0  0  0  0  0  0
    9.4607    7.5646   16.0139 C   0  0  0  0  0  0  0  0  0  0  0  0
   10.4192    7.3157   15.0955 C   0  0  0  0  0  0  0  0  0  0  0  0
   10.2489    6.4227   23.0218 N   0  0  0  0  0  0  0  0  0  0  0  0
    7.2472    8.0746   23.5050 C   0  0  0  0  0  0  0  0  0  0  0  0
    9.2051    6.9101   23.4604 C   0  0  0  0  0  0  0  0  0  0  0  0
   11.9646    6.0299   21.4251 C   0  0  0  0  0  0  0  0  0  0  0  0
  1  5  1  0
  1 13  1  0
  2 20  2  0
  2 28  1  0
  2 29  1  0
  3 19  4  0
  3 25  4  0
  4 23  4  0
  4 27  1  0
  4 30  4  0
  5 17  1  0
  6  8  1  0
  6 29  1  0
  7 24  4  0
  7 26  4  0
  8 28  1  0
  9 13  2  0
 10 18  1  0
 10 21  4  0
 10 30  4  0
 11 17  2  0
 12 18  1  0
 13 15  1  0
 14 24  1  0
 15 25  1  0
 16 28  2  0
 17 20  1  0
 19 24  4  0
 20 23  1  0
 21 22  4  0
 22 23  4  0
 25 26  4  0
 27 29  2  0
M  END
$$$$

 Created by Python create_sdf_string function

 30 33  0  0  0  0  0  0  0  0999 V2000
    8.3036    9.8571   18.4133 C   0  0  0  0  0  0  0  0  0  0  0  0
    8.3694    7.6612   22.6703 C   0  0  0  0  0  0  0  0  0  0  0  0
    8.4143    6.6863   16.2273 C   0  0  0  0  0  0  0  0  0  0  0  0
   10.7581    6.5674   21.7636 C   0  0  0  0  0  0  0  0  0  0  0  0
    8.4452    8.7960   19.2958 O   0  0  0  0  0  0  0  0  0  0  0  0
    8.7122    6.7842   24.8569 C   0  0  0  0  0  0  0  0  0  0  0  0
   10.3400    6.1726   14.3081 C   0  0  0  0  0  0  0  0  0  0  0  0
    7.4297    7.5873   24.8962 C   0  0  0  0  0  0  0  0  0  0  0  0
    8.1566   10.0536   16.0516 O   0  0  0  0  0  0  0  0  0  0  0  0
   12.4989    6.2074   20.1776 C   0  0  0  0  0  0  0  0  0  0  0  0
    6.9192    9.1053   20.9073 O   0  0  0  0  0  0  0  0  0  0  0  0
   14.3979    6.0729   18.7784 C   0  0  0  0  0  0  0  0  0  0  0  0
    8.6811    9.5354   16.9998 C   0  0  0  0  0  0  0  0  0  0  0  0
    9.2512    4.2713   13.7653 O   0  0  0  0  0  0  0  0  0  0  0  0
    9.6495    8.6317   16.8332 N   0  0  0  0  0  0  0  0  0  0  0  0
    6.2934    8.6988   23.1988 O   0  0  0  0  0  0  0  0  0  0  0  0
    7.9806    8.6543   20.5437 C   0  0  0  0  0  0  0  0  0  0  0  0
   13.7270    5.7144   19.8610 O   0  0  0  0  0  0  0  0  0  0  0  0
    8.3351    5.5235   15.4478 C   0  0  0  0  0  0  0  0  0  0  0  0
    8.7700    7.8434   21.3915 C   0  0  0  0  0  0  0  0  0  0  0  0
   11.7856    6.8851   19.2401 C   0  0  0  0  0  0  0  0  0  0  0  0
   10.5281    7.4276   19.5649 C   0  0  0  0  0  0  0  0  0  0  0  0
   10.0256    7.2907   20.8484 C   0  0  0  0  0  0  0  0  0  0  0  0
    9.3113    5.3049   14.4911 C   0  0  0  0  0  0  0  0  0  0  0  0
    9.4607    7.5646   16.0139 C   0  0  0  0  0  0  0  0  0  0  0  0
   10.4192    7.3157   15.0955 C   0  0  0  0  0  0  0  0  0  0  0  0
   10.2489    6.4227   23.0218 N   0  0  0  0  0  0  0  0  0  0  0  0
    7.2472    8.0746   23.5050 C   0  0  0  0  0  0  0  0  0  0  0  0
    9.2051    6.9101   23.4604 C   0  0  0  0  0  0  0  0  0  0  0  0
   11.9646    6.0299   21.4251 C   0  0  0  0  0  0  0  0  0  0  0  0
  1  5  1  0
  1 13  1  0
  2 20  2  0
  2 28  1  0
  2 29  1  0
  3 19  4  0
  3 25  4  0
  4 23  4  0
  4 27  1  0
  4 30  4  0
  5 17  1  0
  6  8  1  0
  6 29  1  0
  7 24  4  0
  7 26  4  0
  8 28  1  0
  9 13  2  0
 10 18  1  0
 10 21  4  0
 10 30  4  0
 11 17  2  0
 12 18  1  0
 13 15  1  0
 14 24  1  0
 15 25  1  0
 16 28  2  0
 17 20  1  0
 19 24  4  0
 20 23  1  0
 21 22  4  0
 22 23  4  0
 25 26  4  0
 27 29  2  0
M  END
$$$$

 Created by Python create_sdf_string function

 30 33  0  0  0  0  0  0  0  0999 V2000
    8.3036    9.8571   18.4133 C   0  0  0  0  0  0  0  0  0  0  0  0
    8.3694    7.6612   22.6703 C   0  0  0  0  0  0  0  0  0  0  0  0
    8.4143    6.6863   16.2273 C   0  0  0  0  0  0  0  0  0  0  0  0
   10.7581    6.5674   21.7636 C   0  0  0  0  0  0  0  0  0  0  0  0
    8.4452    8.7960   19.2958 O   0  0  0  0  0  0  0  0  0  0  0  0
    8.7122    6.7842   24.8569 C   0  0  0  0  0  0  0  0  0  0  0  0
   10.3400    6.1726   14.3081 C   0  0  0  0  0  0  0  0  0  0  0  0
    7.4297    7.5873   24.8962 C   0  0  0  0  0  0  0  0  0  0  0  0
    8.1566   10.0536   16.0516 O   0  0  0  0  0  0  0  0  0  0  0  0
   12.4989    6.2074   20.1776 C   0  0  0  0  0  0  0  0  0  0  0  0
    6.9192    9.1053   20.9073 O   0  0  0  0  0  0  0  0  0  0  0  0
   14.3979    6.0729   18.7784 C   0  0  0  0  0  0  0  0  0  0  0  0
    8.6811    9.5354   16.9998 C   0  0  0  0  0  0  0  0  0  0  0  0
    9.2512    4.2713   13.7653 O   0  0  0  0  0  0  0  0  0  0  0  0
    9.6495    8.6317   16.8332 N   0  0  0  0  0  0  0  0  0  0  0  0
    6.2934    8.6988   23.1988 O   0  0  0  0  0  0  0  0  0  0  0  0
    7.9806    8.6543   20.5437 C   0  0  0  0  0  0  0  0  0  0  0  0
   13.7270    5.7144   19.8610 O   0  0  0  0  0  0  0  0  0  0  0  0
    8.3351    5.5235   15.4478 C   0  0  0  0  0  0  0  0  0  0  0  0
    8.7700    7.8434   21.3915 C   0  0  0  0  0  0  0  0  0  0  0  0
   11.7856    6.8851   19.2401 C   0  0  0  0  0  0  0  0  0  0  0  0
   10.5281    7.4276   19.5649 C   0  0  0  0  0  0  0  0  0  0  0  0
   10.0256    7.2907   20.8484 C   0  0  0  0  0  0  0  0  0  0  0  0
    9.3113    5.3049   14.4911 C   0  0  0  0  0  0  0  0  0  0  0  0
    9.4607    7.5646   16.0139 C   0  0  0  0  0  0  0  0  0  0  0  0
   10.4192    7.3157   15.0955 C   0  0  0  0  0  0  0  0  0  0  0  0
   10.2489    6.4227   23.0218 N   0  0  0  0  0  0  0  0  0  0  0  0
    7.2472    8.0746   23.5050 C   0  0  0  0  0  0  0  0  0  0  0  0
    9.2051    6.9101   23.4604 C   0  0  0  0  0  0  0  0  0  0  0  0
   11.9646    6.0299   21.4251 C   0  0  0  0  0  0  0  0  0  0  0  0
  1  5  1  0
  1 13  1  0
  2 20  2  0
  2 28  1  0
  2 29  1  0
  3 19  4  0
  3 25  4  0
  4 23  4  0
  4 27  1  0
  4 30  4  0
  5 17  1  0
  6  8  1  0
  6 29  1  0
  7 24  4  0
  7 26  4  0
  8 28  1  0
  9 13  2  0
 10 18  1  0
 10 21  4  0
 10 30  4  0
 11 17  2  0
 12 18  1  0
 13 15  1  0
 14 24  1  0
 15 25  1  0
 16 28  2  0
 17 20  1  0
 19 24  4  0
 20 23  1  0
 21 22  4  0
 22 23  4  0
 25 26  4  0
 27 29  2  0
M  END
$$$$

 Created by Python create_sdf_string function

 30 33  0  0  0  0  0  0  0  0999 V2000
    8.3036    9.8571   18.4133 C   0  0  0  0  0  0  0  0  0  0  0  0
    8.3694    7.6612   22.6703 C   0  0  0  0  0  0  0  0  0  0  0  0
    8.4143    6.6863   16.2273 C   0  0  0  0  0  0  0  0  0  0  0  0
   10.7581    6.5674   21.7636 C   0  0  0  0  0  0  0  0  0  0  0  0
    8.4452    8.7960   19.2958 O   0  0  0  0  0  0  0  0  0  0  0  0
    8.7122    6.7842   24.8569 C   0  0  0  0  0  0  0  0  0  0  0  0
   10.3400    6.1726   14.3081 C   0  0  0  0  0  0  0  0  0  0  0  0
    7.4297    7.5873   24.8962 C   0  0  0  0  0  0  0  0  0  0  0  0
    8.1566   10.0536   16.0516 O   0  0  0  0  0  0  0  0  0  0  0  0
   12.4989    6.2074   20.1776 C   0  0  0  0  0  0  0  0  0  0  0  0
    6.9192    9.1053   20.9073 O   0  0  0  0  0  0  0  0  0  0  0  0
   14.3979    6.0729   18.7784 C   0  0  0  0  0  0  0  0  0  0  0  0
    8.6811    9.5354   16.9998 C   0  0  0  0  0  0  0  0  0  0  0  0
    9.2512    4.2713   13.7653 O   0  0  0  0  0  0  0  0  0  0  0  0
    9.6495    8.6317   16.8332 N   0  0  0  0  0  0  0  0  0  0  0  0
    6.2934    8.6988   23.1988 O   0  0  0  0  0  0  0  0  0  0  0  0
    7.9806    8.6543   20.5437 C   0  0  0  0  0  0  0  0  0  0  0  0
   13.7270    5.7144   19.8610 O   0  0  0  0  0  0  0  0  0  0  0  0
    8.3351    5.5235   15.4478 C   0  0  0  0  0  0  0  0  0  0  0  0
    8.7700    7.8434   21.3915 C   0  0  0  0  0  0  0  0  0  0  0  0
   11.7856    6.8851   19.2401 C   0  0  0  0  0  0  0  0  0  0  0  0
   10.5281    7.4276   19.5649 C   0  0  0  0  0  0  0  0  0  0  0  0
   10.0256    7.2907   20.8484 C   0  0  0  0  0  0  0  0  0  0  0  0
    9.3113    5.3049   14.4911 C   0  0  0  0  0  0  0  0  0  0  0  0
    9.4607    7.5646   16.0139 C   0  0  0  0  0  0  0  0  0  0  0  0
   10.4192    7.3157   15.0955 C   0  0  0  0  0  0  0  0  0  0  0  0
   10.2489    6.4227   23.0218 N   0  0  0  0  0  0  0  0  0  0  0  0
    7.2472    8.0746   23.5050 C   0  0  0  0  0  0  0  0  0  0  0  0
    9.2051    6.9101   23.4604 C   0  0  0  0  0  0  0  0  0  0  0  0
   11.9646    6.0299   21.4251 C   0  0  0  0  0  0  0  0  0  0  0  0
  1  5  1  0
  1 13  1  0
  2 20  2  0
  2 28  1  0
  2 29  1  0
  3 19  4  0
  3 25  4  0
  4 23  4  0
  4 27  1  0
  4 30  4  0
  5 17  1  0
  6  8  1  0
  6 29  1  0
  7 24  4  0
  7 26  4  0
  8 28  1  0
  9 13  2  0
 10 18  1  0
 10 21  4  0
 10 30  4  0
 11 17  2  0
 12 18  1  0
 13 15  1  0
 14 24  1  0
 15 25  1  0
 16 28  2  0
 17 20  1  0
 19 24  4  0
 20 23  1  0
 21 22  4  0
 22 23  4  0
 25 26  4  0
 27 29  2  0
M  END
$$$$

 Created by Python create_sdf_string function

 30 33  0  0  0  0  0  0  0  0999 V2000
    8.3036    9.8571   18.4133 C   0  0  0  0  0  0  0  0  0  0  0  0
    8.3694    7.6612   22.6703 C   0  0  0  0  0  0  0  0  0  0  0  0
    8.4143    6.6863   16.2273 C   0  0  0  0  0  0  0  0  0  0  0  0
   10.7581    6.5674   21.7636 C   0  0  0  0  0  0  0  0  0  0  0  0
    8.4452    8.7960   19.2958 O   0  0  0  0  0  0  0  0  0  0  0  0
    8.7122    6.7842   24.8569 C   0  0  0  0  0  0  0  0  0  0  0  0
   10.3400    6.1726   14.3081 C   0  0  0  0  0  0  0  0  0  0  0  0
    7.4297    7.5873   24.8962 C   0  0  0  0  0  0  0  0  0  0  0  0
    8.1566   10.0536   16.0516 O   0  0  0  0  0  0  0  0  0  0  0  0
   12.4989    6.2074   20.1776 C   0  0  0  0  0  0  0  0  0  0  0  0
    6.9192    9.1053   20.9073 O   0  0  0  0  0  0  0  0  0  0  0  0
   14.3979    6.0729   18.7784 C   0  0  0  0  0  0  0  0  0  0  0  0
    8.6811    9.5354   16.9998 C   0  0  0  0  0  0  0  0  0  0  0  0
    9.2512    4.2713   13.7653 O   0  0  0  0  0  0  0  0  0  0  0  0
    9.6495    8.6317   16.8332 N   0  0  0  0  0  0  0  0  0  0  0  0
    6.2934    8.6988   23.1988 O   0  0  0  0  0  0  0  0  0  0  0  0
    7.9806    8.6543   20.5437 C   0  0  0  0  0  0  0  0  0  0  0  0
   13.7270    5.7144   19.8610 O   0  0  0  0  0  0  0  0  0  0  0  0
    8.3351    5.5235   15.4478 C   0  0  0  0  0  0  0  0  0  0  0  0
    8.7700    7.8434   21.3915 C   0  0  0  0  0  0  0  0  0  0  0  0
   11.7856    6.8851   19.2401 C   0  0  0  0  0  0  0  0  0  0  0  0
   10.5281    7.4276   19.5649 C   0  0  0  0  0  0  0  0  0  0  0  0
   10.0256    7.2907   20.8484 C   0  0  0  0  0  0  0  0  0  0  0  0
    9.3113    5.3049   14.4911 C   0  0  0  0  0  0  0  0  0  0  0  0
    9.4607    7.5646   16.0139 C   0  0  0  0  0  0  0  0  0  0  0  0
   10.4192    7.3157   15.0955 C   0  0  0  0  0  0  0  0  0  0  0  0
   10.2489    6.4227   23.0218 N   0  0  0  0  0  0  0  0  0  0  0  0
    7.2472    8.0746   23.5050 C   0  0  0  0  0  0  0  0  0  0  0  0
    9.2051    6.9101   23.4604 C   0  0  0  0  0  0  0  0  0  0  0  0
   11.9646    6.0299   21.4251 C   0  0  0  0  0  0  0  0  0  0  0  0
  1  5  1  0
  1 13  1  0
  2 20  2  0
  2 28  1  0
  2 29  1  0
  3 19  4  0
  3 25  4  0
  4 23  4  0
  4 27  1  0
  4 30  4  0
  5 17  1  0
  6  8  1  0
  6 29  1  0
  7 24  4  0
  7 26  4  0
  8 28  1  0
  9 13  2  0
 10 18  1  0
 10 21  4  0
 10 30  4  0
 11 17  2  0
 12 18  1  0
 13 15  1  0
 14 24  1  0
 15 25  1  0
 16 28  2  0
 17 20  1  0
 19 24  4  0
 20 23  1  0
 21 22  4  0
 22 23  4  0
 25 26  4  0
 27 29  2  0
M  END
$$$$

 Created by Python create_sdf_string function

 30 33  0  0  0  0  0  0  0  0999 V2000
    8.3036    9.8571   18.4133 C   0  0  0  0  0  0  0  0  0  0  0  0
    8.3694    7.6612   22.6703 C   0  0  0  0  0  0  0  0  0  0  0  0
    8.4143    6.6863   16.2273 C   0  0  0  0  0  0  0  0  0  0  0  0
   10.7581    6.5674   21.7636 C   0  0  0  0  0  0  0  0  0  0  0  0
    8.4452    8.7960   19.2958 O   0  0  0  0  0  0  0  0  0  0  0  0
    8.7122    6.7842   24.8569 C   0  0  0  0  0  0  0  0  0  0  0  0
   10.3400    6.1726   14.3081 C   0  0  0  0  0  0  0  0  0  0  0  0
    7.4297    7.5873   24.8962 C   0  0  0  0  0  0  0  0  0  0  0  0
    8.1566   10.0536   16.0516 O   0  0  0  0  0  0  0  0  0  0  0  0
   12.4989    6.2074   20.1776 C   0  0  0  0  0  0  0  0  0  0  0  0
    6.9192    9.1053   20.9073 O   0  0  0  0  0  0  0  0  0  0  0  0
   14.3979    6.0729   18.7784 C   0  0  0  0  0  0  0  0  0  0  0  0
    8.6811    9.5354   16.9998 C   0  0  0  0  0  0  0  0  0  0  0  0
    9.2512    4.2713   13.7653 O   0  0  0  0  0  0  0  0  0  0  0  0
    9.6495    8.6317   16.8332 N   0  0  0  0  0  0  0  0  0  0  0  0
    6.2934    8.6988   23.1988 O   0  0  0  0  0  0  0  0  0  0  0  0
    7.9806    8.6543   20.5437 C   0  0  0  0  0  0  0  0  0  0  0  0
   13.7270    5.7144   19.8610 O   0  0  0  0  0  0  0  0  0  0  0  0
    8.3351    5.5235   15.4478 C   0  0  0  0  0  0  0  0  0  0  0  0
    8.7700    7.8434   21.3915 C   0  0  0  0  0  0  0  0  0  0  0  0
   11.7856    6.8851   19.2401 C   0  0  0  0  0  0  0  0  0  0  0  0
   10.5281    7.4276   19.5649 C   0  0  0  0  0  0  0  0  0  0  0  0
   10.0256    7.2907   20.8484 C   0  0  0  0  0  0  0  0  0  0  0  0
    9.3113    5.3049   14.4911 C   0  0  0  0  0  0  0  0  0  0  0  0
    9.4607    7.5646   16.0139 C   0  0  0  0  0  0  0  0  0  0  0  0
   10.4192    7.3157   15.0955 C   0  0  0  0  0  0  0  0  0  0  0  0
   10.2489    6.4227   23.0218 N   0  0  0  0  0  0  0  0  0  0  0  0
    7.2472    8.0746   23.5050 C   0  0  0  0  0  0  0  0  0  0  0  0
    9.2051    6.9101   23.4604 C   0  0  0  0  0  0  0  0  0  0  0  0
   11.9646    6.0299   21.4251 C   0  0  0  0  0  0  0  0  0  0  0  0
  1  5  1  0
  1 13  1  0
  2 20  2  0
  2 28  1  0
  2 29  1  0
  3 19  4  0
  3 25  4  0
  4 23  4  0
  4 27  1  0
  4 30  4  0
  5 17  1  0
  6  8  1  0
  6 29  1  0
  7 24  4  0
  7 26  4  0
  8 28  1  0
  9 13  2  0
 10 18  1  0
 10 21  4  0
 10 30  4  0
 11 17  2  0
 12 18  1  0
 13 15  1  0
 14 24  1  0
 15 25  1  0
 16 28  2  0
 17 20  1  0
 19 24  4  0
 20 23  1  0
 21 22  4  0
 22 23  4  0
 25 26  4  0
 27 29  2  0
M  END
$$$$

 Created by Python create_sdf_string function

 30 33  0  0  0  0  0  0  0  0999 V2000
    8.3036    9.8571   18.4133 C   0  0  0  0  0  0  0  0  0  0  0  0
    8.3694    7.6612   22.6703 C   0  0  0  0  0  0  0  0  0  0  0  0
    8.4143    6.6863   16.2273 C   0  0  0  0  0  0  0  0  0  0  0  0
   10.7581    6.5674   21.7636 C   0  0  0  0  0  0  0  0  0  0  0  0
    8.4452    8.7960   19.2958 O   0  0  0  0  0  0  0  0  0  0  0  0
    8.7122    6.7842   24.8569 C   0  0  0  0  0  0  0  0  0  0  0  0
   10.3400    6.1726   14.3081 C   0  0  0  0  0  0  0  0  0  0  0  0
    7.4297    7.5873   24.8962 C   0  0  0  0  0  0  0  0  0  0  0  0
    8.1566   10.0536   16.0516 O   0  0  0  0  0  0  0  0  0  0  0  0
   12.4989    6.2074   20.1776 C   0  0  0  0  0  0  0  0  0  0  0  0
    6.9192    9.1053   20.9073 O   0  0  0  0  0  0  0  0  0  0  0  0
   14.3979    6.0729   18.7784 C   0  0  0  0  0  0  0  0  0  0  0  0
    8.6811    9.5354   16.9998 C   0  0  0  0  0  0  0  0  0  0  0  0
    9.2512    4.2713   13.7653 O   0  0  0  0  0  0  0  0  0  0  0  0
    9.6495    8.6317   16.8332 N   0  0  0  0  0  0  0  0  0  0  0  0
    6.2934    8.6988   23.1988 O   0  0  0  0  0  0  0  0  0  0  0  0
    7.9806    8.6543   20.5437 C   0  0  0  0  0  0  0  0  0  0  0  0
   13.7270    5.7144   19.8610 O   0  0  0  0  0  0  0  0  0  0  0  0
    8.3351    5.5235   15.4478 C   0  0  0  0  0  0  0  0  0  0  0  0
    8.7700    7.8434   21.3915 C   0  0  0  0  0  0  0  0  0  0  0  0
   11.7856    6.8851   19.2401 C   0  0  0  0  0  0  0  0  0  0  0  0
   10.5281    7.4276   19.5649 C   0  0  0  0  0  0  0  0  0  0  0  0
   10.0256    7.2907   20.8484 C   0  0  0  0  0  0  0  0  0  0  0  0
    9.3113    5.3049   14.4911 C   0  0  0  0  0  0  0  0  0  0  0  0
    9.4607    7.5646   16.0139 C   0  0  0  0  0  0  0  0  0  0  0  0
   10.4192    7.3157   15.0955 C   0  0  0  0  0  0  0  0  0  0  0  0
   10.2489    6.4227   23.0218 N   0  0  0  0  0  0  0  0  0  0  0  0
    7.2472    8.0746   23.5050 C   0  0  0  0  0  0  0  0  0  0  0  0
    9.2051    6.9101   23.4604 C   0  0  0  0  0  0  0  0  0  0  0  0
   11.9646    6.0299   21.4251 C   0  0  0  0  0  0  0  0  0  0  0  0
  1  5  1  0
  1 13  1  0
  2 20  2  0
  2 28  1  0
  2 29  1  0
  3 19  4  0
  3 25  4  0
  4 23  4  0
  4 27  1  0
  4 30  4  0
  5 17  1  0
  6  8  1  0
  6 29  1  0
  7 24  4  0
  7 26  4  0
  8 28  1  0
  9 13  2  0
 10 18  1  0
 10 21  4  0
 10 30  4  0
 11 17  2  0
 12 18  1  0
 13 15  1  0
 14 24  1  0
 15 25  1  0
 16 28  2  0
 17 20  1  0
 19 24  4  0
 20 23  1  0
 21 22  4  0
 22 23  4  0
 25 26  4  0
 27 29  2  0
M  END
$$$$

 Created by Python create_sdf_string function

 30 33  0  0  0  0  0  0  0  0999 V2000
    8.3036    9.8571   18.4133 C   0  0  0  0  0  0  0  0  0  0  0  0
    8.3694    7.6612   22.6703 C   0  0  0  0  0  0  0  0  0  0  0  0
    8.4143    6.6863   16.2273 C   0  0  0  0  0  0  0  0  0  0  0  0
   10.7581    6.5674   21.7636 C   0  0  0  0  0  0  0  0  0  0  0  0
    8.4452    8.7960   19.2958 O   0  0  0  0  0  0  0  0  0  0  0  0
    8.7122    6.7842   24.8569 C   0  0  0  0  0  0  0  0  0  0  0  0
   10.3400    6.1726   14.3081 C   0  0  0  0  0  0  0  0  0  0  0  0
    7.4297    7.5873   24.8962 C   0  0  0  0  0  0  0  0  0  0  0  0
    8.1566   10.0536   16.0516 O   0  0  0  0  0  0  0  0  0  0  0  0
   12.4989    6.2074   20.1776 C   0  0  0  0  0  0  0  0  0  0  0  0
    6.9192    9.1053   20.9073 O   0  0  0  0  0  0  0  0  0  0  0  0
   14.3979    6.0729   18.7784 C   0  0  0  0  0  0  0  0  0  0  0  0
    8.6811    9.5354   16.9998 C   0  0  0  0  0  0  0  0  0  0  0  0
    9.2512    4.2713   13.7653 O   0  0  0  0  0  0  0  0  0  0  0  0
    9.6495    8.6317   16.8332 N   0  0  0  0  0  0  0  0  0  0  0  0
    6.2934    8.6988   23.1988 O   0  0  0  0  0  0  0  0  0  0  0  0
    7.9806    8.6543   20.5437 C   0  0  0  0  0  0  0  0  0  0  0  0
   13.7270    5.7144   19.8610 O   0  0  0  0  0  0  0  0  0  0  0  0
    8.3351    5.5235   15.4478 C   0  0  0  0  0  0  0  0  0  0  0  0
    8.7700    7.8434   21.3915 C   0  0  0  0  0  0  0  0  0  0  0  0
   11.7856    6.8851   19.2401 C   0  0  0  0  0  0  0  0  0  0  0  0
   10.5281    7.4276   19.5649 C   0  0  0  0  0  0  0  0  0  0  0  0
   10.0256    7.2907   20.8484 C   0  0  0  0  0  0  0  0  0  0  0  0
    9.3113    5.3049   14.4911 C   0  0  0  0  0  0  0  0  0  0  0  0
    9.4607    7.5646   16.0139 C   0  0  0  0  0  0  0  0  0  0  0  0
   10.4192    7.3157   15.0955 C   0  0  0  0  0  0  0  0  0  0  0  0
   10.2489    6.4227   23.0218 N   0  0  0  0  0  0  0  0  0  0  0  0
    7.2472    8.0746   23.5050 C   0  0  0  0  0  0  0  0  0  0  0  0
    9.2051    6.9101   23.4604 C   0  0  0  0  0  0  0  0  0  0  0  0
   11.9646    6.0299   21.4251 C   0  0  0  0  0  0  0  0  0  0  0  0
  1  5  1  0
  1 13  1  0
  2 20  2  0
  2 28  1  0
  2 29  1  0
  3 19  4  0
  3 25  4  0
  4 23  4  0
  4 27  1  0
  4 30  4  0
  5 17  1  0
  6  8  1  0
  6 29  1  0
  7 24  4  0
  7 26  4  0
  8 28  1  0
  9 13  2  0
 10 18  1  0
 10 21  4  0
 10 30  4  0
 11 17  2  0
 12 18  1  0
 13 15  1  0
 14 24  1  0
 15 25  1  0
 16 28  2  0
 17 20  1  0
 19 24  4  0
 20 23  1  0
 21 22  4  0
 22 23  4  0
 25 26  4  0
 27 29  2  0
M  END
$$$$

 Created by Python create_sdf_string function

 30 33  0  0  0  0  0  0  0  0999 V2000
    8.3036    9.8571   18.4133 C   0  0  0  0  0  0  0  0  0  0  0  0
    8.3694    7.6612   22.6703 C   0  0  0  0  0  0  0  0  0  0  0  0
    8.4143    6.6863   16.2273 C   0  0  0  0  0  0  0  0  0  0  0  0
   10.7581    6.5674   21.7636 C   0  0  0  0  0  0  0  0  0  0  0  0
    8.4452    8.7960   19.2958 O   0  0  0  0  0  0  0  0  0  0  0  0
    8.7122    6.7842   24.8569 C   0  0  0  0  0  0  0  0  0  0  0  0
   10.3400    6.1726   14.3081 C   0  0  0  0  0  0  0  0  0  0  0  0
    7.4297    7.5873   24.8962 C   0  0  0  0  0  0  0  0  0  0  0  0
    8.1566   10.0536   16.0516 O   0  0  0  0  0  0  0  0  0  0  0  0
   12.4989    6.2074   20.1776 C   0  0  0  0  0  0  0  0  0  0  0  0
    6.9192    9.1053   20.9073 O   0  0  0  0  0  0  0  0  0  0  0  0
   14.3979    6.0729   18.7784 C   0  0  0  0  0  0  0  0  0  0  0  0
    8.6811    9.5354   16.9998 C   0  0  0  0  0  0  0  0  0  0  0  0
    9.2512    4.2713   13.7653 O   0  0  0  0  0  0  0  0  0  0  0  0
    9.6495    8.6317   16.8332 N   0  0  0  0  0  0  0  0  0  0  0  0
    6.2934    8.6988   23.1988 O   0  0  0  0  0  0  0  0  0  0  0  0
    7.9806    8.6543   20.5437 C   0  0  0  0  0  0  0  0  0  0  0  0
   13.7270    5.7144   19.8610 O   0  0  0  0  0  0  0  0  0  0  0  0
    8.3351    5.5235   15.4478 C   0  0  0  0  0  0  0  0  0  0  0  0
    8.7700    7.8434   21.3915 C   0  0  0  0  0  0  0  0  0  0  0  0
   11.7856    6.8851   19.2401 C   0  0  0  0  0  0  0  0  0  0  0  0
   10.5281    7.4276   19.5649 C   0  0  0  0  0  0  0  0  0  0  0  0
   10.0256    7.2907   20.8484 C   0  0  0  0  0  0  0  0  0  0  0  0
    9.3113    5.3049   14.4911 C   0  0  0  0  0  0  0  0  0  0  0  0
    9.4607    7.5646   16.0139 C   0  0  0  0  0  0  0  0  0  0  0  0
   10.4192    7.3157   15.0955 C   0  0  0  0  0  0  0  0  0  0  0  0
   10.2489    6.4227   23.0218 N   0  0  0  0  0  0  0  0  0  0  0  0
    7.2472    8.0746   23.5050 C   0  0  0  0  0  0  0  0  0  0  0  0
    9.2051    6.9101   23.4604 C   0  0  0  0  0  0  0  0  0  0  0  0
   11.9646    6.0299   21.4251 C   0  0  0  0  0  0  0  0  0  0  0  0
  1  5  1  0
  1 13  1  0
  2 20  2  0
  2 28  1  0
  2 29  1  0
  3 19  4  0
  3 25  4  0
  4 23  4  0
  4 27  1  0
  4 30  4  0
  5 17  1  0
  6  8  1  0
  6 29  1  0
  7 24  4  0
  7 26  4  0
  8 28  1  0
  9 13  2  0
 10 18  1  0
 10 21  4  0
 10 30  4  0
 11 17  2  0
 12 18  1  0
 13 15  1  0
 14 24  1  0
 15 25  1  0
 16 28  2  0
 17 20  1  0
 19 24  4  0
 20 23  1  0
 21 22  4  0
 22 23  4  0
 25 26  4  0
 27 29  2  0
M  END
$$$$

 Created by Python create_sdf_string function

 30 33  0  0  0  0  0  0  0  0999 V2000
    8.3036    9.8571   18.4133 C   0  0  0  0  0  0  0  0  0  0  0  0
    8.3694    7.6612   22.6703 C   0  0  0  0  0  0  0  0  0  0  0  0
    8.4143    6.6863   16.2273 C   0  0  0  0  0  0  0  0  0  0  0  0
   10.7581    6.5674   21.7636 C   0  0  0  0  0  0  0  0  0  0  0  0
    8.4452    8.7960   19.2958 O   0  0  0  0  0  0  0  0  0  0  0  0
    8.7122    6.7842   24.8569 C   0  0  0  0  0  0  0  0  0  0  0  0
   10.3400    6.1726   14.3081 C   0  0  0  0  0  0  0  0  0  0  0  0
    7.4297    7.5873   24.8962 C   0  0  0  0  0  0  0  0  0  0  0  0
    8.1566   10.0536   16.0516 O   0  0  0  0  0  0  0  0  0  0  0  0
   12.4989    6.2074   20.1776 C   0  0  0  0  0  0  0  0  0  0  0  0
    6.9192    9.1053   20.9073 O   0  0  0  0  0  0  0  0  0  0  0  0
   14.3979    6.0729   18.7784 C   0  0  0  0  0  0  0  0  0  0  0  0
    8.6811    9.5354   16.9998 C   0  0  0  0  0  0  0  0  0  0  0  0
    9.2512    4.2713   13.7653 O   0  0  0  0  0  0  0  0  0  0  0  0
    9.6495    8.6317   16.8332 N   0  0  0  0  0  0  0  0  0  0  0  0
    6.2934    8.6988   23.1988 O   0  0  0  0  0  0  0  0  0  0  0  0
    7.9806    8.6543   20.5437 C   0  0  0  0  0  0  0  0  0  0  0  0
   13.7270    5.7144   19.8610 O   0  0  0  0  0  0  0  0  0  0  0  0
    8.3351    5.5235   15.4478 C   0  0  0  0  0  0  0  0  0  0  0  0
    8.7700    7.8434   21.3915 C   0  0  0  0  0  0  0  0  0  0  0  0
   11.7856    6.8851   19.2401 C   0  0  0  0  0  0  0  0  0  0  0  0
   10.5281    7.4276   19.5649 C   0  0  0  0  0  0  0  0  0  0  0  0
   10.0256    7.2907   20.8484 C   0  0  0  0  0  0  0  0  0  0  0  0
    9.3113    5.3049   14.4911 C   0  0  0  0  0  0  0  0  0  0  0  0
    9.4607    7.5646   16.0139 C   0  0  0  0  0  0  0  0  0  0  0  0
   10.4192    7.3157   15.0955 C   0  0  0  0  0  0  0  0  0  0  0  0
   10.2489    6.4227   23.0218 N   0  0  0  0  0  0  0  0  0  0  0  0
    7.2472    8.0746   23.5050 C   0  0  0  0  0  0  0  0  0  0  0  0
    9.2051    6.9101   23.4604 C   0  0  0  0  0  0  0  0  0  0  0  0
   11.9646    6.0299   21.4251 C   0  0  0  0  0  0  0  0  0  0  0  0
  1  5  1  0
  1 13  1  0
  2 20  2  0
  2 28  1  0
  2 29  1  0
  3 19  4  0
  3 25  4  0
  4 23  4  0
  4 27  1  0
  4 30  4  0
  5 17  1  0
  6  8  1  0
  6 29  1  0
  7 24  4  0
  7 26  4  0
  8 28  1  0
  9 13  2  0
 10 18  1  0
 10 21  4  0
 10 30  4  0
 11 17  2  0
 12 18  1  0
 13 15  1  0
 14 24  1  0
 15 25  1  0
 16 28  2  0
 17 20  1  0
 19 24  4  0
 20 23  1  0
 21 22  4  0
 22 23  4  0
 25 26  4  0
 27 29  2  0
M  END
$$$$

 Created by Python create_sdf_string function

 30 33  0  0  0  0  0  0  0  0999 V2000
    8.3036    9.8571   18.4133 C   0  0  0  0  0  0  0  0  0  0  0  0
    8.3694    7.6612   22.6703 C   0  0  0  0  0  0  0  0  0  0  0  0
    8.4143    6.6863   16.2273 C   0  0  0  0  0  0  0  0  0  0  0  0
   10.7581    6.5674   21.7636 C   0  0  0  0  0  0  0  0  0  0  0  0
    8.4452    8.7960   19.2958 O   0  0  0  0  0  0  0  0  0  0  0  0
    8.7122    6.7842   24.8569 C   0  0  0  0  0  0  0  0  0  0  0  0
   10.3400    6.1726   14.3081 C   0  0  0  0  0  0  0  0  0  0  0  0
    7.4297    7.5873   24.8962 C   0  0  0  0  0  0  0  0  0  0  0  0
    8.1566   10.0536   16.0516 O   0  0  0  0  0  0  0  0  0  0  0  0
   12.4989    6.2074   20.1776 C   0  0  0  0  0  0  0  0  0  0  0  0
    6.9192    9.1053   20.9073 O   0  0  0  0  0  0  0  0  0  0  0  0
   14.3979    6.0729   18.7784 C   0  0  0  0  0  0  0  0  0  0  0  0
    8.6811    9.5354   16.9998 C   0  0  0  0  0  0  0  0  0  0  0  0
    9.2512    4.2713   13.7653 O   0  0  0  0  0  0  0  0  0  0  0  0
    9.6495    8.6317   16.8332 N   0  0  0  0  0  0  0  0  0  0  0  0
    6.2934    8.6988   23.1988 O   0  0  0  0  0  0  0  0  0  0  0  0
    7.9806    8.6543   20.5437 C   0  0  0  0  0  0  0  0  0  0  0  0
   13.7270    5.7144   19.8610 O   0  0  0  0  0  0  0  0  0  0  0  0
    8.3351    5.5235   15.4478 C   0  0  0  0  0  0  0  0  0  0  0  0
    8.7700    7.8434   21.3915 C   0  0  0  0  0  0  0  0  0  0  0  0
   11.7856    6.8851   19.2401 C   0  0  0  0  0  0  0  0  0  0  0  0
   10.5281    7.4276   19.5649 C   0  0  0  0  0  0  0  0  0  0  0  0
   10.0256    7.2907   20.8484 C   0  0  0  0  0  0  0  0  0  0  0  0
    9.3113    5.3049   14.4911 C   0  0  0  0  0  0  0  0  0  0  0  0
    9.4607    7.5646   16.0139 C   0  0  0  0  0  0  0  0  0  0  0  0
   10.4192    7.3157   15.0955 C   0  0  0  0  0  0  0  0  0  0  0  0
   10.2489    6.4227   23.0218 N   0  0  0  0  0  0  0  0  0  0  0  0
    7.2472    8.0746   23.5050 C   0  0  0  0  0  0  0  0  0  0  0  0
    9.2051    6.9101   23.4604 C   0  0  0  0  0  0  0  0  0  0  0  0
   11.9646    6.0299   21.4251 C   0  0  0  0  0  0  0  0  0  0  0  0
  1  5  1  0
  1 13  1  0
  2 20  2  0
  2 28  1  0
  2 29  1  0
  3 19  4  0
  3 25  4  0
  4 23  4  0
  4 27  1  0
  4 30  4  0
  5 17  1  0
  6  8  1  0
  6 29  1  0
  7 24  4  0
  7 26  4  0
  8 28  1  0
  9 13  2  0
 10 18  1  0
 10 21  4  0
 10 30  4  0
 11 17  2  0
 12 18  1  0
 13 15  1  0
 14 24  1  0
 15 25  1  0
 16 28  2  0
 17 20  1  0
 19 24  4  0
 20 23  1  0
 21 22  4  0
 22 23  4  0
 25 26  4  0
 27 29  2  0
M  END
$$$$

 Created by Python create_sdf_string function

 30 33  0  0  0  0  0  0  0  0999 V2000
    8.3036    9.8571   18.4133 C   0  0  0  0  0  0  0  0  0  0  0  0
    8.3694    7.6612   22.6703 C   0  0  0  0  0  0  0  0  0  0  0  0
    8.4143    6.6863   16.2273 C   0  0  0  0  0  0  0  0  0  0  0  0
   10.7581    6.5674   21.7636 C   0  0  0  0  0  0  0  0  0  0  0  0
    8.4452    8.7960   19.2958 O   0  0  0  0  0  0  0  0  0  0  0  0
    8.7122    6.7842   24.8569 C   0  0  0  0  0  0  0  0  0  0  0  0
   10.3400    6.1726   14.3081 C   0  0  0  0  0  0  0  0  0  0  0  0
    7.4297    7.5873   24.8962 C   0  0  0  0  0  0  0  0  0  0  0  0
    8.1566   10.0536   16.0516 O   0  0  0  0  0  0  0  0  0  0  0  0
   12.4989    6.2074   20.1776 C   0  0  0  0  0  0  0  0  0  0  0  0
    6.9192    9.1053   20.9073 O   0  0  0  0  0  0  0  0  0  0  0  0
   14.3979    6.0729   18.7784 C   0  0  0  0  0  0  0  0  0  0  0  0
    8.6811    9.5354   16.9998 C   0  0  0  0  0  0  0  0  0  0  0  0
    9.2512    4.2713   13.7653 O   0  0  0  0  0  0  0  0  0  0  0  0
    9.6495    8.6317   16.8332 N   0  0  0  0  0  0  0  0  0  0  0  0
    6.2934    8.6988   23.1988 O   0  0  0  0  0  0  0  0  0  0  0  0
    7.9806    8.6543   20.5437 C   0  0  0  0  0  0  0  0  0  0  0  0
   13.7270    5.7144   19.8610 O   0  0  0  0  0  0  0  0  0  0  0  0
    8.3351    5.5235   15.4478 C   0  0  0  0  0  0  0  0  0  0  0  0
    8.7700    7.8434   21.3915 C   0  0  0  0  0  0  0  0  0  0  0  0
   11.7856    6.8851   19.2401 C   0  0  0  0  0  0  0  0  0  0  0  0
   10.5281    7.4276   19.5649 C   0  0  0  0  0  0  0  0  0  0  0  0
   10.0256    7.2907   20.8484 C   0  0  0  0  0  0  0  0  0  0  0  0
    9.3113    5.3049   14.4911 C   0  0  0  0  0  0  0  0  0  0  0  0
    9.4607    7.5646   16.0139 C   0  0  0  0  0  0  0  0  0  0  0  0
   10.4192    7.3157   15.0955 C   0  0  0  0  0  0  0  0  0  0  0  0
   10.2489    6.4227   23.0218 N   0  0  0  0  0  0  0  0  0  0  0  0
    7.2472    8.0746   23.5050 C   0  0  0  0  0  0  0  0  0  0  0  0
    9.2051    6.9101   23.4604 C   0  0  0  0  0  0  0  0  0  0  0  0
   11.9646    6.0299   21.4251 C   0  0  0  0  0  0  0  0  0  0  0  0
  1  5  1  0
  1 13  1  0
  2 20  2  0
  2 28  1  0
  2 29  1  0
  3 19  4  0
  3 25  4  0
  4 23  4  0
  4 27  1  0
  4 30  4  0
  5 17  1  0
  6  8  1  0
  6 29  1  0
  7 24  4  0
  7 26  4  0
  8 28  1  0
  9 13  2  0
 10 18  1  0
 10 21  4  0
 10 30  4  0
 11 17  2  0
 12 18  1  0
 13 15  1  0
 14 24  1  0
 15 25  1  0
 16 28  2  0
 17 20  1  0
 19 24  4  0
 20 23  1  0
 21 22  4  0
 22 23  4  0
 25 26  4  0
 27 29  2  0
M  END
$$$$

 Created by Python create_sdf_string function

 30 33  0  0  0  0  0  0  0  0999 V2000
    8.3036    9.8571   18.4133 C   0  0  0  0  0  0  0  0  0  0  0  0
    8.3694    7.6612   22.6703 C   0  0  0  0  0  0  0  0  0  0  0  0
    8.4143    6.6863   16.2273 C   0  0  0  0  0  0  0  0  0  0  0  0
   10.7581    6.5674   21.7636 C   0  0  0  0  0  0  0  0  0  0  0  0
    8.4452    8.7960   19.2958 O   0  0  0  0  0  0  0  0  0  0  0  0
    8.7122    6.7842   24.8569 C   0  0  0  0  0  0  0  0  0  0  0  0
   10.3400    6.1726   14.3081 C   0  0  0  0  0  0  0  0  0  0  0  0
    7.4297    7.5873   24.8962 C   0  0  0  0  0  0  0  0  0  0  0  0
    8.1566   10.0536   16.0516 O   0  0  0  0  0  0  0  0  0  0  0  0
   12.4989    6.2074   20.1776 C   0  0  0  0  0  0  0  0  0  0  0  0
    6.9192    9.1053   20.9073 O   0  0  0  0  0  0  0  0  0  0  0  0
   14.3979    6.0729   18.7784 C   0  0  0  0  0  0  0  0  0  0  0  0
    8.6811    9.5354   16.9998 C   0  0  0  0  0  0  0  0  0  0  0  0
    9.2512    4.2713   13.7653 O   0  0  0  0  0  0  0  0  0  0  0  0
    9.6495    8.6317   16.8332 N   0  0  0  0  0  0  0  0  0  0  0  0
    6.2934    8.6988   23.1988 O   0  0  0  0  0  0  0  0  0  0  0  0
    7.9806    8.6543   20.5437 C   0  0  0  0  0  0  0  0  0  0  0  0
   13.7270    5.7144   19.8610 O   0  0  0  0  0  0  0  0  0  0  0  0
    8.3351    5.5235   15.4478 C   0  0  0  0  0  0  0  0  0  0  0  0
    8.7700    7.8434   21.3915 C   0  0  0  0  0  0  0  0  0  0  0  0
   11.7856    6.8851   19.2401 C   0  0  0  0  0  0  0  0  0  0  0  0
   10.5281    7.4276   19.5649 C   0  0  0  0  0  0  0  0  0  0  0  0
   10.0256    7.2907   20.8484 C   0  0  0  0  0  0  0  0  0  0  0  0
    9.3113    5.3049   14.4911 C   0  0  0  0  0  0  0  0  0  0  0  0
    9.4607    7.5646   16.0139 C   0  0  0  0  0  0  0  0  0  0  0  0
   10.4192    7.3157   15.0955 C   0  0  0  0  0  0  0  0  0  0  0  0
   10.2489    6.4227   23.0218 N   0  0  0  0  0  0  0  0  0  0  0  0
    7.2472    8.0746   23.5050 C   0  0  0  0  0  0  0  0  0  0  0  0
    9.2051    6.9101   23.4604 C   0  0  0  0  0  0  0  0  0  0  0  0
   11.9646    6.0299   21.4251 C   0  0  0  0  0  0  0  0  0  0  0  0
  1  5  1  0
  1 13  1  0
  2 20  2  0
  2 28  1  0
  2 29  1  0
  3 19  4  0
  3 25  4  0
  4 23  4  0
  4 27  1  0
  4 30  4  0
  5 17  1  0
  6  8  1  0
  6 29  1  0
  7 24  4  0
  7 26  4  0
  8 28  1  0
  9 13  2  0
 10 18  1  0
 10 21  4  0
 10 30  4  0
 11 17  2  0
 12 18  1  0
 13 15  1  0
 14 24  1  0
 15 25  1  0
 16 28  2  0
 17 20  1  0
 19 24  4  0
 20 23  1  0
 21 22  4  0
 22 23  4  0
 25 26  4  0
 27 29  2  0
M  END
$$$$

 Created by Python create_sdf_string function

 30 33  0  0  0  0  0  0  0  0999 V2000
    8.3036    9.8571   18.4133 C   0  0  0  0  0  0  0  0  0  0  0  0
    8.3694    7.6612   22.6703 C   0  0  0  0  0  0  0  0  0  0  0  0
    8.4143    6.6863   16.2273 C   0  0  0  0  0  0  0  0  0  0  0  0
   10.7581    6.5674   21.7636 C   0  0  0  0  0  0  0  0  0  0  0  0
    8.4452    8.7960   19.2958 O   0  0  0  0  0  0  0  0  0  0  0  0
    8.7122    6.7842   24.8569 C   0  0  0  0  0  0  0  0  0  0  0  0
   10.3400    6.1726   14.3081 C   0  0  0  0  0  0  0  0  0  0  0  0
    7.4297    7.5873   24.8962 C   0  0  0  0  0  0  0  0  0  0  0  0
    8.1566   10.0536   16.0516 O   0  0  0  0  0  0  0  0  0  0  0  0
   12.4989    6.2074   20.1776 C   0  0  0  0  0  0  0  0  0  0  0  0
    6.9192    9.1053   20.9073 O   0  0  0  0  0  0  0  0  0  0  0  0
   14.3979    6.0729   18.7784 C   0  0  0  0  0  0  0  0  0  0  0  0
    8.6811    9.5354   16.9998 C   0  0  0  0  0  0  0  0  0  0  0  0
    9.2512    4.2713   13.7653 O   0  0  0  0  0  0  0  0  0  0  0  0
    9.6495    8.6317   16.8332 N   0  0  0  0  0  0  0  0  0  0  0  0
    6.2934    8.6988   23.1988 O   0  0  0  0  0  0  0  0  0  0  0  0
    7.9806    8.6543   20.5437 C   0  0  0  0  0  0  0  0  0  0  0  0
   13.7270    5.7144   19.8610 O   0  0  0  0  0  0  0  0  0  0  0  0
    8.3351    5.5235   15.4478 C   0  0  0  0  0  0  0  0  0  0  0  0
    8.7700    7.8434   21.3915 C   0  0  0  0  0  0  0  0  0  0  0  0
   11.7856    6.8851   19.2401 C   0  0  0  0  0  0  0  0  0  0  0  0
   10.5281    7.4276   19.5649 C   0  0  0  0  0  0  0  0  0  0  0  0
   10.0256    7.2907   20.8484 C   0  0  0  0  0  0  0  0  0  0  0  0
    9.3113    5.3049   14.4911 C   0  0  0  0  0  0  0  0  0  0  0  0
    9.4607    7.5646   16.0139 C   0  0  0  0  0  0  0  0  0  0  0  0
   10.4192    7.3157   15.0955 C   0  0  0  0  0  0  0  0  0  0  0  0
   10.2489    6.4227   23.0218 N   0  0  0  0  0  0  0  0  0  0  0  0
    7.2472    8.0746   23.5050 C   0  0  0  0  0  0  0  0  0  0  0  0
    9.2051    6.9101   23.4604 C   0  0  0  0  0  0  0  0  0  0  0  0
   11.9646    6.0299   21.4251 C   0  0  0  0  0  0  0  0  0  0  0  0
  1  5  1  0
  1 13  1  0
  2 20  2  0
  2 28  1  0
  2 29  1  0
  3 19  4  0
  3 25  4  0
  4 23  4  0
  4 27  1  0
  4 30  4  0
  5 17  1  0
  6  8  1  0
  6 29  1  0
  7 24  4  0
  7 26  4  0
  8 28  1  0
  9 13  2  0
 10 18  1  0
 10 21  4  0
 10 30  4  0
 11 17  2  0
 12 18  1  0
 13 15  1  0
 14 24  1  0
 15 25  1  0
 16 28  2  0
 17 20  1  0
 19 24  4  0
 20 23  1  0
 21 22  4  0
 22 23  4  0
 25 26  4  0
 27 29  2  0
M  END
$$$$

 Created by Python create_sdf_string function

 30 33  0  0  0  0  0  0  0  0999 V2000
    8.3036    9.8571   18.4133 C   0  0  0  0  0  0  0  0  0  0  0  0
    8.3694    7.6612   22.6703 C   0  0  0  0  0  0  0  0  0  0  0  0
    8.4143    6.6863   16.2273 C   0  0  0  0  0  0  0  0  0  0  0  0
   10.7581    6.5674   21.7636 C   0  0  0  0  0  0  0  0  0  0  0  0
    8.4452    8.7960   19.2958 O   0  0  0  0  0  0  0  0  0  0  0  0
    8.7122    6.7842   24.8569 C   0  0  0  0  0  0  0  0  0  0  0  0
   10.3400    6.1726   14.3081 C   0  0  0  0  0  0  0  0  0  0  0  0
    7.4297    7.5873   24.8962 C   0  0  0  0  0  0  0  0  0  0  0  0
    8.1566   10.0536   16.0516 O   0  0  0  0  0  0  0  0  0  0  0  0
   12.4989    6.2074   20.1776 C   0  0  0  0  0  0  0  0  0  0  0  0
    6.9192    9.1053   20.9073 O   0  0  0  0  0  0  0  0  0  0  0  0
   14.3979    6.0729   18.7784 C   0  0  0  0  0  0  0  0  0  0  0  0
    8.6811    9.5354   16.9998 C   0  0  0  0  0  0  0  0  0  0  0  0
    9.2512    4.2713   13.7653 O   0  0  0  0  0  0  0  0  0  0  0  0
    9.6495    8.6317   16.8332 N   0  0  0  0  0  0  0  0  0  0  0  0
    6.2934    8.6988   23.1988 O   0  0  0  0  0  0  0  0  0  0  0  0
    7.9806    8.6543   20.5437 C   0  0  0  0  0  0  0  0  0  0  0  0
   13.7270    5.7144   19.8610 O   0  0  0  0  0  0  0  0  0  0  0  0
    8.3351    5.5235   15.4478 C   0  0  0  0  0  0  0  0  0  0  0  0
    8.7700    7.8434   21.3915 C   0  0  0  0  0  0  0  0  0  0  0  0
   11.7856    6.8851   19.2401 C   0  0  0  0  0  0  0  0  0  0  0  0
   10.5281    7.4276   19.5649 C   0  0  0  0  0  0  0  0  0  0  0  0
   10.0256    7.2907   20.8484 C   0  0  0  0  0  0  0  0  0  0  0  0
    9.3113    5.3049   14.4911 C   0  0  0  0  0  0  0  0  0  0  0  0
    9.4607    7.5646   16.0139 C   0  0  0  0  0  0  0  0  0  0  0  0
   10.4192    7.3157   15.0955 C   0  0  0  0  0  0  0  0  0  0  0  0
   10.2489    6.4227   23.0218 N   0  0  0  0  0  0  0  0  0  0  0  0
    7.2472    8.0746   23.5050 C   0  0  0  0  0  0  0  0  0  0  0  0
    9.2051    6.9101   23.4604 C   0  0  0  0  0  0  0  0  0  0  0  0
   11.9646    6.0299   21.4251 C   0  0  0  0  0  0  0  0  0  0  0  0
  1  5  1  0
  1 13  1  0
  2 20  2  0
  2 28  1  0
  2 29  1  0
  3 19  4  0
  3 25  4  0
  4 23  4  0
  4 27  1  0
  4 30  4  0
  5 17  1  0
  6  8  1  0
  6 29  1  0
  7 24  4  0
  7 26  4  0
  8 28  1  0
  9 13  2  0
 10 18  1  0
 10 21  4  0
 10 30  4  0
 11 17  2  0
 12 18  1  0
 13 15  1  0
 14 24  1  0
 15 25  1  0
 16 28  2  0
 17 20  1  0
 19 24  4  0
 20 23  1  0
 21 22  4  0
 22 23  4  0
 25 26  4  0
 27 29  2  0
M  END
$$$$

 Created by Python create_sdf_string function

 30 33  0  0  0  0  0  0  0  0999 V2000
    8.3036    9.8571   18.4133 C   0  0  0  0  0  0  0  0  0  0  0  0
    8.3694    7.6612   22.6703 C   0  0  0  0  0  0  0  0  0  0  0  0
    8.4143    6.6863   16.2273 C   0  0  0  0  0  0  0  0  0  0  0  0
   10.7581    6.5674   21.7636 C   0  0  0  0  0  0  0  0  0  0  0  0
    8.4452    8.7960   19.2958 O   0  0  0  0  0  0  0  0  0  0  0  0
    8.7122    6.7842   24.8569 C   0  0  0  0  0  0  0  0  0  0  0  0
   10.3400    6.1726   14.3081 C   0  0  0  0  0  0  0  0  0  0  0  0
    7.4297    7.5873   24.8962 C   0  0  0  0  0  0  0  0  0  0  0  0
    8.1566   10.0536   16.0516 O   0  0  0  0  0  0  0  0  0  0  0  0
   12.4989    6.2074   20.1776 C   0  0  0  0  0  0  0  0  0  0  0  0
    6.9192    9.1053   20.9073 O   0  0  0  0  0  0  0  0  0  0  0  0
   14.3979    6.0729   18.7784 C   0  0  0  0  0  0  0  0  0  0  0  0
    8.6811    9.5354   16.9998 C   0  0  0  0  0  0  0  0  0  0  0  0
    9.2512    4.2713   13.7653 O   0  0  0  0  0  0  0  0  0  0  0  0
    9.6495    8.6317   16.8332 N   0  0  0  0  0  0  0  0  0  0  0  0
    6.2934    8.6988   23.1988 O   0  0  0  0  0  0  0  0  0  0  0  0
    7.9806    8.6543   20.5437 C   0  0  0  0  0  0  0  0  0  0  0  0
   13.7270    5.7144   19.8610 O   0  0  0  0  0  0  0  0  0  0  0  0
    8.3351    5.5235   15.4478 C   0  0  0  0  0  0  0  0  0  0  0  0
    8.7700    7.8434   21.3915 C   0  0  0  0  0  0  0  0  0  0  0  0
   11.7856    6.8851   19.2401 C   0  0  0  0  0  0  0  0  0  0  0  0
   10.5281    7.4276   19.5649 C   0  0  0  0  0  0  0  0  0  0  0  0
   10.0256    7.2907   20.8484 C   0  0  0  0  0  0  0  0  0  0  0  0
    9.3113    5.3049   14.4911 C   0  0  0  0  0  0  0  0  0  0  0  0
    9.4607    7.5646   16.0139 C   0  0  0  0  0  0  0  0  0  0  0  0
   10.4192    7.3157   15.0955 C   0  0  0  0  0  0  0  0  0  0  0  0
   10.2489    6.4227   23.0218 N   0  0  0  0  0  0  0  0  0  0  0  0
    7.2472    8.0746   23.5050 C   0  0  0  0  0  0  0  0  0  0  0  0
    9.2051    6.9101   23.4604 C   0  0  0  0  0  0  0  0  0  0  0  0
   11.9646    6.0299   21.4251 C   0  0  0  0  0  0  0  0  0  0  0  0
  1  5  1  0
  1 13  1  0
  2 20  2  0
  2 28  1  0
  2 29  1  0
  3 19  4  0
  3 25  4  0
  4 23  4  0
  4 27  1  0
  4 30  4  0
  5 17  1  0
  6  8  1  0
  6 29  1  0
  7 24  4  0
  7 26  4  0
  8 28  1  0
  9 13  2  0
 10 18  1  0
 10 21  4  0
 10 30  4  0
 11 17  2  0
 12 18  1  0
 13 15  1  0
 14 24  1  0
 15 25  1  0
 16 28  2  0
 17 20  1  0
 19 24  4  0
 20 23  1  0
 21 22  4  0
 22 23  4  0
 25 26  4  0
 27 29  2  0
M  END
$$$$

 Created by Python create_sdf_string function

 30 33  0  0  0  0  0  0  0  0999 V2000
    8.3036    9.8571   18.4133 C   0  0  0  0  0  0  0  0  0  0  0  0
    8.3694    7.6612   22.6703 C   0  0  0  0  0  0  0  0  0  0  0  0
    8.4143    6.6863   16.2273 C   0  0  0  0  0  0  0  0  0  0  0  0
   10.7581    6.5674   21.7636 C   0  0  0  0  0  0  0  0  0  0  0  0
    8.4452    8.7960   19.2958 O   0  0  0  0  0  0  0  0  0  0  0  0
    8.7122    6.7842   24.8569 C   0  0  0  0  0  0  0  0  0  0  0  0
   10.3400    6.1726   14.3081 C   0  0  0  0  0  0  0  0  0  0  0  0
    7.4297    7.5873   24.8962 C   0  0  0  0  0  0  0  0  0  0  0  0
    8.1566   10.0536   16.0516 O   0  0  0  0  0  0  0  0  0  0  0  0
   12.4989    6.2074   20.1776 C   0  0  0  0  0  0  0  0  0  0  0  0
    6.9192    9.1053   20.9073 O   0  0  0  0  0  0  0  0  0  0  0  0
   14.3979    6.0729   18.7784 C   0  0  0  0  0  0  0  0  0  0  0  0
    8.6811    9.5354   16.9998 C   0  0  0  0  0  0  0  0  0  0  0  0
    9.2512    4.2713   13.7653 O   0  0  0  0  0  0  0  0  0  0  0  0
    9.6495    8.6317   16.8332 N   0  0  0  0  0  0  0  0  0  0  0  0
    6.2934    8.6988   23.1988 O   0  0  0  0  0  0  0  0  0  0  0  0
    7.9806    8.6543   20.5437 C   0  0  0  0  0  0  0  0  0  0  0  0
   13.7270    5.7144   19.8610 O   0  0  0  0  0  0  0  0  0  0  0  0
    8.3351    5.5235   15.4478 C   0  0  0  0  0  0  0  0  0  0  0  0
    8.7700    7.8434   21.3915 C   0  0  0  0  0  0  0  0  0  0  0  0
   11.7856    6.8851   19.2401 C   0  0  0  0  0  0  0  0  0  0  0  0
   10.5281    7.4276   19.5649 C   0  0  0  0  0  0  0  0  0  0  0  0
   10.0256    7.2907   20.8484 C   0  0  0  0  0  0  0  0  0  0  0  0
    9.3113    5.3049   14.4911 C   0  0  0  0  0  0  0  0  0  0  0  0
    9.4607    7.5646   16.0139 C   0  0  0  0  0  0  0  0  0  0  0  0
   10.4192    7.3157   15.0955 C   0  0  0  0  0  0  0  0  0  0  0  0
   10.2489    6.4227   23.0218 N   0  0  0  0  0  0  0  0  0  0  0  0
    7.2472    8.0746   23.5050 C   0  0  0  0  0  0  0  0  0  0  0  0
    9.2051    6.9101   23.4604 C   0  0  0  0  0  0  0  0  0  0  0  0
   11.9646    6.0299   21.4251 C   0  0  0  0  0  0  0  0  0  0  0  0
  1  5  1  0
  1 13  1  0
  2 20  2  0
  2 28  1  0
  2 29  1  0
  3 19  4  0
  3 25  4  0
  4 23  4  0
  4 27  1  0
  4 30  4  0
  5 17  1  0
  6  8  1  0
  6 29  1  0
  7 24  4  0
  7 26  4  0
  8 28  1  0
  9 13  2  0
 10 18  1  0
 10 21  4  0
 10 30  4  0
 11 17  2  0
 12 18  1  0
 13 15  1  0
 14 24  1  0
 15 25  1  0
 16 28  2  0
 17 20  1  0
 19 24  4  0
 20 23  1  0
 21 22  4  0
 22 23  4  0
 25 26  4  0
 27 29  2  0
M  END
$$$$

 Created by Python create_sdf_string function

 30 33  0  0  0  0  0  0  0  0999 V2000
    8.3036    9.8571   18.4133 C   0  0  0  0  0  0  0  0  0  0  0  0
    8.3694    7.6612   22.6703 C   0  0  0  0  0  0  0  0  0  0  0  0
    8.4143    6.6863   16.2273 C   0  0  0  0  0  0  0  0  0  0  0  0
   10.7581    6.5674   21.7636 C   0  0  0  0  0  0  0  0  0  0  0  0
    8.4452    8.7960   19.2958 O   0  0  0  0  0  0  0  0  0  0  0  0
    8.7122    6.7842   24.8569 C   0  0  0  0  0  0  0  0  0  0  0  0
   10.3400    6.1726   14.3081 C   0  0  0  0  0  0  0  0  0  0  0  0
    7.4297    7.5873   24.8962 C   0  0  0  0  0  0  0  0  0  0  0  0
    8.1566   10.0536   16.0516 O   0  0  0  0  0  0  0  0  0  0  0  0
   12.4989    6.2074   20.1776 C   0  0  0  0  0  0  0  0  0  0  0  0
    6.9192    9.1053   20.9073 O   0  0  0  0  0  0  0  0  0  0  0  0
   14.3979    6.0729   18.7784 C   0  0  0  0  0  0  0  0  0  0  0  0
    8.6811    9.5354   16.9998 C   0  0  0  0  0  0  0  0  0  0  0  0
    9.2512    4.2713   13.7653 O   0  0  0  0  0  0  0  0  0  0  0  0
    9.6495    8.6317   16.8332 N   0  0  0  0  0  0  0  0  0  0  0  0
    6.2934    8.6988   23.1988 O   0  0  0  0  0  0  0  0  0  0  0  0
    7.9806    8.6543   20.5437 C   0  0  0  0  0  0  0  0  0  0  0  0
   13.7270    5.7144   19.8610 O   0  0  0  0  0  0  0  0  0  0  0  0
    8.3351    5.5235   15.4478 C   0  0  0  0  0  0  0  0  0  0  0  0
    8.7700    7.8434   21.3915 C   0  0  0  0  0  0  0  0  0  0  0  0
   11.7856    6.8851   19.2401 C   0  0  0  0  0  0  0  0  0  0  0  0
   10.5281    7.4276   19.5649 C   0  0  0  0  0  0  0  0  0  0  0  0
   10.0256    7.2907   20.8484 C   0  0  0  0  0  0  0  0  0  0  0  0
    9.3113    5.3049   14.4911 C   0  0  0  0  0  0  0  0  0  0  0  0
    9.4607    7.5646   16.0139 C   0  0  0  0  0  0  0  0  0  0  0  0
   10.4192    7.3157   15.0955 C   0  0  0  0  0  0  0  0  0  0  0  0
   10.2489    6.4227   23.0218 N   0  0  0  0  0  0  0  0  0  0  0  0
    7.2472    8.0746   23.5050 C   0  0  0  0  0  0  0  0  0  0  0  0
    9.2051    6.9101   23.4604 C   0  0  0  0  0  0  0  0  0  0  0  0
   11.9646    6.0299   21.4251 C   0  0  0  0  0  0  0  0  0  0  0  0
  1  5  1  0
  1 13  1  0
  2 20  2  0
  2 28  1  0
  2 29  1  0
  3 19  4  0
  3 25  4  0
  4 23  4  0
  4 27  1  0
  4 30  4  0
  5 17  1  0
  6  8  1  0
  6 29  1  0
  7 24  4  0
  7 26  4  0
  8 28  1  0
  9 13  2  0
 10 18  1  0
 10 21  4  0
 10 30  4  0
 11 17  2  0
 12 18  1  0
 13 15  1  0
 14 24  1  0
 15 25  1  0
 16 28  2  0
 17 20  1  0
 19 24  4  0
 20 23  1  0
 21 22  4  0
 22 23  4  0
 25 26  4  0
 27 29  2  0
M  END
$$$$

 Created by Python create_sdf_string function

 30 33  0  0  0  0  0  0  0  0999 V2000
    8.3036    9.8571   18.4133 C   0  0  0  0  0  0  0  0  0  0  0  0
    8.3694    7.6612   22.6703 C   0  0  0  0  0  0  0  0  0  0  0  0
    8.4143    6.6863   16.2273 C   0  0  0  0  0  0  0  0  0  0  0  0
   10.7581    6.5674   21.7636 C   0  0  0  0  0  0  0  0  0  0  0  0
    8.4452    8.7960   19.2958 O   0  0  0  0  0  0  0  0  0  0  0  0
    8.7122    6.7842   24.8569 C   0  0  0  0  0  0  0  0  0  0  0  0
   10.3400    6.1726   14.3081 C   0  0  0  0  0  0  0  0  0  0  0  0
    7.4297    7.5873   24.8962 C   0  0  0  0  0  0  0  0  0  0  0  0
    8.1566   10.0536   16.0516 O   0  0  0  0  0  0  0  0  0  0  0  0
   12.4989    6.2074   20.1776 C   0  0  0  0  0  0  0  0  0  0  0  0
    6.9192    9.1053   20.9073 O   0  0  0  0  0  0  0  0  0  0  0  0
   14.3979    6.0729   18.7784 C   0  0  0  0  0  0  0  0  0  0  0  0
    8.6811    9.5354   16.9998 C   0  0  0  0  0  0  0  0  0  0  0  0
    9.2512    4.2713   13.7653 O   0  0  0  0  0  0  0  0  0  0  0  0
    9.6495    8.6317   16.8332 N   0  0  0  0  0  0  0  0  0  0  0  0
    6.2934    8.6988   23.1988 O   0  0  0  0  0  0  0  0  0  0  0  0
    7.9806    8.6543   20.5437 C   0  0  0  0  0  0  0  0  0  0  0  0
   13.7270    5.7144   19.8610 O   0  0  0  0  0  0  0  0  0  0  0  0
    8.3351    5.5235   15.4478 C   0  0  0  0  0  0  0  0  0  0  0  0
    8.7700    7.8434   21.3915 C   0  0  0  0  0  0  0  0  0  0  0  0
   11.7856    6.8851   19.2401 C   0  0  0  0  0  0  0  0  0  0  0  0
   10.5281    7.4276   19.5649 C   0  0  0  0  0  0  0  0  0  0  0  0
   10.0256    7.2907   20.8484 C   0  0  0  0  0  0  0  0  0  0  0  0
    9.3113    5.3049   14.4911 C   0  0  0  0  0  0  0  0  0  0  0  0
    9.4607    7.5646   16.0139 C   0  0  0  0  0  0  0  0  0  0  0  0
   10.4192    7.3157   15.0955 C   0  0  0  0  0  0  0  0  0  0  0  0
   10.2489    6.4227   23.0218 N   0  0  0  0  0  0  0  0  0  0  0  0
    7.2472    8.0746   23.5050 C   0  0  0  0  0  0  0  0  0  0  0  0
    9.2051    6.9101   23.4604 C   0  0  0  0  0  0  0  0  0  0  0  0
   11.9646    6.0299   21.4251 C   0  0  0  0  0  0  0  0  0  0  0  0
  1  5  1  0
  1 13  1  0
  2 20  2  0
  2 28  1  0
  2 29  1  0
  3 19  4  0
  3 25  4  0
  4 23  4  0
  4 27  1  0
  4 30  4  0
  5 17  1  0
  6  8  1  0
  6 29  1  0
  7 24  4  0
  7 26  4  0
  8 28  1  0
  9 13  2  0
 10 18  1  0
 10 21  4  0
 10 30  4  0
 11 17  2  0
 12 18  1  0
 13 15  1  0
 14 24  1  0
 15 25  1  0
 16 28  2  0
 17 20  1  0
 19 24  4  0
 20 23  1  0
 21 22  4  0
 22 23  4  0
 25 26  4  0
 27 29  2  0
M  END
$$$$

 Created by Python create_sdf_string function

 30 33  0  0  0  0  0  0  0  0999 V2000
    8.3036    9.8571   18.4133 C   0  0  0  0  0  0  0  0  0  0  0  0
    8.3694    7.6612   22.6703 C   0  0  0  0  0  0  0  0  0  0  0  0
    8.4143    6.6863   16.2273 C   0  0  0  0  0  0  0  0  0  0  0  0
   10.7581    6.5674   21.7636 C   0  0  0  0  0  0  0  0  0  0  0  0
    8.4452    8.7960   19.2958 O   0  0  0  0  0  0  0  0  0  0  0  0
    8.7122    6.7842   24.8569 C   0  0  0  0  0  0  0  0  0  0  0  0
   10.3400    6.1726   14.3081 C   0  0  0  0  0  0  0  0  0  0  0  0
    7.4297    7.5873   24.8962 C   0  0  0  0  0  0  0  0  0  0  0  0
    8.1566   10.0536   16.0516 O   0  0  0  0  0  0  0  0  0  0  0  0
   12.4989    6.2074   20.1776 C   0  0  0  0  0  0  0  0  0  0  0  0
    6.9192    9.1053   20.9073 O   0  0  0  0  0  0  0  0  0  0  0  0
   14.3979    6.0729   18.7784 C   0  0  0  0  0  0  0  0  0  0  0  0
    8.6811    9.5354   16.9998 C   0  0  0  0  0  0  0  0  0  0  0  0
    9.2512    4.2713   13.7653 O   0  0  0  0  0  0  0  0  0  0  0  0
    9.6495    8.6317   16.8332 N   0  0  0  0  0  0  0  0  0  0  0  0
    6.2934    8.6988   23.1988 O   0  0  0  0  0  0  0  0  0  0  0  0
    7.9806    8.6543   20.5437 C   0  0  0  0  0  0  0  0  0  0  0  0
   13.7270    5.7144   19.8610 O   0  0  0  0  0  0  0  0  0  0  0  0
    8.3351    5.5235   15.4478 C   0  0  0  0  0  0  0  0  0  0  0  0
    8.7700    7.8434   21.3915 C   0  0  0  0  0  0  0  0  0  0  0  0
   11.7856    6.8851   19.2401 C   0  0  0  0  0  0  0  0  0  0  0  0
   10.5281    7.4276   19.5649 C   0  0  0  0  0  0  0  0  0  0  0  0
   10.0256    7.2907   20.8484 C   0  0  0  0  0  0  0  0  0  0  0  0
    9.3113    5.3049   14.4911 C   0  0  0  0  0  0  0  0  0  0  0  0
    9.4607    7.5646   16.0139 C   0  0  0  0  0  0  0  0  0  0  0  0
   10.4192    7.3157   15.0955 C   0  0  0  0  0  0  0  0  0  0  0  0
   10.2489    6.4227   23.0218 N   0  0  0  0  0  0  0  0  0  0  0  0
    7.2472    8.0746   23.5050 C   0  0  0  0  0  0  0  0  0  0  0  0
    9.2051    6.9101   23.4604 C   0  0  0  0  0  0  0  0  0  0  0  0
   11.9646    6.0299   21.4251 C   0  0  0  0  0  0  0  0  0  0  0  0
  1  5  1  0
  1 13  1  0
  2 20  2  0
  2 28  1  0
  2 29  1  0
  3 19  4  0
  3 25  4  0
  4 23  4  0
  4 27  1  0
  4 30  4  0
  5 17  1  0
  6  8  1  0
  6 29  1  0
  7 24  4  0
  7 26  4  0
  8 28  1  0
  9 13  2  0
 10 18  1  0
 10 21  4  0
 10 30  4  0
 11 17  2  0
 12 18  1  0
 13 15  1  0
 14 24  1  0
 15 25  1  0
 16 28  2  0
 17 20  1  0
 19 24  4  0
 20 23  1  0
 21 22  4  0
 22 23  4  0
 25 26  4  0
 27 29  2  0
M  END
$$$$

 Created by Python create_sdf_string function

 30 33  0  0  0  0  0  0  0  0999 V2000
    8.3036    9.8571   18.4133 C   0  0  0  0  0  0  0  0  0  0  0  0
    8.3694    7.6612   22.6703 C   0  0  0  0  0  0  0  0  0  0  0  0
    8.4143    6.6863   16.2273 C   0  0  0  0  0  0  0  0  0  0  0  0
   10.7581    6.5674   21.7636 C   0  0  0  0  0  0  0  0  0  0  0  0
    8.4452    8.7960   19.2958 O   0  0  0  0  0  0  0  0  0  0  0  0
    8.7122    6.7842   24.8569 C   0  0  0  0  0  0  0  0  0  0  0  0
   10.3400    6.1726   14.3081 C   0  0  0  0  0  0  0  0  0  0  0  0
    7.4297    7.5873   24.8962 C   0  0  0  0  0  0  0  0  0  0  0  0
    8.1566   10.0536   16.0516 O   0  0  0  0  0  0  0  0  0  0  0  0
   12.4989    6.2074   20.1776 C   0  0  0  0  0  0  0  0  0  0  0  0
    6.9192    9.1053   20.9073 O   0  0  0  0  0  0  0  0  0  0  0  0
   14.3979    6.0729   18.7784 C   0  0  0  0  0  0  0  0  0  0  0  0
    8.6811    9.5354   16.9998 C   0  0  0  0  0  0  0  0  0  0  0  0
    9.2512    4.2713   13.7653 O   0  0  0  0  0  0  0  0  0  0  0  0
    9.6495    8.6317   16.8332 N   0  0  0  0  0  0  0  0  0  0  0  0
    6.2934    8.6988   23.1988 O   0  0  0  0  0  0  0  0  0  0  0  0
    7.9806    8.6543   20.5437 C   0  0  0  0  0  0  0  0  0  0  0  0
   13.7270    5.7144   19.8610 O   0  0  0  0  0  0  0  0  0  0  0  0
    8.3351    5.5235   15.4478 C   0  0  0  0  0  0  0  0  0  0  0  0
    8.7700    7.8434   21.3915 C   0  0  0  0  0  0  0  0  0  0  0  0
   11.7856    6.8851   19.2401 C   0  0  0  0  0  0  0  0  0  0  0  0
   10.5281    7.4276   19.5649 C   0  0  0  0  0  0  0  0  0  0  0  0
   10.0256    7.2907   20.8484 C   0  0  0  0  0  0  0  0  0  0  0  0
    9.3113    5.3049   14.4911 C   0  0  0  0  0  0  0  0  0  0  0  0
    9.4607    7.5646   16.0139 C   0  0  0  0  0  0  0  0  0  0  0  0
   10.4192    7.3157   15.0955 C   0  0  0  0  0  0  0  0  0  0  0  0
   10.2489    6.4227   23.0218 N   0  0  0  0  0  0  0  0  0  0  0  0
    7.2472    8.0746   23.5050 C   0  0  0  0  0  0  0  0  0  0  0  0
    9.2051    6.9101   23.4604 C   0  0  0  0  0  0  0  0  0  0  0  0
   11.9646    6.0299   21.4251 C   0  0  0  0  0  0  0  0  0  0  0  0
  1  5  1  0
  1 13  1  0
  2 20  2  0
  2 28  1  0
  2 29  1  0
  3 19  4  0
  3 25  4  0
  4 23  4  0
  4 27  1  0
  4 30  4  0
  5 17  1  0
  6  8  1  0
  6 29  1  0
  7 24  4  0
  7 26  4  0
  8 28  1  0
  9 13  2  0
 10 18  1  0
 10 21  4  0
 10 30  4  0
 11 17  2  0
 12 18  1  0
 13 15  1  0
 14 24  1  0
 15 25  1  0
 16 28  2  0
 17 20  1  0
 19 24  4  0
 20 23  1  0
 21 22  4  0
 22 23  4  0
 25 26  4  0
 27 29  2  0
M  END
$$$$

 Created by Python create_sdf_string function

 30 33  0  0  0  0  0  0  0  0999 V2000
    8.3036    9.8571   18.4133 C   0  0  0  0  0  0  0  0  0  0  0  0
    8.3694    7.6612   22.6703 C   0  0  0  0  0  0  0  0  0  0  0  0
    8.4143    6.6863   16.2273 C   0  0  0  0  0  0  0  0  0  0  0  0
   10.7581    6.5674   21.7636 C   0  0  0  0  0  0  0  0  0  0  0  0
    8.4452    8.7960   19.2958 O   0  0  0  0  0  0  0  0  0  0  0  0
    8.7122    6.7842   24.8569 C   0  0  0  0  0  0  0  0  0  0  0  0
   10.3400    6.1726   14.3081 C   0  0  0  0  0  0  0  0  0  0  0  0
    7.4297    7.5873   24.8962 C   0  0  0  0  0  0  0  0  0  0  0  0
    8.1566   10.0536   16.0516 O   0  0  0  0  0  0  0  0  0  0  0  0
   12.4989    6.2074   20.1776 C   0  0  0  0  0  0  0  0  0  0  0  0
    6.9192    9.1053   20.9073 O   0  0  0  0  0  0  0  0  0  0  0  0
   14.3979    6.0729   18.7784 C   0  0  0  0  0  0  0  0  0  0  0  0
    8.6811    9.5354   16.9998 C   0  0  0  0  0  0  0  0  0  0  0  0
    9.2512    4.2713   13.7653 O   0  0  0  0  0  0  0  0  0  0  0  0
    9.6495    8.6317   16.8332 N   0  0  0  0  0  0  0  0  0  0  0  0
    6.2934    8.6988   23.1988 O   0  0  0  0  0  0  0  0  0  0  0  0
    7.9806    8.6543   20.5437 C   0  0  0  0  0  0  0  0  0  0  0  0
   13.7270    5.7144   19.8610 O   0  0  0  0  0  0  0  0  0  0  0  0
    8.3351    5.5235   15.4478 C   0  0  0  0  0  0  0  0  0  0  0  0
    8.7700    7.8434   21.3915 C   0  0  0  0  0  0  0  0  0  0  0  0
   11.7856    6.8851   19.2401 C   0  0  0  0  0  0  0  0  0  0  0  0
   10.5281    7.4276   19.5649 C   0  0  0  0  0  0  0  0  0  0  0  0
   10.0256    7.2907   20.8484 C   0  0  0  0  0  0  0  0  0  0  0  0
    9.3113    5.3049   14.4911 C   0  0  0  0  0  0  0  0  0  0  0  0
    9.4607    7.5646   16.0139 C   0  0  0  0  0  0  0  0  0  0  0  0
   10.4192    7.3157   15.0955 C   0  0  0  0  0  0  0  0  0  0  0  0
   10.2489    6.4227   23.0218 N   0  0  0  0  0  0  0  0  0  0  0  0
    7.2472    8.0746   23.5050 C   0  0  0  0  0  0  0  0  0  0  0  0
    9.2051    6.9101   23.4604 C   0  0  0  0  0  0  0  0  0  0  0  0
   11.9646    6.0299   21.4251 C   0  0  0  0  0  0  0  0  0  0  0  0
  1  5  1  0
  1 13  1  0
  2 20  2  0
  2 28  1  0
  2 29  1  0
  3 19  4  0
  3 25  4  0
  4 23  4  0
  4 27  1  0
  4 30  4  0
  5 17  1  0
  6  8  1  0
  6 29  1  0
  7 24  4  0
  7 26  4  0
  8 28  1  0
  9 13  2  0
 10 18  1  0
 10 21  4  0
 10 30  4  0
 11 17  2  0
 12 18  1  0
 13 15  1  0
 14 24  1  0
 15 25  1  0
 16 28  2  0
 17 20  1  0
 19 24  4  0
 20 23  1  0
 21 22  4  0
 22 23  4  0
 25 26  4  0
 27 29  2  0
M  END
$$$$

 Created by Python create_sdf_string function

 30 33  0  0  0  0  0  0  0  0999 V2000
    8.3036    9.8571   18.4133 C   0  0  0  0  0  0  0  0  0  0  0  0
    8.3694    7.6612   22.6703 C   0  0  0  0  0  0  0  0  0  0  0  0
    8.4143    6.6863   16.2273 C   0  0  0  0  0  0  0  0  0  0  0  0
   10.7581    6.5674   21.7636 C   0  0  0  0  0  0  0  0  0  0  0  0
    8.4452    8.7960   19.2958 O   0  0  0  0  0  0  0  0  0  0  0  0
    8.7122    6.7842   24.8569 C   0  0  0  0  0  0  0  0  0  0  0  0
   10.3400    6.1726   14.3081 C   0  0  0  0  0  0  0  0  0  0  0  0
    7.4297    7.5873   24.8962 C   0  0  0  0  0  0  0  0  0  0  0  0
    8.1566   10.0536   16.0516 O   0  0  0  0  0  0  0  0  0  0  0  0
   12.4989    6.2074   20.1776 C   0  0  0  0  0  0  0  0  0  0  0  0
    6.9192    9.1053   20.9073 O   0  0  0  0  0  0  0  0  0  0  0  0
   14.3979    6.0729   18.7784 C   0  0  0  0  0  0  0  0  0  0  0  0
    8.6811    9.5354   16.9998 C   0  0  0  0  0  0  0  0  0  0  0  0
    9.2512    4.2713   13.7653 O   0  0  0  0  0  0  0  0  0  0  0  0
    9.6495    8.6317   16.8332 N   0  0  0  0  0  0  0  0  0  0  0  0
    6.2934    8.6988   23.1988 O   0  0  0  0  0  0  0  0  0  0  0  0
    7.9806    8.6543   20.5437 C   0  0  0  0  0  0  0  0  0  0  0  0
   13.7270    5.7144   19.8610 O   0  0  0  0  0  0  0  0  0  0  0  0
    8.3351    5.5235   15.4478 C   0  0  0  0  0  0  0  0  0  0  0  0
    8.7700    7.8434   21.3915 C   0  0  0  0  0  0  0  0  0  0  0  0
   11.7856    6.8851   19.2401 C   0  0  0  0  0  0  0  0  0  0  0  0
   10.5281    7.4276   19.5649 C   0  0  0  0  0  0  0  0  0  0  0  0
   10.0256    7.2907   20.8484 C   0  0  0  0  0  0  0  0  0  0  0  0
    9.3113    5.3049   14.4911 C   0  0  0  0  0  0  0  0  0  0  0  0
    9.4607    7.5646   16.0139 C   0  0  0  0  0  0  0  0  0  0  0  0
   10.4192    7.3157   15.0955 C   0  0  0  0  0  0  0  0  0  0  0  0
   10.2489    6.4227   23.0218 N   0  0  0  0  0  0  0  0  0  0  0  0
    7.2472    8.0746   23.5050 C   0  0  0  0  0  0  0  0  0  0  0  0
    9.2051    6.9101   23.4604 C   0  0  0  0  0  0  0  0  0  0  0  0
   11.9646    6.0299   21.4251 C   0  0  0  0  0  0  0  0  0  0  0  0
  1  5  1  0
  1 13  1  0
  2 20  2  0
  2 28  1  0
  2 29  1  0
  3 19  4  0
  3 25  4  0
  4 23  4  0
  4 27  1  0
  4 30  4  0
  5 17  1  0
  6  8  1  0
  6 29  1  0
  7 24  4  0
  7 26  4  0
  8 28  1  0
  9 13  2  0
 10 18  1  0
 10 21  4  0
 10 30  4  0
 11 17  2  0
 12 18  1  0
 13 15  1  0
 14 24  1  0
 15 25  1  0
 16 28  2  0
 17 20  1  0
 19 24  4  0
 20 23  1  0
 21 22  4  0
 22 23  4  0
 25 26  4  0
 27 29  2  0
M  END
$$$$

 Created by Python create_sdf_string function

 30 33  0  0  0  0  0  0  0  0999 V2000
    8.3036    9.8571   18.4133 C   0  0  0  0  0  0  0  0  0  0  0  0
    8.3694    7.6612   22.6703 C   0  0  0  0  0  0  0  0  0  0  0  0
    8.4143    6.6863   16.2273 C   0  0  0  0  0  0  0  0  0  0  0  0
   10.7581    6.5674   21.7636 C   0  0  0  0  0  0  0  0  0  0  0  0
    8.4452    8.7960   19.2958 O   0  0  0  0  0  0  0  0  0  0  0  0
    8.7122    6.7842   24.8569 C   0  0  0  0  0  0  0  0  0  0  0  0
   10.3400    6.1726   14.3081 C   0  0  0  0  0  0  0  0  0  0  0  0
    7.4297    7.5873   24.8962 C   0  0  0  0  0  0  0  0  0  0  0  0
    8.1566   10.0536   16.0516 O   0  0  0  0  0  0  0  0  0  0  0  0
   12.4989    6.2074   20.1776 C   0  0  0  0  0  0  0  0  0  0  0  0
    6.9192    9.1053   20.9073 O   0  0  0  0  0  0  0  0  0  0  0  0
   14.3979    6.0729   18.7784 C   0  0  0  0  0  0  0  0  0  0  0  0
    8.6811    9.5354   16.9998 C   0  0  0  0  0  0  0  0  0  0  0  0
    9.2512    4.2713   13.7653 O   0  0  0  0  0  0  0  0  0  0  0  0
    9.6495    8.6317   16.8332 N   0  0  0  0  0  0  0  0  0  0  0  0
    6.2934    8.6988   23.1988 O   0  0  0  0  0  0  0  0  0  0  0  0
    7.9806    8.6543   20.5437 C   0  0  0  0  0  0  0  0  0  0  0  0
   13.7270    5.7144   19.8610 O   0  0  0  0  0  0  0  0  0  0  0  0
    8.3351    5.5235   15.4478 C   0  0  0  0  0  0  0  0  0  0  0  0
    8.7700    7.8434   21.3915 C   0  0  0  0  0  0  0  0  0  0  0  0
   11.7856    6.8851   19.2401 C   0  0  0  0  0  0  0  0  0  0  0  0
   10.5281    7.4276   19.5649 C   0  0  0  0  0  0  0  0  0  0  0  0
   10.0256    7.2907   20.8484 C   0  0  0  0  0  0  0  0  0  0  0  0
    9.3113    5.3049   14.4911 C   0  0  0  0  0  0  0  0  0  0  0  0
    9.4607    7.5646   16.0139 C   0  0  0  0  0  0  0  0  0  0  0  0
   10.4192    7.3157   15.0955 C   0  0  0  0  0  0  0  0  0  0  0  0
   10.2489    6.4227   23.0218 N   0  0  0  0  0  0  0  0  0  0  0  0
    7.2472    8.0746   23.5050 C   0  0  0  0  0  0  0  0  0  0  0  0
    9.2051    6.9101   23.4604 C   0  0  0  0  0  0  0  0  0  0  0  0
   11.9646    6.0299   21.4251 C   0  0  0  0  0  0  0  0  0  0  0  0
  1  5  1  0
  1 13  1  0
  2 20  2  0
  2 28  1  0
  2 29  1  0
  3 19  4  0
  3 25  4  0
  4 23  4  0
  4 27  1  0
  4 30  4  0
  5 17  1  0
  6  8  1  0
  6 29  1  0
  7 24  4  0
  7 26  4  0
  8 28  1  0
  9 13  2  0
 10 18  1  0
 10 21  4  0
 10 30  4  0
 11 17  2  0
 12 18  1  0
 13 15  1  0
 14 24  1  0
 15 25  1  0
 16 28  2  0
 17 20  1  0
 19 24  4  0
 20 23  1  0
 21 22  4  0
 22 23  4  0
 25 26  4  0
 27 29  2  0
M  END
$$$$

 Created by Python create_sdf_string function

 30 33  0  0  0  0  0  0  0  0999 V2000
    8.3036    9.8571   18.4133 C   0  0  0  0  0  0  0  0  0  0  0  0
    8.3694    7.6612   22.6703 C   0  0  0  0  0  0  0  0  0  0  0  0
    8.4143    6.6863   16.2273 C   0  0  0  0  0  0  0  0  0  0  0  0
   10.7581    6.5674   21.7636 C   0  0  0  0  0  0  0  0  0  0  0  0
    8.4452    8.7960   19.2958 O   0  0  0  0  0  0  0  0  0  0  0  0
    8.7122    6.7842   24.8569 C   0  0  0  0  0  0  0  0  0  0  0  0
   10.3400    6.1726   14.3081 C   0  0  0  0  0  0  0  0  0  0  0  0
    7.4297    7.5873   24.8962 C   0  0  0  0  0  0  0  0  0  0  0  0
    8.1566   10.0536   16.0516 O   0  0  0  0  0  0  0  0  0  0  0  0
   12.4989    6.2074   20.1776 C   0  0  0  0  0  0  0  0  0  0  0  0
    6.9192    9.1053   20.9073 O   0  0  0  0  0  0  0  0  0  0  0  0
   14.3979    6.0729   18.7784 C   0  0  0  0  0  0  0  0  0  0  0  0
    8.6811    9.5354   16.9998 C   0  0  0  0  0  0  0  0  0  0  0  0
    9.2512    4.2713   13.7653 O   0  0  0  0  0  0  0  0  0  0  0  0
    9.6495    8.6317   16.8332 N   0  0  0  0  0  0  0  0  0  0  0  0
    6.2934    8.6988   23.1988 O   0  0  0  0  0  0  0  0  0  0  0  0
    7.9806    8.6543   20.5437 C   0  0  0  0  0  0  0  0  0  0  0  0
   13.7270    5.7144   19.8610 O   0  0  0  0  0  0  0  0  0  0  0  0
    8.3351    5.5235   15.4478 C   0  0  0  0  0  0  0  0  0  0  0  0
    8.7700    7.8434   21.3915 C   0  0  0  0  0  0  0  0  0  0  0  0
   11.7856    6.8851   19.2401 C   0  0  0  0  0  0  0  0  0  0  0  0
   10.5281    7.4276   19.5649 C   0  0  0  0  0  0  0  0  0  0  0  0
   10.0256    7.2907   20.8484 C   0  0  0  0  0  0  0  0  0  0  0  0
    9.3113    5.3049   14.4911 C   0  0  0  0  0  0  0  0  0  0  0  0
    9.4607    7.5646   16.0139 C   0  0  0  0  0  0  0  0  0  0  0  0
   10.4192    7.3157   15.0955 C   0  0  0  0  0  0  0  0  0  0  0  0
   10.2489    6.4227   23.0218 N   0  0  0  0  0  0  0  0  0  0  0  0
    7.2472    8.0746   23.5050 C   0  0  0  0  0  0  0  0  0  0  0  0
    9.2051    6.9101   23.4604 C   0  0  0  0  0  0  0  0  0  0  0  0
   11.9646    6.0299   21.4251 C   0  0  0  0  0  0  0  0  0  0  0  0
  1  5  1  0
  1 13  1  0
  2 20  2  0
  2 28  1  0
  2 29  1  0
  3 19  4  0
  3 25  4  0
  4 23  4  0
  4 27  1  0
  4 30  4  0
  5 17  1  0
  6  8  1  0
  6 29  1  0
  7 24  4  0
  7 26  4  0
  8 28  1  0
  9 13  2  0
 10 18  1  0
 10 21  4  0
 10 30  4  0
 11 17  2  0
 12 18  1  0
 13 15  1  0
 14 24  1  0
 15 25  1  0
 16 28  2  0
 17 20  1  0
 19 24  4  0
 20 23  1  0
 21 22  4  0
 22 23  4  0
 25 26  4  0
 27 29  2  0
M  END
$$$$

 Created by Python create_sdf_string function

 30 33  0  0  0  0  0  0  0  0999 V2000
    8.3036    9.8571   18.4133 C   0  0  0  0  0  0  0  0  0  0  0  0
    8.3694    7.6612   22.6703 C   0  0  0  0  0  0  0  0  0  0  0  0
    8.4143    6.6863   16.2273 C   0  0  0  0  0  0  0  0  0  0  0  0
   10.7581    6.5674   21.7636 C   0  0  0  0  0  0  0  0  0  0  0  0
    8.4452    8.7960   19.2958 O   0  0  0  0  0  0  0  0  0  0  0  0
    8.7122    6.7842   24.8569 C   0  0  0  0  0  0  0  0  0  0  0  0
   10.3400    6.1726   14.3081 C   0  0  0  0  0  0  0  0  0  0  0  0
    7.4297    7.5873   24.8962 C   0  0  0  0  0  0  0  0  0  0  0  0
    8.1566   10.0536   16.0516 O   0  0  0  0  0  0  0  0  0  0  0  0
   12.4989    6.2074   20.1776 C   0  0  0  0  0  0  0  0  0  0  0  0
    6.9192    9.1053   20.9073 O   0  0  0  0  0  0  0  0  0  0  0  0
   14.3979    6.0729   18.7784 C   0  0  0  0  0  0  0  0  0  0  0  0
    8.6811    9.5354   16.9998 C   0  0  0  0  0  0  0  0  0  0  0  0
    9.2512    4.2713   13.7653 O   0  0  0  0  0  0  0  0  0  0  0  0
    9.6495    8.6317   16.8332 N   0  0  0  0  0  0  0  0  0  0  0  0
    6.2934    8.6988   23.1988 O   0  0  0  0  0  0  0  0  0  0  0  0
    7.9806    8.6543   20.5437 C   0  0  0  0  0  0  0  0  0  0  0  0
   13.7270    5.7144   19.8610 O   0  0  0  0  0  0  0  0  0  0  0  0
    8.3351    5.5235   15.4478 C   0  0  0  0  0  0  0  0  0  0  0  0
    8.7700    7.8434   21.3915 C   0  0  0  0  0  0  0  0  0  0  0  0
   11.7856    6.8851   19.2401 C   0  0  0  0  0  0  0  0  0  0  0  0
   10.5281    7.4276   19.5649 C   0  0  0  0  0  0  0  0  0  0  0  0
   10.0256    7.2907   20.8484 C   0  0  0  0  0  0  0  0  0  0  0  0
    9.3113    5.3049   14.4911 C   0  0  0  0  0  0  0  0  0  0  0  0
    9.4607    7.5646   16.0139 C   0  0  0  0  0  0  0  0  0  0  0  0
   10.4192    7.3157   15.0955 C   0  0  0  0  0  0  0  0  0  0  0  0
   10.2489    6.4227   23.0218 N   0  0  0  0  0  0  0  0  0  0  0  0
    7.2472    8.0746   23.5050 C   0  0  0  0  0  0  0  0  0  0  0  0
    9.2051    6.9101   23.4604 C   0  0  0  0  0  0  0  0  0  0  0  0
   11.9646    6.0299   21.4251 C   0  0  0  0  0  0  0  0  0  0  0  0
  1  5  1  0
  1 13  1  0
  2 20  2  0
  2 28  1  0
  2 29  1  0
  3 19  4  0
  3 25  4  0
  4 23  4  0
  4 27  1  0
  4 30  4  0
  5 17  1  0
  6  8  1  0
  6 29  1  0
  7 24  4  0
  7 26  4  0
  8 28  1  0
  9 13  2  0
 10 18  1  0
 10 21  4  0
 10 30  4  0
 11 17  2  0
 12 18  1  0
 13 15  1  0
 14 24  1  0
 15 25  1  0
 16 28  2  0
 17 20  1  0
 19 24  4  0
 20 23  1  0
 21 22  4  0
 22 23  4  0
 25 26  4  0
 27 29  2  0
M  END
$$$$

 Created by Python create_sdf_string function

 30 33  0  0  0  0  0  0  0  0999 V2000
    8.3036    9.8571   18.4133 C   0  0  0  0  0  0  0  0  0  0  0  0
    8.3694    7.6612   22.6703 C   0  0  0  0  0  0  0  0  0  0  0  0
    8.4143    6.6863   16.2273 C   0  0  0  0  0  0  0  0  0  0  0  0
   10.7581    6.5674   21.7636 C   0  0  0  0  0  0  0  0  0  0  0  0
    8.4452    8.7960   19.2958 O   0  0  0  0  0  0  0  0  0  0  0  0
    8.7122    6.7842   24.8569 C   0  0  0  0  0  0  0  0  0  0  0  0
   10.3400    6.1726   14.3081 C   0  0  0  0  0  0  0  0  0  0  0  0
    7.4297    7.5873   24.8962 C   0  0  0  0  0  0  0  0  0  0  0  0
    8.1566   10.0536   16.0516 O   0  0  0  0  0  0  0  0  0  0  0  0
   12.4989    6.2074   20.1776 C   0  0  0  0  0  0  0  0  0  0  0  0
    6.9192    9.1053   20.9073 O   0  0  0  0  0  0  0  0  0  0  0  0
   14.3979    6.0729   18.7784 C   0  0  0  0  0  0  0  0  0  0  0  0
    8.6811    9.5354   16.9998 C   0  0  0  0  0  0  0  0  0  0  0  0
    9.2512    4.2713   13.7653 O   0  0  0  0  0  0  0  0  0  0  0  0
    9.6495    8.6317   16.8332 N   0  0  0  0  0  0  0  0  0  0  0  0
    6.2934    8.6988   23.1988 O   0  0  0  0  0  0  0  0  0  0  0  0
    7.9806    8.6543   20.5437 C   0  0  0  0  0  0  0  0  0  0  0  0
   13.7270    5.7144   19.8610 O   0  0  0  0  0  0  0  0  0  0  0  0
    8.3351    5.5235   15.4478 C   0  0  0  0  0  0  0  0  0  0  0  0
    8.7700    7.8434   21.3915 C   0  0  0  0  0  0  0  0  0  0  0  0
   11.7856    6.8851   19.2401 C   0  0  0  0  0  0  0  0  0  0  0  0
   10.5281    7.4276   19.5649 C   0  0  0  0  0  0  0  0  0  0  0  0
   10.0256    7.2907   20.8484 C   0  0  0  0  0  0  0  0  0  0  0  0
    9.3113    5.3049   14.4911 C   0  0  0  0  0  0  0  0  0  0  0  0
    9.4607    7.5646   16.0139 C   0  0  0  0  0  0  0  0  0  0  0  0
   10.4192    7.3157   15.0955 C   0  0  0  0  0  0  0  0  0  0  0  0
   10.2489    6.4227   23.0218 N   0  0  0  0  0  0  0  0  0  0  0  0
    7.2472    8.0746   23.5050 C   0  0  0  0  0  0  0  0  0  0  0  0
    9.2051    6.9101   23.4604 C   0  0  0  0  0  0  0  0  0  0  0  0
   11.9646    6.0299   21.4251 C   0  0  0  0  0  0  0  0  0  0  0  0
  1  5  1  0
  1 13  1  0
  2 20  2  0
  2 28  1  0
  2 29  1  0
  3 19  4  0
  3 25  4  0
  4 23  4  0
  4 27  1  0
  4 30  4  0
  5 17  1  0
  6  8  1  0
  6 29  1  0
  7 24  4  0
  7 26  4  0
  8 28  1  0
  9 13  2  0
 10 18  1  0
 10 21  4  0
 10 30  4  0
 11 17  2  0
 12 18  1  0
 13 15  1  0
 14 24  1  0
 15 25  1  0
 16 28  2  0
 17 20  1  0
 19 24  4  0
 20 23  1  0
 21 22  4  0
 22 23  4  0
 25 26  4  0
 27 29  2  0
M  END
$$$$

 Created by Python create_sdf_string function

 30 33  0  0  0  0  0  0  0  0999 V2000
    8.3036    9.8571   18.4133 C   0  0  0  0  0  0  0  0  0  0  0  0
    8.3694    7.6612   22.6703 C   0  0  0  0  0  0  0  0  0  0  0  0
    8.4143    6.6863   16.2273 C   0  0  0  0  0  0  0  0  0  0  0  0
   10.7581    6.5674   21.7636 C   0  0  0  0  0  0  0  0  0  0  0  0
    8.4452    8.7960   19.2958 O   0  0  0  0  0  0  0  0  0  0  0  0
    8.7122    6.7842   24.8569 C   0  0  0  0  0  0  0  0  0  0  0  0
   10.3400    6.1726   14.3081 C   0  0  0  0  0  0  0  0  0  0  0  0
    7.4297    7.5873   24.8962 C   0  0  0  0  0  0  0  0  0  0  0  0
    8.1566   10.0536   16.0516 O   0  0  0  0  0  0  0  0  0  0  0  0
   12.4989    6.2074   20.1776 C   0  0  0  0  0  0  0  0  0  0  0  0
    6.9192    9.1053   20.9073 O   0  0  0  0  0  0  0  0  0  0  0  0
   14.3979    6.0729   18.7784 C   0  0  0  0  0  0  0  0  0  0  0  0
    8.6811    9.5354   16.9998 C   0  0  0  0  0  0  0  0  0  0  0  0
    9.2512    4.2713   13.7653 O   0  0  0  0  0  0  0  0  0  0  0  0
    9.6495    8.6317   16.8332 N   0  0  0  0  0  0  0  0  0  0  0  0
    6.2934    8.6988   23.1988 O   0  0  0  0  0  0  0  0  0  0  0  0
    7.9806    8.6543   20.5437 C   0  0  0  0  0  0  0  0  0  0  0  0
   13.7270    5.7144   19.8610 O   0  0  0  0  0  0  0  0  0  0  0  0
    8.3351    5.5235   15.4478 C   0  0  0  0  0  0  0  0  0  0  0  0
    8.7700    7.8434   21.3915 C   0  0  0  0  0  0  0  0  0  0  0  0
   11.7856    6.8851   19.2401 C   0  0  0  0  0  0  0  0  0  0  0  0
   10.5281    7.4276   19.5649 C   0  0  0  0  0  0  0  0  0  0  0  0
   10.0256    7.2907   20.8484 C   0  0  0  0  0  0  0  0  0  0  0  0
    9.3113    5.3049   14.4911 C   0  0  0  0  0  0  0  0  0  0  0  0
    9.4607    7.5646   16.0139 C   0  0  0  0  0  0  0  0  0  0  0  0
   10.4192    7.3157   15.0955 C   0  0  0  0  0  0  0  0  0  0  0  0
   10.2489    6.4227   23.0218 N   0  0  0  0  0  0  0  0  0  0  0  0
    7.2472    8.0746   23.5050 C   0  0  0  0  0  0  0  0  0  0  0  0
    9.2051    6.9101   23.4604 C   0  0  0  0  0  0  0  0  0  0  0  0
   11.9646    6.0299   21.4251 C   0  0  0  0  0  0  0  0  0  0  0  0
  1  5  1  0
  1 13  1  0
  2 20  2  0
  2 28  1  0
  2 29  1  0
  3 19  4  0
  3 25  4  0
  4 23  4  0
  4 27  1  0
  4 30  4  0
  5 17  1  0
  6  8  1  0
  6 29  1  0
  7 24  4  0
  7 26  4  0
  8 28  1  0
  9 13  2  0
 10 18  1  0
 10 21  4  0
 10 30  4  0
 11 17  2  0
 12 18  1  0
 13 15  1  0
 14 24  1  0
 15 25  1  0
 16 28  2  0
 17 20  1  0
 19 24  4  0
 20 23  1  0
 21 22  4  0
 22 23  4  0
 25 26  4  0
 27 29  2  0
M  END
$$$$

 Created by Python create_sdf_string function

 30 33  0  0  0  0  0  0  0  0999 V2000
    8.3036    9.8571   18.4133 C   0  0  0  0  0  0  0  0  0  0  0  0
    8.3694    7.6612   22.6703 C   0  0  0  0  0  0  0  0  0  0  0  0
    8.4143    6.6863   16.2273 C   0  0  0  0  0  0  0  0  0  0  0  0
   10.7581    6.5674   21.7636 C   0  0  0  0  0  0  0  0  0  0  0  0
    8.4452    8.7960   19.2958 O   0  0  0  0  0  0  0  0  0  0  0  0
    8.7122    6.7842   24.8569 C   0  0  0  0  0  0  0  0  0  0  0  0
   10.3400    6.1726   14.3081 C   0  0  0  0  0  0  0  0  0  0  0  0
    7.4297    7.5873   24.8962 C   0  0  0  0  0  0  0  0  0  0  0  0
    8.1566   10.0536   16.0516 O   0  0  0  0  0  0  0  0  0  0  0  0
   12.4989    6.2074   20.1776 C   0  0  0  0  0  0  0  0  0  0  0  0
    6.9192    9.1053   20.9073 O   0  0  0  0  0  0  0  0  0  0  0  0
   14.3979    6.0729   18.7784 C   0  0  0  0  0  0  0  0  0  0  0  0
    8.6811    9.5354   16.9998 C   0  0  0  0  0  0  0  0  0  0  0  0
    9.2512    4.2713   13.7653 O   0  0  0  0  0  0  0  0  0  0  0  0
    9.6495    8.6317   16.8332 N   0  0  0  0  0  0  0  0  0  0  0  0
    6.2934    8.6988   23.1988 O   0  0  0  0  0  0  0  0  0  0  0  0
    7.9806    8.6543   20.5437 C   0  0  0  0  0  0  0  0  0  0  0  0
   13.7270    5.7144   19.8610 O   0  0  0  0  0  0  0  0  0  0  0  0
    8.3351    5.5235   15.4478 C   0  0  0  0  0  0  0  0  0  0  0  0
    8.7700    7.8434   21.3915 C   0  0  0  0  0  0  0  0  0  0  0  0
   11.7856    6.8851   19.2401 C   0  0  0  0  0  0  0  0  0  0  0  0
   10.5281    7.4276   19.5649 C   0  0  0  0  0  0  0  0  0  0  0  0
   10.0256    7.2907   20.8484 C   0  0  0  0  0  0  0  0  0  0  0  0
    9.3113    5.3049   14.4911 C   0  0  0  0  0  0  0  0  0  0  0  0
    9.4607    7.5646   16.0139 C   0  0  0  0  0  0  0  0  0  0  0  0
   10.4192    7.3157   15.0955 C   0  0  0  0  0  0  0  0  0  0  0  0
   10.2489    6.4227   23.0218 N   0  0  0  0  0  0  0  0  0  0  0  0
    7.2472    8.0746   23.5050 C   0  0  0  0  0  0  0  0  0  0  0  0
    9.2051    6.9101   23.4604 C   0  0  0  0  0  0  0  0  0  0  0  0
   11.9646    6.0299   21.4251 C   0  0  0  0  0  0  0  0  0  0  0  0
  1  5  1  0
  1 13  1  0
  2 20  2  0
  2 28  1  0
  2 29  1  0
  3 19  4  0
  3 25  4  0
  4 23  4  0
  4 27  1  0
  4 30  4  0
  5 17  1  0
  6  8  1  0
  6 29  1  0
  7 24  4  0
  7 26  4  0
  8 28  1  0
  9 13  2  0
 10 18  1  0
 10 21  4  0
 10 30  4  0
 11 17  2  0
 12 18  1  0
 13 15  1  0
 14 24  1  0
 15 25  1  0
 16 28  2  0
 17 20  1  0
 19 24  4  0
 20 23  1  0
 21 22  4  0
 22 23  4  0
 25 26  4  0
 27 29  2  0
M  END
$$$$

 Created by Python create_sdf_string function

 30 33  0  0  0  0  0  0  0  0999 V2000
    8.3036    9.8571   18.4133 C   0  0  0  0  0  0  0  0  0  0  0  0
    8.3694    7.6612   22.6703 C   0  0  0  0  0  0  0  0  0  0  0  0
    8.4143    6.6863   16.2273 C   0  0  0  0  0  0  0  0  0  0  0  0
   10.7581    6.5674   21.7636 C   0  0  0  0  0  0  0  0  0  0  0  0
    8.4452    8.7960   19.2958 O   0  0  0  0  0  0  0  0  0  0  0  0
    8.7122    6.7842   24.8569 C   0  0  0  0  0  0  0  0  0  0  0  0
   10.3400    6.1726   14.3081 C   0  0  0  0  0  0  0  0  0  0  0  0
    7.4297    7.5873   24.8962 C   0  0  0  0  0  0  0  0  0  0  0  0
    8.1566   10.0536   16.0516 O   0  0  0  0  0  0  0  0  0  0  0  0
   12.4989    6.2074   20.1776 C   0  0  0  0  0  0  0  0  0  0  0  0
    6.9192    9.1053   20.9073 O   0  0  0  0  0  0  0  0  0  0  0  0
   14.3979    6.0729   18.7784 C   0  0  0  0  0  0  0  0  0  0  0  0
    8.6811    9.5354   16.9998 C   0  0  0  0  0  0  0  0  0  0  0  0
    9.2512    4.2713   13.7653 O   0  0  0  0  0  0  0  0  0  0  0  0
    9.6495    8.6317   16.8332 N   0  0  0  0  0  0  0  0  0  0  0  0
    6.2934    8.6988   23.1988 O   0  0  0  0  0  0  0  0  0  0  0  0
    7.9806    8.6543   20.5437 C   0  0  0  0  0  0  0  0  0  0  0  0
   13.7270    5.7144   19.8610 O   0  0  0  0  0  0  0  0  0  0  0  0
    8.3351    5.5235   15.4478 C   0  0  0  0  0  0  0  0  0  0  0  0
    8.7700    7.8434   21.3915 C   0  0  0  0  0  0  0  0  0  0  0  0
   11.7856    6.8851   19.2401 C   0  0  0  0  0  0  0  0  0  0  0  0
   10.5281    7.4276   19.5649 C   0  0  0  0  0  0  0  0  0  0  0  0
   10.0256    7.2907   20.8484 C   0  0  0  0  0  0  0  0  0  0  0  0
    9.3113    5.3049   14.4911 C   0  0  0  0  0  0  0  0  0  0  0  0
    9.4607    7.5646   16.0139 C   0  0  0  0  0  0  0  0  0  0  0  0
   10.4192    7.3157   15.0955 C   0  0  0  0  0  0  0  0  0  0  0  0
   10.2489    6.4227   23.0218 N   0  0  0  0  0  0  0  0  0  0  0  0
    7.2472    8.0746   23.5050 C   0  0  0  0  0  0  0  0  0  0  0  0
    9.2051    6.9101   23.4604 C   0  0  0  0  0  0  0  0  0  0  0  0
   11.9646    6.0299   21.4251 C   0  0  0  0  0  0  0  0  0  0  0  0
  1  5  1  0
  1 13  1  0
  2 20  2  0
  2 28  1  0
  2 29  1  0
  3 19  4  0
  3 25  4  0
  4 23  4  0
  4 27  1  0
  4 30  4  0
  5 17  1  0
  6  8  1  0
  6 29  1  0
  7 24  4  0
  7 26  4  0
  8 28  1  0
  9 13  2  0
 10 18  1  0
 10 21  4  0
 10 30  4  0
 11 17  2  0
 12 18  1  0
 13 15  1  0
 14 24  1  0
 15 25  1  0
 16 28  2  0
 17 20  1  0
 19 24  4  0
 20 23  1  0
 21 22  4  0
 22 23  4  0
 25 26  4  0
 27 29  2  0
M  END
$$$$

 Created by Python create_sdf_string function

 30 33  0  0  0  0  0  0  0  0999 V2000
    8.3036    9.8571   18.4133 C   0  0  0  0  0  0  0  0  0  0  0  0
    8.3694    7.6612   22.6703 C   0  0  0  0  0  0  0  0  0  0  0  0
    8.4143    6.6863   16.2273 C   0  0  0  0  0  0  0  0  0  0  0  0
   10.7581    6.5674   21.7636 C   0  0  0  0  0  0  0  0  0  0  0  0
    8.4452    8.7960   19.2958 O   0  0  0  0  0  0  0  0  0  0  0  0
    8.7122    6.7842   24.8569 C   0  0  0  0  0  0  0  0  0  0  0  0
   10.3400    6.1726   14.3081 C   0  0  0  0  0  0  0  0  0  0  0  0
    7.4297    7.5873   24.8962 C   0  0  0  0  0  0  0  0  0  0  0  0
    8.1566   10.0536   16.0516 O   0  0  0  0  0  0  0  0  0  0  0  0
   12.4989    6.2074   20.1776 C   0  0  0  0  0  0  0  0  0  0  0  0
    6.9192    9.1053   20.9073 O   0  0  0  0  0  0  0  0  0  0  0  0
   14.3979    6.0729   18.7784 C   0  0  0  0  0  0  0  0  0  0  0  0
    8.6811    9.5354   16.9998 C   0  0  0  0  0  0  0  0  0  0  0  0
    9.2512    4.2713   13.7653 O   0  0  0  0  0  0  0  0  0  0  0  0
    9.6495    8.6317   16.8332 N   0  0  0  0  0  0  0  0  0  0  0  0
    6.2934    8.6988   23.1988 O   0  0  0  0  0  0  0  0  0  0  0  0
    7.9806    8.6543   20.5437 C   0  0  0  0  0  0  0  0  0  0  0  0
   13.7270    5.7144   19.8610 O   0  0  0  0  0  0  0  0  0  0  0  0
    8.3351    5.5235   15.4478 C   0  0  0  0  0  0  0  0  0  0  0  0
    8.7700    7.8434   21.3915 C   0  0  0  0  0  0  0  0  0  0  0  0
   11.7856    6.8851   19.2401 C   0  0  0  0  0  0  0  0  0  0  0  0
   10.5281    7.4276   19.5649 C   0  0  0  0  0  0  0  0  0  0  0  0
   10.0256    7.2907   20.8484 C   0  0  0  0  0  0  0  0  0  0  0  0
    9.3113    5.3049   14.4911 C   0  0  0  0  0  0  0  0  0  0  0  0
    9.4607    7.5646   16.0139 C   0  0  0  0  0  0  0  0  0  0  0  0
   10.4192    7.3157   15.0955 C   0  0  0  0  0  0  0  0  0  0  0  0
   10.2489    6.4227   23.0218 N   0  0  0  0  0  0  0  0  0  0  0  0
    7.2472    8.0746   23.5050 C   0  0  0  0  0  0  0  0  0  0  0  0
    9.2051    6.9101   23.4604 C   0  0  0  0  0  0  0  0  0  0  0  0
   11.9646    6.0299   21.4251 C   0  0  0  0  0  0  0  0  0  0  0  0
  1  5  1  0
  1 13  1  0
  2 20  2  0
  2 28  1  0
  2 29  1  0
  3 19  4  0
  3 25  4  0
  4 23  4  0
  4 27  1  0
  4 30  4  0
  5 17  1  0
  6  8  1  0
  6 29  1  0
  7 24  4  0
  7 26  4  0
  8 28  1  0
  9 13  2  0
 10 18  1  0
 10 21  4  0
 10 30  4  0
 11 17  2  0
 12 18  1  0
 13 15  1  0
 14 24  1  0
 15 25  1  0
 16 28  2  0
 17 20  1  0
 19 24  4  0
 20 23  1  0
 21 22  4  0
 22 23  4  0
 25 26  4  0
 27 29  2  0
M  END
$$$$

 Created by Python create_sdf_string function

 30 33  0  0  0  0  0  0  0  0999 V2000
    8.3036    9.8571   18.4133 C   0  0  0  0  0  0  0  0  0  0  0  0
    8.3694    7.6612   22.6703 C   0  0  0  0  0  0  0  0  0  0  0  0
    8.4143    6.6863   16.2273 C   0  0  0  0  0  0  0  0  0  0  0  0
   10.7581    6.5674   21.7636 C   0  0  0  0  0  0  0  0  0  0  0  0
    8.4452    8.7960   19.2958 O   0  0  0  0  0  0  0  0  0  0  0  0
    8.7122    6.7842   24.8569 C   0  0  0  0  0  0  0  0  0  0  0  0
   10.3400    6.1726   14.3081 C   0  0  0  0  0  0  0  0  0  0  0  0
    7.4297    7.5873   24.8962 C   0  0  0  0  0  0  0  0  0  0  0  0
    8.1566   10.0536   16.0516 O   0  0  0  0  0  0  0  0  0  0  0  0
   12.4989    6.2074   20.1776 C   0  0  0  0  0  0  0  0  0  0  0  0
    6.9192    9.1053   20.9073 O   0  0  0  0  0  0  0  0  0  0  0  0
   14.3979    6.0729   18.7784 C   0  0  0  0  0  0  0  0  0  0  0  0
    8.6811    9.5354   16.9998 C   0  0  0  0  0  0  0  0  0  0  0  0
    9.2512    4.2713   13.7653 O   0  0  0  0  0  0  0  0  0  0  0  0
    9.6495    8.6317   16.8332 N   0  0  0  0  0  0  0  0  0  0  0  0
    6.2934    8.6988   23.1988 O   0  0  0  0  0  0  0  0  0  0  0  0
    7.9806    8.6543   20.5437 C   0  0  0  0  0  0  0  0  0  0  0  0
   13.7270    5.7144   19.8610 O   0  0  0  0  0  0  0  0  0  0  0  0
    8.3351    5.5235   15.4478 C   0  0  0  0  0  0  0  0  0  0  0  0
    8.7700    7.8434   21.3915 C   0  0  0  0  0  0  0  0  0  0  0  0
   11.7856    6.8851   19.2401 C   0  0  0  0  0  0  0  0  0  0  0  0
   10.5281    7.4276   19.5649 C   0  0  0  0  0  0  0  0  0  0  0  0
   10.0256    7.2907   20.8484 C   0  0  0  0  0  0  0  0  0  0  0  0
    9.3113    5.3049   14.4911 C   0  0  0  0  0  0  0  0  0  0  0  0
    9.4607    7.5646   16.0139 C   0  0  0  0  0  0  0  0  0  0  0  0
   10.4192    7.3157   15.0955 C   0  0  0  0  0  0  0  0  0  0  0  0
   10.2489    6.4227   23.0218 N   0  0  0  0  0  0  0  0  0  0  0  0
    7.2472    8.0746   23.5050 C   0  0  0  0  0  0  0  0  0  0  0  0
    9.2051    6.9101   23.4604 C   0  0  0  0  0  0  0  0  0  0  0  0
   11.9646    6.0299   21.4251 C   0  0  0  0  0  0  0  0  0  0  0  0
  1  5  1  0
  1 13  1  0
  2 20  2  0
  2 28  1  0
  2 29  1  0
  3 19  4  0
  3 25  4  0
  4 23  4  0
  4 27  1  0
  4 30  4  0
  5 17  1  0
  6  8  1  0
  6 29  1  0
  7 24  4  0
  7 26  4  0
  8 28  1  0
  9 13  2  0
 10 18  1  0
 10 21  4  0
 10 30  4  0
 11 17  2  0
 12 18  1  0
 13 15  1  0
 14 24  1  0
 15 25  1  0
 16 28  2  0
 17 20  1  0
 19 24  4  0
 20 23  1  0
 21 22  4  0
 22 23  4  0
 25 26  4  0
 27 29  2  0
M  END
$$$$

 Created by Python create_sdf_string function

 30 33  0  0  0  0  0  0  0  0999 V2000
    8.3036    9.8571   18.4133 C   0  0  0  0  0  0  0  0  0  0  0  0
    8.3694    7.6612   22.6703 C   0  0  0  0  0  0  0  0  0  0  0  0
    8.4143    6.6863   16.2273 C   0  0  0  0  0  0  0  0  0  0  0  0
   10.7581    6.5674   21.7636 C   0  0  0  0  0  0  0  0  0  0  0  0
    8.4452    8.7960   19.2958 O   0  0  0  0  0  0  0  0  0  0  0  0
    8.7122    6.7842   24.8569 C   0  0  0  0  0  0  0  0  0  0  0  0
   10.3400    6.1726   14.3081 C   0  0  0  0  0  0  0  0  0  0  0  0
    7.4297    7.5873   24.8962 C   0  0  0  0  0  0  0  0  0  0  0  0
    8.1566   10.0536   16.0516 O   0  0  0  0  0  0  0  0  0  0  0  0
   12.4989    6.2074   20.1776 C   0  0  0  0  0  0  0  0  0  0  0  0
    6.9192    9.1053   20.9073 O   0  0  0  0  0  0  0  0  0  0  0  0
   14.3979    6.0729   18.7784 C   0  0  0  0  0  0  0  0  0  0  0  0
    8.6811    9.5354   16.9998 C   0  0  0  0  0  0  0  0  0  0  0  0
    9.2512    4.2713   13.7653 O   0  0  0  0  0  0  0  0  0  0  0  0
    9.6495    8.6317   16.8332 N   0  0  0  0  0  0  0  0  0  0  0  0
    6.2934    8.6988   23.1988 O   0  0  0  0  0  0  0  0  0  0  0  0
    7.9806    8.6543   20.5437 C   0  0  0  0  0  0  0  0  0  0  0  0
   13.7270    5.7144   19.8610 O   0  0  0  0  0  0  0  0  0  0  0  0
    8.3351    5.5235   15.4478 C   0  0  0  0  0  0  0  0  0  0  0  0
    8.7700    7.8434   21.3915 C   0  0  0  0  0  0  0  0  0  0  0  0
   11.7856    6.8851   19.2401 C   0  0  0  0  0  0  0  0  0  0  0  0
   10.5281    7.4276   19.5649 C   0  0  0  0  0  0  0  0  0  0  0  0
   10.0256    7.2907   20.8484 C   0  0  0  0  0  0  0  0  0  0  0  0
    9.3113    5.3049   14.4911 C   0  0  0  0  0  0  0  0  0  0  0  0
    9.4607    7.5646   16.0139 C   0  0  0  0  0  0  0  0  0  0  0  0
   10.4192    7.3157   15.0955 C   0  0  0  0  0  0  0  0  0  0  0  0
   10.2489    6.4227   23.0218 N   0  0  0  0  0  0  0  0  0  0  0  0
    7.2472    8.0746   23.5050 C   0  0  0  0  0  0  0  0  0  0  0  0
    9.2051    6.9101   23.4604 C   0  0  0  0  0  0  0  0  0  0  0  0
   11.9646    6.0299   21.4251 C   0  0  0  0  0  0  0  0  0  0  0  0
  1  5  1  0
  1 13  1  0
  2 20  2  0
  2 28  1  0
  2 29  1  0
  3 19  4  0
  3 25  4  0
  4 23  4  0
  4 27  1  0
  4 30  4  0
  5 17  1  0
  6  8  1  0
  6 29  1  0
  7 24  4  0
  7 26  4  0
  8 28  1  0
  9 13  2  0
 10 18  1  0
 10 21  4  0
 10 30  4  0
 11 17  2  0
 12 18  1  0
 13 15  1  0
 14 24  1  0
 15 25  1  0
 16 28  2  0
 17 20  1  0
 19 24  4  0
 20 23  1  0
 21 22  4  0
 22 23  4  0
 25 26  4  0
 27 29  2  0
M  END
$$$$

 Created by Python create_sdf_string function

 30 33  0  0  0  0  0  0  0  0999 V2000
    8.3036    9.8571   18.4133 C   0  0  0  0  0  0  0  0  0  0  0  0
    8.3694    7.6612   22.6703 C   0  0  0  0  0  0  0  0  0  0  0  0
    8.4143    6.6863   16.2273 C   0  0  0  0  0  0  0  0  0  0  0  0
   10.7581    6.5674   21.7636 C   0  0  0  0  0  0  0  0  0  0  0  0
    8.4452    8.7960   19.2958 O   0  0  0  0  0  0  0  0  0  0  0  0
    8.7122    6.7842   24.8569 C   0  0  0  0  0  0  0  0  0  0  0  0
   10.3400    6.1726   14.3081 C   0  0  0  0  0  0  0  0  0  0  0  0
    7.4297    7.5873   24.8962 C   0  0  0  0  0  0  0  0  0  0  0  0
    8.1566   10.0536   16.0516 O   0  0  0  0  0  0  0  0  0  0  0  0
   12.4989    6.2074   20.1776 C   0  0  0  0  0  0  0  0  0  0  0  0
    6.9192    9.1053   20.9073 O   0  0  0  0  0  0  0  0  0  0  0  0
   14.3979    6.0729   18.7784 C   0  0  0  0  0  0  0  0  0  0  0  0
    8.6811    9.5354   16.9998 C   0  0  0  0  0  0  0  0  0  0  0  0
    9.2512    4.2713   13.7653 O   0  0  0  0  0  0  0  0  0  0  0  0
    9.6495    8.6317   16.8332 N   0  0  0  0  0  0  0  0  0  0  0  0
    6.2934    8.6988   23.1988 O   0  0  0  0  0  0  0  0  0  0  0  0
    7.9806    8.6543   20.5437 C   0  0  0  0  0  0  0  0  0  0  0  0
   13.7270    5.7144   19.8610 O   0  0  0  0  0  0  0  0  0  0  0  0
    8.3351    5.5235   15.4478 C   0  0  0  0  0  0  0  0  0  0  0  0
    8.7700    7.8434   21.3915 C   0  0  0  0  0  0  0  0  0  0  0  0
   11.7856    6.8851   19.2401 C   0  0  0  0  0  0  0  0  0  0  0  0
   10.5281    7.4276   19.5649 C   0  0  0  0  0  0  0  0  0  0  0  0
   10.0256    7.2907   20.8484 C   0  0  0  0  0  0  0  0  0  0  0  0
    9.3113    5.3049   14.4911 C   0  0  0  0  0  0  0  0  0  0  0  0
    9.4607    7.5646   16.0139 C   0  0  0  0  0  0  0  0  0  0  0  0
   10.4192    7.3157   15.0955 C   0  0  0  0  0  0  0  0  0  0  0  0
   10.2489    6.4227   23.0218 N   0  0  0  0  0  0  0  0  0  0  0  0
    7.2472    8.0746   23.5050 C   0  0  0  0  0  0  0  0  0  0  0  0
    9.2051    6.9101   23.4604 C   0  0  0  0  0  0  0  0  0  0  0  0
   11.9646    6.0299   21.4251 C   0  0  0  0  0  0  0  0  0  0  0  0
  1  5  1  0
  1 13  1  0
  2 20  2  0
  2 28  1  0
  2 29  1  0
  3 19  4  0
  3 25  4  0
  4 23  4  0
  4 27  1  0
  4 30  4  0
  5 17  1  0
  6  8  1  0
  6 29  1  0
  7 24  4  0
  7 26  4  0
  8 28  1  0
  9 13  2  0
 10 18  1  0
 10 21  4  0
 10 30  4  0
 11 17  2  0
 12 18  1  0
 13 15  1  0
 14 24  1  0
 15 25  1  0
 16 28  2  0
 17 20  1  0
 19 24  4  0
 20 23  1  0
 21 22  4  0
 22 23  4  0
 25 26  4  0
 27 29  2  0
M  END
$$$$

 Created by Python create_sdf_string function

 30 33  0  0  0  0  0  0  0  0999 V2000
    8.3036    9.8571   18.4133 C   0  0  0  0  0  0  0  0  0  0  0  0
    8.3694    7.6612   22.6703 C   0  0  0  0  0  0  0  0  0  0  0  0
    8.4143    6.6863   16.2273 C   0  0  0  0  0  0  0  0  0  0  0  0
   10.7581    6.5674   21.7636 C   0  0  0  0  0  0  0  0  0  0  0  0
    8.4452    8.7960   19.2958 O   0  0  0  0  0  0  0  0  0  0  0  0
    8.7122    6.7842   24.8569 C   0  0  0  0  0  0  0  0  0  0  0  0
   10.3400    6.1726   14.3081 C   0  0  0  0  0  0  0  0  0  0  0  0
    7.4297    7.5873   24.8962 C   0  0  0  0  0  0  0  0  0  0  0  0
    8.1566   10.0536   16.0516 O   0  0  0  0  0  0  0  0  0  0  0  0
   12.4989    6.2074   20.1776 C   0  0  0  0  0  0  0  0  0  0  0  0
    6.9192    9.1053   20.9073 O   0  0  0  0  0  0  0  0  0  0  0  0
   14.3979    6.0729   18.7784 C   0  0  0  0  0  0  0  0  0  0  0  0
    8.6811    9.5354   16.9998 C   0  0  0  0  0  0  0  0  0  0  0  0
    9.2512    4.2713   13.7653 O   0  0  0  0  0  0  0  0  0  0  0  0
    9.6495    8.6317   16.8332 N   0  0  0  0  0  0  0  0  0  0  0  0
    6.2934    8.6988   23.1988 O   0  0  0  0  0  0  0  0  0  0  0  0
    7.9806    8.6543   20.5437 C   0  0  0  0  0  0  0  0  0  0  0  0
   13.7270    5.7144   19.8610 O   0  0  0  0  0  0  0  0  0  0  0  0
    8.3351    5.5235   15.4478 C   0  0  0  0  0  0  0  0  0  0  0  0
    8.7700    7.8434   21.3915 C   0  0  0  0  0  0  0  0  0  0  0  0
   11.7856    6.8851   19.2401 C   0  0  0  0  0  0  0  0  0  0  0  0
   10.5281    7.4276   19.5649 C   0  0  0  0  0  0  0  0  0  0  0  0
   10.0256    7.2907   20.8484 C   0  0  0  0  0  0  0  0  0  0  0  0
    9.3113    5.3049   14.4911 C   0  0  0  0  0  0  0  0  0  0  0  0
    9.4607    7.5646   16.0139 C   0  0  0  0  0  0  0  0  0  0  0  0
   10.4192    7.3157   15.0955 C   0  0  0  0  0  0  0  0  0  0  0  0
   10.2489    6.4227   23.0218 N   0  0  0  0  0  0  0  0  0  0  0  0
    7.2472    8.0746   23.5050 C   0  0  0  0  0  0  0  0  0  0  0  0
    9.2051    6.9101   23.4604 C   0  0  0  0  0  0  0  0  0  0  0  0
   11.9646    6.0299   21.4251 C   0  0  0  0  0  0  0  0  0  0  0  0
  1  5  1  0
  1 13  1  0
  2 20  2  0
  2 28  1  0
  2 29  1  0
  3 19  4  0
  3 25  4  0
  4 23  4  0
  4 27  1  0
  4 30  4  0
  5 17  1  0
  6  8  1  0
  6 29  1  0
  7 24  4  0
  7 26  4  0
  8 28  1  0
  9 13  2  0
 10 18  1  0
 10 21  4  0
 10 30  4  0
 11 17  2  0
 12 18  1  0
 13 15  1  0
 14 24  1  0
 15 25  1  0
 16 28  2  0
 17 20  1  0
 19 24  4  0
 20 23  1  0
 21 22  4  0
 22 23  4  0
 25 26  4  0
 27 29  2  0
M  END
$$$$

 Created by Python create_sdf_string function

 30 33  0  0  0  0  0  0  0  0999 V2000
    8.3036    9.8571   18.4133 C   0  0  0  0  0  0  0  0  0  0  0  0
    8.3694    7.6612   22.6703 C   0  0  0  0  0  0  0  0  0  0  0  0
    8.4143    6.6863   16.2273 C   0  0  0  0  0  0  0  0  0  0  0  0
   10.7581    6.5674   21.7636 C   0  0  0  0  0  0  0  0  0  0  0  0
    8.4452    8.7960   19.2958 O   0  0  0  0  0  0  0  0  0  0  0  0
    8.7122    6.7842   24.8569 C   0  0  0  0  0  0  0  0  0  0  0  0
   10.3400    6.1726   14.3081 C   0  0  0  0  0  0  0  0  0  0  0  0
    7.4297    7.5873   24.8962 C   0  0  0  0  0  0  0  0  0  0  0  0
    8.1566   10.0536   16.0516 O   0  0  0  0  0  0  0  0  0  0  0  0
   12.4989    6.2074   20.1776 C   0  0  0  0  0  0  0  0  0  0  0  0
    6.9192    9.1053   20.9073 O   0  0  0  0  0  0  0  0  0  0  0  0
   14.3979    6.0729   18.7784 C   0  0  0  0  0  0  0  0  0  0  0  0
    8.6811    9.5354   16.9998 C   0  0  0  0  0  0  0  0  0  0  0  0
    9.2512    4.2713   13.7653 O   0  0  0  0  0  0  0  0  0  0  0  0
    9.6495    8.6317   16.8332 N   0  0  0  0  0  0  0  0  0  0  0  0
    6.2934    8.6988   23.1988 O   0  0  0  0  0  0  0  0  0  0  0  0
    7.9806    8.6543   20.5437 C   0  0  0  0  0  0  0  0  0  0  0  0
   13.7270    5.7144   19.8610 O   0  0  0  0  0  0  0  0  0  0  0  0
    8.3351    5.5235   15.4478 C   0  0  0  0  0  0  0  0  0  0  0  0
    8.7700    7.8434   21.3915 C   0  0  0  0  0  0  0  0  0  0  0  0
   11.7856    6.8851   19.2401 C   0  0  0  0  0  0  0  0  0  0  0  0
   10.5281    7.4276   19.5649 C   0  0  0  0  0  0  0  0  0  0  0  0
   10.0256    7.2907   20.8484 C   0  0  0  0  0  0  0  0  0  0  0  0
    9.3113    5.3049   14.4911 C   0  0  0  0  0  0  0  0  0  0  0  0
    9.4607    7.5646   16.0139 C   0  0  0  0  0  0  0  0  0  0  0  0
   10.4192    7.3157   15.0955 C   0  0  0  0  0  0  0  0  0  0  0  0
   10.2489    6.4227   23.0218 N   0  0  0  0  0  0  0  0  0  0  0  0
    7.2472    8.0746   23.5050 C   0  0  0  0  0  0  0  0  0  0  0  0
    9.2051    6.9101   23.4604 C   0  0  0  0  0  0  0  0  0  0  0  0
   11.9646    6.0299   21.4251 C   0  0  0  0  0  0  0  0  0  0  0  0
  1  5  1  0
  1 13  1  0
  2 20  2  0
  2 28  1  0
  2 29  1  0
  3 19  4  0
  3 25  4  0
  4 23  4  0
  4 27  1  0
  4 30  4  0
  5 17  1  0
  6  8  1  0
  6 29  1  0
  7 24  4  0
  7 26  4  0
  8 28  1  0
  9 13  2  0
 10 18  1  0
 10 21  4  0
 10 30  4  0
 11 17  2  0
 12 18  1  0
 13 15  1  0
 14 24  1  0
 15 25  1  0
 16 28  2  0
 17 20  1  0
 19 24  4  0
 20 23  1  0
 21 22  4  0
 22 23  4  0
 25 26  4  0
 27 29  2  0
M  END
$$$$

 Created by Python create_sdf_string function

 30 33  0  0  0  0  0  0  0  0999 V2000
    8.3036    9.8571   18.4133 C   0  0  0  0  0  0  0  0  0  0  0  0
    8.3694    7.6612   22.6703 C   0  0  0  0  0  0  0  0  0  0  0  0
    8.4143    6.6863   16.2273 C   0  0  0  0  0  0  0  0  0  0  0  0
   10.7581    6.5674   21.7636 C   0  0  0  0  0  0  0  0  0  0  0  0
    8.4452    8.7960   19.2958 O   0  0  0  0  0  0  0  0  0  0  0  0
    8.7122    6.7842   24.8569 C   0  0  0  0  0  0  0  0  0  0  0  0
   10.3400    6.1726   14.3081 C   0  0  0  0  0  0  0  0  0  0  0  0
    7.4297    7.5873   24.8962 C   0  0  0  0  0  0  0  0  0  0  0  0
    8.1566   10.0536   16.0516 O   0  0  0  0  0  0  0  0  0  0  0  0
   12.4989    6.2074   20.1776 C   0  0  0  0  0  0  0  0  0  0  0  0
    6.9192    9.1053   20.9073 O   0  0  0  0  0  0  0  0  0  0  0  0
   14.3979    6.0729   18.7784 C   0  0  0  0  0  0  0  0  0  0  0  0
    8.6811    9.5354   16.9998 C   0  0  0  0  0  0  0  0  0  0  0  0
    9.2512    4.2713   13.7653 O   0  0  0  0  0  0  0  0  0  0  0  0
    9.6495    8.6317   16.8332 N   0  0  0  0  0  0  0  0  0  0  0  0
    6.2934    8.6988   23.1988 O   0  0  0  0  0  0  0  0  0  0  0  0
    7.9806    8.6543   20.5437 C   0  0  0  0  0  0  0  0  0  0  0  0
   13.7270    5.7144   19.8610 O   0  0  0  0  0  0  0  0  0  0  0  0
    8.3351    5.5235   15.4478 C   0  0  0  0  0  0  0  0  0  0  0  0
    8.7700    7.8434   21.3915 C   0  0  0  0  0  0  0  0  0  0  0  0
   11.7856    6.8851   19.2401 C   0  0  0  0  0  0  0  0  0  0  0  0
   10.5281    7.4276   19.5649 C   0  0  0  0  0  0  0  0  0  0  0  0
   10.0256    7.2907   20.8484 C   0  0  0  0  0  0  0  0  0  0  0  0
    9.3113    5.3049   14.4911 C   0  0  0  0  0  0  0  0  0  0  0  0
    9.4607    7.5646   16.0139 C   0  0  0  0  0  0  0  0  0  0  0  0
   10.4192    7.3157   15.0955 C   0  0  0  0  0  0  0  0  0  0  0  0
   10.2489    6.4227   23.0218 N   0  0  0  0  0  0  0  0  0  0  0  0
    7.2472    8.0746   23.5050 C   0  0  0  0  0  0  0  0  0  0  0  0
    9.2051    6.9101   23.4604 C   0  0  0  0  0  0  0  0  0  0  0  0
   11.9646    6.0299   21.4251 C   0  0  0  0  0  0  0  0  0  0  0  0
  1  5  1  0
  1 13  1  0
  2 20  2  0
  2 28  1  0
  2 29  1  0
  3 19  4  0
  3 25  4  0
  4 23  4  0
  4 27  1  0
  4 30  4  0
  5 17  1  0
  6  8  1  0
  6 29  1  0
  7 24  4  0
  7 26  4  0
  8 28  1  0
  9 13  2  0
 10 18  1  0
 10 21  4  0
 10 30  4  0
 11 17  2  0
 12 18  1  0
 13 15  1  0
 14 24  1  0
 15 25  1  0
 16 28  2  0
 17 20  1  0
 19 24  4  0
 20 23  1  0
 21 22  4  0
 22 23  4  0
 25 26  4  0
 27 29  2  0
M  END
$$$$

 Created by Python create_sdf_string function

 30 33  0  0  0  0  0  0  0  0999 V2000
    8.3036    9.8571   18.4133 C   0  0  0  0  0  0  0  0  0  0  0  0
    8.3694    7.6612   22.6703 C   0  0  0  0  0  0  0  0  0  0  0  0
    8.4143    6.6863   16.2273 C   0  0  0  0  0  0  0  0  0  0  0  0
   10.7581    6.5674   21.7636 C   0  0  0  0  0  0  0  0  0  0  0  0
    8.4452    8.7960   19.2958 O   0  0  0  0  0  0  0  0  0  0  0  0
    8.7122    6.7842   24.8569 C   0  0  0  0  0  0  0  0  0  0  0  0
   10.3400    6.1726   14.3081 C   0  0  0  0  0  0  0  0  0  0  0  0
    7.4297    7.5873   24.8962 C   0  0  0  0  0  0  0  0  0  0  0  0
    8.1566   10.0536   16.0516 O   0  0  0  0  0  0  0  0  0  0  0  0
   12.4989    6.2074   20.1776 C   0  0  0  0  0  0  0  0  0  0  0  0
    6.9192    9.1053   20.9073 O   0  0  0  0  0  0  0  0  0  0  0  0
   14.3979    6.0729   18.7784 C   0  0  0  0  0  0  0  0  0  0  0  0
    8.6811    9.5354   16.9998 C   0  0  0  0  0  0  0  0  0  0  0  0
    9.2512    4.2713   13.7653 O   0  0  0  0  0  0  0  0  0  0  0  0
    9.6495    8.6317   16.8332 N   0  0  0  0  0  0  0  0  0  0  0  0
    6.2934    8.6988   23.1988 O   0  0  0  0  0  0  0  0  0  0  0  0
    7.9806    8.6543   20.5437 C   0  0  0  0  0  0  0  0  0  0  0  0
   13.7270    5.7144   19.8610 O   0  0  0  0  0  0  0  0  0  0  0  0
    8.3351    5.5235   15.4478 C   0  0  0  0  0  0  0  0  0  0  0  0
    8.7700    7.8434   21.3915 C   0  0  0  0  0  0  0  0  0  0  0  0
   11.7856    6.8851   19.2401 C   0  0  0  0  0  0  0  0  0  0  0  0
   10.5281    7.4276   19.5649 C   0  0  0  0  0  0  0  0  0  0  0  0
   10.0256    7.2907   20.8484 C   0  0  0  0  0  0  0  0  0  0  0  0
    9.3113    5.3049   14.4911 C   0  0  0  0  0  0  0  0  0  0  0  0
    9.4607    7.5646   16.0139 C   0  0  0  0  0  0  0  0  0  0  0  0
   10.4192    7.3157   15.0955 C   0  0  0  0  0  0  0  0  0  0  0  0
   10.2489    6.4227   23.0218 N   0  0  0  0  0  0  0  0  0  0  0  0
    7.2472    8.0746   23.5050 C   0  0  0  0  0  0  0  0  0  0  0  0
    9.2051    6.9101   23.4604 C   0  0  0  0  0  0  0  0  0  0  0  0
   11.9646    6.0299   21.4251 C   0  0  0  0  0  0  0  0  0  0  0  0
  1  5  1  0
  1 13  1  0
  2 20  2  0
  2 28  1  0
  2 29  1  0
  3 19  4  0
  3 25  4  0
  4 23  4  0
  4 27  1  0
  4 30  4  0
  5 17  1  0
  6  8  1  0
  6 29  1  0
  7 24  4  0
  7 26  4  0
  8 28  1  0
  9 13  2  0
 10 18  1  0
 10 21  4  0
 10 30  4  0
 11 17  2  0
 12 18  1  0
 13 15  1  0
 14 24  1  0
 15 25  1  0
 16 28  2  0
 17 20  1  0
 19 24  4  0
 20 23  1  0
 21 22  4  0
 22 23  4  0
 25 26  4  0
 27 29  2  0
M  END
$$$$

 Created by Python create_sdf_string function

 30 33  0  0  0  0  0  0  0  0999 V2000
    8.3036    9.8571   18.4133 C   0  0  0  0  0  0  0  0  0  0  0  0
    8.3694    7.6612   22.6703 C   0  0  0  0  0  0  0  0  0  0  0  0
    8.4143    6.6863   16.2273 C   0  0  0  0  0  0  0  0  0  0  0  0
   10.7581    6.5674   21.7636 C   0  0  0  0  0  0  0  0  0  0  0  0
    8.4452    8.7960   19.2958 O   0  0  0  0  0  0  0  0  0  0  0  0
    8.7122    6.7842   24.8569 C   0  0  0  0  0  0  0  0  0  0  0  0
   10.3400    6.1726   14.3081 C   0  0  0  0  0  0  0  0  0  0  0  0
    7.4297    7.5873   24.8962 C   0  0  0  0  0  0  0  0  0  0  0  0
    8.1566   10.0536   16.0516 O   0  0  0  0  0  0  0  0  0  0  0  0
   12.4989    6.2074   20.1776 C   0  0  0  0  0  0  0  0  0  0  0  0
    6.9192    9.1053   20.9073 O   0  0  0  0  0  0  0  0  0  0  0  0
   14.3979    6.0729   18.7784 C   0  0  0  0  0  0  0  0  0  0  0  0
    8.6811    9.5354   16.9998 C   0  0  0  0  0  0  0  0  0  0  0  0
    9.2512    4.2713   13.7653 O   0  0  0  0  0  0  0  0  0  0  0  0
    9.6495    8.6317   16.8332 N   0  0  0  0  0  0  0  0  0  0  0  0
    6.2934    8.6988   23.1988 O   0  0  0  0  0  0  0  0  0  0  0  0
    7.9806    8.6543   20.5437 C   0  0  0  0  0  0  0  0  0  0  0  0
   13.7270    5.7144   19.8610 O   0  0  0  0  0  0  0  0  0  0  0  0
    8.3351    5.5235   15.4478 C   0  0  0  0  0  0  0  0  0  0  0  0
    8.7700    7.8434   21.3915 C   0  0  0  0  0  0  0  0  0  0  0  0
   11.7856    6.8851   19.2401 C   0  0  0  0  0  0  0  0  0  0  0  0
   10.5281    7.4276   19.5649 C   0  0  0  0  0  0  0  0  0  0  0  0
   10.0256    7.2907   20.8484 C   0  0  0  0  0  0  0  0  0  0  0  0
    9.3113    5.3049   14.4911 C   0  0  0  0  0  0  0  0  0  0  0  0
    9.4607    7.5646   16.0139 C   0  0  0  0  0  0  0  0  0  0  0  0
   10.4192    7.3157   15.0955 C   0  0  0  0  0  0  0  0  0  0  0  0
   10.2489    6.4227   23.0218 N   0  0  0  0  0  0  0  0  0  0  0  0
    7.2472    8.0746   23.5050 C   0  0  0  0  0  0  0  0  0  0  0  0
    9.2051    6.9101   23.4604 C   0  0  0  0  0  0  0  0  0  0  0  0
   11.9646    6.0299   21.4251 C   0  0  0  0  0  0  0  0  0  0  0  0
  1  5  1  0
  1 13  1  0
  2 20  2  0
  2 28  1  0
  2 29  1  0
  3 19  4  0
  3 25  4  0
  4 23  4  0
  4 27  1  0
  4 30  4  0
  5 17  1  0
  6  8  1  0
  6 29  1  0
  7 24  4  0
  7 26  4  0
  8 28  1  0
  9 13  2  0
 10 18  1  0
 10 21  4  0
 10 30  4  0
 11 17  2  0
 12 18  1  0
 13 15  1  0
 14 24  1  0
 15 25  1  0
 16 28  2  0
 17 20  1  0
 19 24  4  0
 20 23  1  0
 21 22  4  0
 22 23  4  0
 25 26  4  0
 27 29  2  0
M  END
$$$$

 Created by Python create_sdf_string function

 30 33  0  0  0  0  0  0  0  0999 V2000
    8.3036    9.8571   18.4133 C   0  0  0  0  0  0  0  0  0  0  0  0
    8.3694    7.6612   22.6703 C   0  0  0  0  0  0  0  0  0  0  0  0
    8.4143    6.6863   16.2273 C   0  0  0  0  0  0  0  0  0  0  0  0
   10.7581    6.5674   21.7636 C   0  0  0  0  0  0  0  0  0  0  0  0
    8.4452    8.7960   19.2958 O   0  0  0  0  0  0  0  0  0  0  0  0
    8.7122    6.7842   24.8569 C   0  0  0  0  0  0  0  0  0  0  0  0
   10.3400    6.1726   14.3081 C   0  0  0  0  0  0  0  0  0  0  0  0
    7.4297    7.5873   24.8962 C   0  0  0  0  0  0  0  0  0  0  0  0
    8.1566   10.0536   16.0516 O   0  0  0  0  0  0  0  0  0  0  0  0
   12.4989    6.2074   20.1776 C   0  0  0  0  0  0  0  0  0  0  0  0
    6.9192    9.1053   20.9073 O   0  0  0  0  0  0  0  0  0  0  0  0
   14.3979    6.0729   18.7784 C   0  0  0  0  0  0  0  0  0  0  0  0
    8.6811    9.5354   16.9998 C   0  0  0  0  0  0  0  0  0  0  0  0
    9.2512    4.2713   13.7653 O   0  0  0  0  0  0  0  0  0  0  0  0
    9.6495    8.6317   16.8332 N   0  0  0  0  0  0  0  0  0  0  0  0
    6.2934    8.6988   23.1988 O   0  0  0  0  0  0  0  0  0  0  0  0
    7.9806    8.6543   20.5437 C   0  0  0  0  0  0  0  0  0  0  0  0
   13.7270    5.7144   19.8610 O   0  0  0  0  0  0  0  0  0  0  0  0
    8.3351    5.5235   15.4478 C   0  0  0  0  0  0  0  0  0  0  0  0
    8.7700    7.8434   21.3915 C   0  0  0  0  0  0  0  0  0  0  0  0
   11.7856    6.8851   19.2401 C   0  0  0  0  0  0  0  0  0  0  0  0
   10.5281    7.4276   19.5649 C   0  0  0  0  0  0  0  0  0  0  0  0
   10.0256    7.2907   20.8484 C   0  0  0  0  0  0  0  0  0  0  0  0
    9.3113    5.3049   14.4911 C   0  0  0  0  0  0  0  0  0  0  0  0
    9.4607    7.5646   16.0139 C   0  0  0  0  0  0  0  0  0  0  0  0
   10.4192    7.3157   15.0955 C   0  0  0  0  0  0  0  0  0  0  0  0
   10.2489    6.4227   23.0218 N   0  0  0  0  0  0  0  0  0  0  0  0
    7.2472    8.0746   23.5050 C   0  0  0  0  0  0  0  0  0  0  0  0
    9.2051    6.9101   23.4604 C   0  0  0  0  0  0  0  0  0  0  0  0
   11.9646    6.0299   21.4251 C   0  0  0  0  0  0  0  0  0  0  0  0
  1  5  1  0
  1 13  1  0
  2 20  2  0
  2 28  1  0
  2 29  1  0
  3 19  4  0
  3 25  4  0
  4 23  4  0
  4 27  1  0
  4 30  4  0
  5 17  1  0
  6  8  1  0
  6 29  1  0
  7 24  4  0
  7 26  4  0
  8 28  1  0
  9 13  2  0
 10 18  1  0
 10 21  4  0
 10 30  4  0
 11 17  2  0
 12 18  1  0
 13 15  1  0
 14 24  1  0
 15 25  1  0
 16 28  2  0
 17 20  1  0
 19 24  4  0
 20 23  1  0
 21 22  4  0
 22 23  4  0
 25 26  4  0
 27 29  2  0
M  END
$$$$

 Created by Python create_sdf_string function

 30 33  0  0  0  0  0  0  0  0999 V2000
    8.3036    9.8571   18.4133 C   0  0  0  0  0  0  0  0  0  0  0  0
    8.3694    7.6612   22.6703 C   0  0  0  0  0  0  0  0  0  0  0  0
    8.4143    6.6863   16.2273 C   0  0  0  0  0  0  0  0  0  0  0  0
   10.7581    6.5674   21.7636 C   0  0  0  0  0  0  0  0  0  0  0  0
    8.4452    8.7960   19.2958 O   0  0  0  0  0  0  0  0  0  0  0  0
    8.7122    6.7842   24.8569 C   0  0  0  0  0  0  0  0  0  0  0  0
   10.3400    6.1726   14.3081 C   0  0  0  0  0  0  0  0  0  0  0  0
    7.4297    7.5873   24.8962 C   0  0  0  0  0  0  0  0  0  0  0  0
    8.1566   10.0536   16.0516 O   0  0  0  0  0  0  0  0  0  0  0  0
   12.4989    6.2074   20.1776 C   0  0  0  0  0  0  0  0  0  0  0  0
    6.9192    9.1053   20.9073 O   0  0  0  0  0  0  0  0  0  0  0  0
   14.3979    6.0729   18.7784 C   0  0  0  0  0  0  0  0  0  0  0  0
    8.6811    9.5354   16.9998 C   0  0  0  0  0  0  0  0  0  0  0  0
    9.2512    4.2713   13.7653 O   0  0  0  0  0  0  0  0  0  0  0  0
    9.6495    8.6317   16.8332 N   0  0  0  0  0  0  0  0  0  0  0  0
    6.2934    8.6988   23.1988 O   0  0  0  0  0  0  0  0  0  0  0  0
    7.9806    8.6543   20.5437 C   0  0  0  0  0  0  0  0  0  0  0  0
   13.7270    5.7144   19.8610 O   0  0  0  0  0  0  0  0  0  0  0  0
    8.3351    5.5235   15.4478 C   0  0  0  0  0  0  0  0  0  0  0  0
    8.7700    7.8434   21.3915 C   0  0  0  0  0  0  0  0  0  0  0  0
   11.7856    6.8851   19.2401 C   0  0  0  0  0  0  0  0  0  0  0  0
   10.5281    7.4276   19.5649 C   0  0  0  0  0  0  0  0  0  0  0  0
   10.0256    7.2907   20.8484 C   0  0  0  0  0  0  0  0  0  0  0  0
    9.3113    5.3049   14.4911 C   0  0  0  0  0  0  0  0  0  0  0  0
    9.4607    7.5646   16.0139 C   0  0  0  0  0  0  0  0  0  0  0  0
   10.4192    7.3157   15.0955 C   0  0  0  0  0  0  0  0  0  0  0  0
   10.2489    6.4227   23.0218 N   0  0  0  0  0  0  0  0  0  0  0  0
    7.2472    8.0746   23.5050 C   0  0  0  0  0  0  0  0  0  0  0  0
    9.2051    6.9101   23.4604 C   0  0  0  0  0  0  0  0  0  0  0  0
   11.9646    6.0299   21.4251 C   0  0  0  0  0  0  0  0  0  0  0  0
  1  5  1  0
  1 13  1  0
  2 20  2  0
  2 28  1  0
  2 29  1  0
  3 19  4  0
  3 25  4  0
  4 23  4  0
  4 27  1  0
  4 30  4  0
  5 17  1  0
  6  8  1  0
  6 29  1  0
  7 24  4  0
  7 26  4  0
  8 28  1  0
  9 13  2  0
 10 18  1  0
 10 21  4  0
 10 30  4  0
 11 17  2  0
 12 18  1  0
 13 15  1  0
 14 24  1  0
 15 25  1  0
 16 28  2  0
 17 20  1  0
 19 24  4  0
 20 23  1  0
 21 22  4  0
 22 23  4  0
 25 26  4  0
 27 29  2  0
M  END
$$$$

 Created by Python create_sdf_string function

 30 33  0  0  0  0  0  0  0  0999 V2000
    8.3036    9.8571   18.4133 C   0  0  0  0  0  0  0  0  0  0  0  0
    8.3694    7.6612   22.6703 C   0  0  0  0  0  0  0  0  0  0  0  0
    8.4143    6.6863   16.2273 C   0  0  0  0  0  0  0  0  0  0  0  0
   10.7581    6.5674   21.7636 C   0  0  0  0  0  0  0  0  0  0  0  0
    8.4452    8.7960   19.2958 O   0  0  0  0  0  0  0  0  0  0  0  0
    8.7122    6.7842   24.8569 C   0  0  0  0  0  0  0  0  0  0  0  0
   10.3400    6.1726   14.3081 C   0  0  0  0  0  0  0  0  0  0  0  0
    7.4297    7.5873   24.8962 C   0  0  0  0  0  0  0  0  0  0  0  0
    8.1566   10.0536   16.0516 O   0  0  0  0  0  0  0  0  0  0  0  0
   12.4989    6.2074   20.1776 C   0  0  0  0  0  0  0  0  0  0  0  0
    6.9192    9.1053   20.9073 O   0  0  0  0  0  0  0  0  0  0  0  0
   14.3979    6.0729   18.7784 C   0  0  0  0  0  0  0  0  0  0  0  0
    8.6811    9.5354   16.9998 C   0  0  0  0  0  0  0  0  0  0  0  0
    9.2512    4.2713   13.7653 O   0  0  0  0  0  0  0  0  0  0  0  0
    9.6495    8.6317   16.8332 N   0  0  0  0  0  0  0  0  0  0  0  0
    6.2934    8.6988   23.1988 O   0  0  0  0  0  0  0  0  0  0  0  0
    7.9806    8.6543   20.5437 C   0  0  0  0  0  0  0  0  0  0  0  0
   13.7270    5.7144   19.8610 O   0  0  0  0  0  0  0  0  0  0  0  0
    8.3351    5.5235   15.4478 C   0  0  0  0  0  0  0  0  0  0  0  0
    8.7700    7.8434   21.3915 C   0  0  0  0  0  0  0  0  0  0  0  0
   11.7856    6.8851   19.2401 C   0  0  0  0  0  0  0  0  0  0  0  0
   10.5281    7.4276   19.5649 C   0  0  0  0  0  0  0  0  0  0  0  0
   10.0256    7.2907   20.8484 C   0  0  0  0  0  0  0  0  0  0  0  0
    9.3113    5.3049   14.4911 C   0  0  0  0  0  0  0  0  0  0  0  0
    9.4607    7.5646   16.0139 C   0  0  0  0  0  0  0  0  0  0  0  0
   10.4192    7.3157   15.0955 C   0  0  0  0  0  0  0  0  0  0  0  0
   10.2489    6.4227   23.0218 N   0  0  0  0  0  0  0  0  0  0  0  0
    7.2472    8.0746   23.5050 C   0  0  0  0  0  0  0  0  0  0  0  0
    9.2051    6.9101   23.4604 C   0  0  0  0  0  0  0  0  0  0  0  0
   11.9646    6.0299   21.4251 C   0  0  0  0  0  0  0  0  0  0  0  0
  1  5  1  0
  1 13  1  0
  2 20  2  0
  2 28  1  0
  2 29  1  0
  3 19  4  0
  3 25  4  0
  4 23  4  0
  4 27  1  0
  4 30  4  0
  5 17  1  0
  6  8  1  0
  6 29  1  0
  7 24  4  0
  7 26  4  0
  8 28  1  0
  9 13  2  0
 10 18  1  0
 10 21  4  0
 10 30  4  0
 11 17  2  0
 12 18  1  0
 13 15  1  0
 14 24  1  0
 15 25  1  0
 16 28  2  0
 17 20  1  0
 19 24  4  0
 20 23  1  0
 21 22  4  0
 22 23  4  0
 25 26  4  0
 27 29  2  0
M  END
$$$$

 Created by Python create_sdf_string function

 30 33  0  0  0  0  0  0  0  0999 V2000
    8.3036    9.8571   18.4133 C   0  0  0  0  0  0  0  0  0  0  0  0
    8.3694    7.6612   22.6703 C   0  0  0  0  0  0  0  0  0  0  0  0
    8.4143    6.6863   16.2273 C   0  0  0  0  0  0  0  0  0  0  0  0
   10.7581    6.5674   21.7636 C   0  0  0  0  0  0  0  0  0  0  0  0
    8.4452    8.7960   19.2958 O   0  0  0  0  0  0  0  0  0  0  0  0
    8.7122    6.7842   24.8569 C   0  0  0  0  0  0  0  0  0  0  0  0
   10.3400    6.1726   14.3081 C   0  0  0  0  0  0  0  0  0  0  0  0
    7.4297    7.5873   24.8962 C   0  0  0  0  0  0  0  0  0  0  0  0
    8.1566   10.0536   16.0516 O   0  0  0  0  0  0  0  0  0  0  0  0
   12.4989    6.2074   20.1776 C   0  0  0  0  0  0  0  0  0  0  0  0
    6.9192    9.1053   20.9073 O   0  0  0  0  0  0  0  0  0  0  0  0
   14.3979    6.0729   18.7784 C   0  0  0  0  0  0  0  0  0  0  0  0
    8.6811    9.5354   16.9998 C   0  0  0  0  0  0  0  0  0  0  0  0
    9.2512    4.2713   13.7653 O   0  0  0  0  0  0  0  0  0  0  0  0
    9.6495    8.6317   16.8332 N   0  0  0  0  0  0  0  0  0  0  0  0
    6.2934    8.6988   23.1988 O   0  0  0  0  0  0  0  0  0  0  0  0
    7.9806    8.6543   20.5437 C   0  0  0  0  0  0  0  0  0  0  0  0
   13.7270    5.7144   19.8610 O   0  0  0  0  0  0  0  0  0  0  0  0
    8.3351    5.5235   15.4478 C   0  0  0  0  0  0  0  0  0  0  0  0
    8.7700    7.8434   21.3915 C   0  0  0  0  0  0  0  0  0  0  0  0
   11.7856    6.8851   19.2401 C   0  0  0  0  0  0  0  0  0  0  0  0
   10.5281    7.4276   19.5649 C   0  0  0  0  0  0  0  0  0  0  0  0
   10.0256    7.2907   20.8484 C   0  0  0  0  0  0  0  0  0  0  0  0
    9.3113    5.3049   14.4911 C   0  0  0  0  0  0  0  0  0  0  0  0
    9.4607    7.5646   16.0139 C   0  0  0  0  0  0  0  0  0  0  0  0
   10.4192    7.3157   15.0955 C   0  0  0  0  0  0  0  0  0  0  0  0
   10.2489    6.4227   23.0218 N   0  0  0  0  0  0  0  0  0  0  0  0
    7.2472    8.0746   23.5050 C   0  0  0  0  0  0  0  0  0  0  0  0
    9.2051    6.9101   23.4604 C   0  0  0  0  0  0  0  0  0  0  0  0
   11.9646    6.0299   21.4251 C   0  0  0  0  0  0  0  0  0  0  0  0
  1  5  1  0
  1 13  1  0
  2 20  2  0
  2 28  1  0
  2 29  1  0
  3 19  4  0
  3 25  4  0
  4 23  4  0
  4 27  1  0
  4 30  4  0
  5 17  1  0
  6  8  1  0
  6 29  1  0
  7 24  4  0
  7 26  4  0
  8 28  1  0
  9 13  2  0
 10 18  1  0
 10 21  4  0
 10 30  4  0
 11 17  2  0
 12 18  1  0
 13 15  1  0
 14 24  1  0
 15 25  1  0
 16 28  2  0
 17 20  1  0
 19 24  4  0
 20 23  1  0
 21 22  4  0
 22 23  4  0
 25 26  4  0
 27 29  2  0
M  END
$$$$

 Created by Python create_sdf_string function

 30 33  0  0  0  0  0  0  0  0999 V2000
    8.3036    9.8571   18.4133 C   0  0  0  0  0  0  0  0  0  0  0  0
    8.3694    7.6612   22.6703 C   0  0  0  0  0  0  0  0  0  0  0  0
    8.4143    6.6863   16.2273 C   0  0  0  0  0  0  0  0  0  0  0  0
   10.7581    6.5674   21.7636 C   0  0  0  0  0  0  0  0  0  0  0  0
    8.4452    8.7960   19.2958 O   0  0  0  0  0  0  0  0  0  0  0  0
    8.7122    6.7842   24.8569 C   0  0  0  0  0  0  0  0  0  0  0  0
   10.3400    6.1726   14.3081 C   0  0  0  0  0  0  0  0  0  0  0  0
    7.4297    7.5873   24.8962 C   0  0  0  0  0  0  0  0  0  0  0  0
    8.1566   10.0536   16.0516 O   0  0  0  0  0  0  0  0  0  0  0  0
   12.4989    6.2074   20.1776 C   0  0  0  0  0  0  0  0  0  0  0  0
    6.9192    9.1053   20.9073 O   0  0  0  0  0  0  0  0  0  0  0  0
   14.3979    6.0729   18.7784 C   0  0  0  0  0  0  0  0  0  0  0  0
    8.6811    9.5354   16.9998 C   0  0  0  0  0  0  0  0  0  0  0  0
    9.2512    4.2713   13.7653 O   0  0  0  0  0  0  0  0  0  0  0  0
    9.6495    8.6317   16.8332 N   0  0  0  0  0  0  0  0  0  0  0  0
    6.2934    8.6988   23.1988 O   0  0  0  0  0  0  0  0  0  0  0  0
    7.9806    8.6543   20.5437 C   0  0  0  0  0  0  0  0  0  0  0  0
   13.7270    5.7144   19.8610 O   0  0  0  0  0  0  0  0  0  0  0  0
    8.3351    5.5235   15.4478 C   0  0  0  0  0  0  0  0  0  0  0  0
    8.7700    7.8434   21.3915 C   0  0  0  0  0  0  0  0  0  0  0  0
   11.7856    6.8851   19.2401 C   0  0  0  0  0  0  0  0  0  0  0  0
   10.5281    7.4276   19.5649 C   0  0  0  0  0  0  0  0  0  0  0  0
   10.0256    7.2907   20.8484 C   0  0  0  0  0  0  0  0  0  0  0  0
    9.3113    5.3049   14.4911 C   0  0  0  0  0  0  0  0  0  0  0  0
    9.4607    7.5646   16.0139 C   0  0  0  0  0  0  0  0  0  0  0  0
   10.4192    7.3157   15.0955 C   0  0  0  0  0  0  0  0  0  0  0  0
   10.2489    6.4227   23.0218 N   0  0  0  0  0  0  0  0  0  0  0  0
    7.2472    8.0746   23.5050 C   0  0  0  0  0  0  0  0  0  0  0  0
    9.2051    6.9101   23.4604 C   0  0  0  0  0  0  0  0  0  0  0  0
   11.9646    6.0299   21.4251 C   0  0  0  0  0  0  0  0  0  0  0  0
  1  5  1  0
  1 13  1  0
  2 20  2  0
  2 28  1  0
  2 29  1  0
  3 19  4  0
  3 25  4  0
  4 23  4  0
  4 27  1  0
  4 30  4  0
  5 17  1  0
  6  8  1  0
  6 29  1  0
  7 24  4  0
  7 26  4  0
  8 28  1  0
  9 13  2  0
 10 18  1  0
 10 21  4  0
 10 30  4  0
 11 17  2  0
 12 18  1  0
 13 15  1  0
 14 24  1  0
 15 25  1  0
 16 28  2  0
 17 20  1  0
 19 24  4  0
 20 23  1  0
 21 22  4  0
 22 23  4  0
 25 26  4  0
 27 29  2  0
M  END
$$$$

 Created by Python create_sdf_string function

 30 33  0  0  0  0  0  0  0  0999 V2000
    8.3036    9.8571   18.4133 C   0  0  0  0  0  0  0  0  0  0  0  0
    8.3694    7.6612   22.6703 C   0  0  0  0  0  0  0  0  0  0  0  0
    8.4143    6.6863   16.2273 C   0  0  0  0  0  0  0  0  0  0  0  0
   10.7581    6.5674   21.7636 C   0  0  0  0  0  0  0  0  0  0  0  0
    8.4452    8.7960   19.2958 O   0  0  0  0  0  0  0  0  0  0  0  0
    8.7122    6.7842   24.8569 C   0  0  0  0  0  0  0  0  0  0  0  0
   10.3400    6.1726   14.3081 C   0  0  0  0  0  0  0  0  0  0  0  0
    7.4297    7.5873   24.8962 C   0  0  0  0  0  0  0  0  0  0  0  0
    8.1566   10.0536   16.0516 O   0  0  0  0  0  0  0  0  0  0  0  0
   12.4989    6.2074   20.1776 C   0  0  0  0  0  0  0  0  0  0  0  0
    6.9192    9.1053   20.9073 O   0  0  0  0  0  0  0  0  0  0  0  0
   14.3979    6.0729   18.7784 C   0  0  0  0  0  0  0  0  0  0  0  0
    8.6811    9.5354   16.9998 C   0  0  0  0  0  0  0  0  0  0  0  0
    9.2512    4.2713   13.7653 O   0  0  0  0  0  0  0  0  0  0  0  0
    9.6495    8.6317   16.8332 N   0  0  0  0  0  0  0  0  0  0  0  0
    6.2934    8.6988   23.1988 O   0  0  0  0  0  0  0  0  0  0  0  0
    7.9806    8.6543   20.5437 C   0  0  0  0  0  0  0  0  0  0  0  0
   13.7270    5.7144   19.8610 O   0  0  0  0  0  0  0  0  0  0  0  0
    8.3351    5.5235   15.4478 C   0  0  0  0  0  0  0  0  0  0  0  0
    8.7700    7.8434   21.3915 C   0  0  0  0  0  0  0  0  0  0  0  0
   11.7856    6.8851   19.2401 C   0  0  0  0  0  0  0  0  0  0  0  0
   10.5281    7.4276   19.5649 C   0  0  0  0  0  0  0  0  0  0  0  0
   10.0256    7.2907   20.8484 C   0  0  0  0  0  0  0  0  0  0  0  0
    9.3113    5.3049   14.4911 C   0  0  0  0  0  0  0  0  0  0  0  0
    9.4607    7.5646   16.0139 C   0  0  0  0  0  0  0  0  0  0  0  0
   10.4192    7.3157   15.0955 C   0  0  0  0  0  0  0  0  0  0  0  0
   10.2489    6.4227   23.0218 N   0  0  0  0  0  0  0  0  0  0  0  0
    7.2472    8.0746   23.5050 C   0  0  0  0  0  0  0  0  0  0  0  0
    9.2051    6.9101   23.4604 C   0  0  0  0  0  0  0  0  0  0  0  0
   11.9646    6.0299   21.4251 C   0  0  0  0  0  0  0  0  0  0  0  0
  1  5  1  0
  1 13  1  0
  2 20  2  0
  2 28  1  0
  2 29  1  0
  3 19  4  0
  3 25  4  0
  4 23  4  0
  4 27  1  0
  4 30  4  0
  5 17  1  0
  6  8  1  0
  6 29  1  0
  7 24  4  0
  7 26  4  0
  8 28  1  0
  9 13  2  0
 10 18  1  0
 10 21  4  0
 10 30  4  0
 11 17  2  0
 12 18  1  0
 13 15  1  0
 14 24  1  0
 15 25  1  0
 16 28  2  0
 17 20  1  0
 19 24  4  0
 20 23  1  0
 21 22  4  0
 22 23  4  0
 25 26  4  0
 27 29  2  0
M  END
$$$$

 Created by Python create_sdf_string function

 30 33  0  0  0  0  0  0  0  0999 V2000
    8.3036    9.8571   18.4133 C   0  0  0  0  0  0  0  0  0  0  0  0
    8.3694    7.6612   22.6703 C   0  0  0  0  0  0  0  0  0  0  0  0
    8.4143    6.6863   16.2273 C   0  0  0  0  0  0  0  0  0  0  0  0
   10.7581    6.5674   21.7636 C   0  0  0  0  0  0  0  0  0  0  0  0
    8.4452    8.7960   19.2958 O   0  0  0  0  0  0  0  0  0  0  0  0
    8.7122    6.7842   24.8569 C   0  0  0  0  0  0  0  0  0  0  0  0
   10.3400    6.1726   14.3081 C   0  0  0  0  0  0  0  0  0  0  0  0
    7.4297    7.5873   24.8962 C   0  0  0  0  0  0  0  0  0  0  0  0
    8.1566   10.0536   16.0516 O   0  0  0  0  0  0  0  0  0  0  0  0
   12.4989    6.2074   20.1776 C   0  0  0  0  0  0  0  0  0  0  0  0
    6.9192    9.1053   20.9073 O   0  0  0  0  0  0  0  0  0  0  0  0
   14.3979    6.0729   18.7784 C   0  0  0  0  0  0  0  0  0  0  0  0
    8.6811    9.5354   16.9998 C   0  0  0  0  0  0  0  0  0  0  0  0
    9.2512    4.2713   13.7653 O   0  0  0  0  0  0  0  0  0  0  0  0
    9.6495    8.6317   16.8332 N   0  0  0  0  0  0  0  0  0  0  0  0
    6.2934    8.6988   23.1988 O   0  0  0  0  0  0  0  0  0  0  0  0
    7.9806    8.6543   20.5437 C   0  0  0  0  0  0  0  0  0  0  0  0
   13.7270    5.7144   19.8610 O   0  0  0  0  0  0  0  0  0  0  0  0
    8.3351    5.5235   15.4478 C   0  0  0  0  0  0  0  0  0  0  0  0
    8.7700    7.8434   21.3915 C   0  0  0  0  0  0  0  0  0  0  0  0
   11.7856    6.8851   19.2401 C   0  0  0  0  0  0  0  0  0  0  0  0
   10.5281    7.4276   19.5649 C   0  0  0  0  0  0  0  0  0  0  0  0
   10.0256    7.2907   20.8484 C   0  0  0  0  0  0  0  0  0  0  0  0
    9.3113    5.3049   14.4911 C   0  0  0  0  0  0  0  0  0  0  0  0
    9.4607    7.5646   16.0139 C   0  0  0  0  0  0  0  0  0  0  0  0
   10.4192    7.3157   15.0955 C   0  0  0  0  0  0  0  0  0  0  0  0
   10.2489    6.4227   23.0218 N   0  0  0  0  0  0  0  0  0  0  0  0
    7.2472    8.0746   23.5050 C   0  0  0  0  0  0  0  0  0  0  0  0
    9.2051    6.9101   23.4604 C   0  0  0  0  0  0  0  0  0  0  0  0
   11.9646    6.0299   21.4251 C   0  0  0  0  0  0  0  0  0  0  0  0
  1  5  1  0
  1 13  1  0
  2 20  2  0
  2 28  1  0
  2 29  1  0
  3 19  4  0
  3 25  4  0
  4 23  4  0
  4 27  1  0
  4 30  4  0
  5 17  1  0
  6  8  1  0
  6 29  1  0
  7 24  4  0
  7 26  4  0
  8 28  1  0
  9 13  2  0
 10 18  1  0
 10 21  4  0
 10 30  4  0
 11 17  2  0
 12 18  1  0
 13 15  1  0
 14 24  1  0
 15 25  1  0
 16 28  2  0
 17 20  1  0
 19 24  4  0
 20 23  1  0
 21 22  4  0
 22 23  4  0
 25 26  4  0
 27 29  2  0
M  END
$$$$

 Created by Python create_sdf_string function

 30 33  0  0  0  0  0  0  0  0999 V2000
    8.3036    9.8571   18.4133 C   0  0  0  0  0  0  0  0  0  0  0  0
    8.3694    7.6612   22.6703 C   0  0  0  0  0  0  0  0  0  0  0  0
    8.4143    6.6863   16.2273 C   0  0  0  0  0  0  0  0  0  0  0  0
   10.7581    6.5674   21.7636 C   0  0  0  0  0  0  0  0  0  0  0  0
    8.4452    8.7960   19.2958 O   0  0  0  0  0  0  0  0  0  0  0  0
    8.7122    6.7842   24.8569 C   0  0  0  0  0  0  0  0  0  0  0  0
   10.3400    6.1726   14.3081 C   0  0  0  0  0  0  0  0  0  0  0  0
    7.4297    7.5873   24.8962 C   0  0  0  0  0  0  0  0  0  0  0  0
    8.1566   10.0536   16.0516 O   0  0  0  0  0  0  0  0  0  0  0  0
   12.4989    6.2074   20.1776 C   0  0  0  0  0  0  0  0  0  0  0  0
    6.9192    9.1053   20.9073 O   0  0  0  0  0  0  0  0  0  0  0  0
   14.3979    6.0729   18.7784 C   0  0  0  0  0  0  0  0  0  0  0  0
    8.6811    9.5354   16.9998 C   0  0  0  0  0  0  0  0  0  0  0  0
    9.2512    4.2713   13.7653 O   0  0  0  0  0  0  0  0  0  0  0  0
    9.6495    8.6317   16.8332 N   0  0  0  0  0  0  0  0  0  0  0  0
    6.2934    8.6988   23.1988 O   0  0  0  0  0  0  0  0  0  0  0  0
    7.9806    8.6543   20.5437 C   0  0  0  0  0  0  0  0  0  0  0  0
   13.7270    5.7144   19.8610 O   0  0  0  0  0  0  0  0  0  0  0  0
    8.3351    5.5235   15.4478 C   0  0  0  0  0  0  0  0  0  0  0  0
    8.7700    7.8434   21.3915 C   0  0  0  0  0  0  0  0  0  0  0  0
   11.7856    6.8851   19.2401 C   0  0  0  0  0  0  0  0  0  0  0  0
   10.5281    7.4276   19.5649 C   0  0  0  0  0  0  0  0  0  0  0  0
   10.0256    7.2907   20.8484 C   0  0  0  0  0  0  0  0  0  0  0  0
    9.3113    5.3049   14.4911 C   0  0  0  0  0  0  0  0  0  0  0  0
    9.4607    7.5646   16.0139 C   0  0  0  0  0  0  0  0  0  0  0  0
   10.4192    7.3157   15.0955 C   0  0  0  0  0  0  0  0  0  0  0  0
   10.2489    6.4227   23.0218 N   0  0  0  0  0  0  0  0  0  0  0  0
    7.2472    8.0746   23.5050 C   0  0  0  0  0  0  0  0  0  0  0  0
    9.2051    6.9101   23.4604 C   0  0  0  0  0  0  0  0  0  0  0  0
   11.9646    6.0299   21.4251 C   0  0  0  0  0  0  0  0  0  0  0  0
  1  5  1  0
  1 13  1  0
  2 20  2  0
  2 28  1  0
  2 29  1  0
  3 19  4  0
  3 25  4  0
  4 23  4  0
  4 27  1  0
  4 30  4  0
  5 17  1  0
  6  8  1  0
  6 29  1  0
  7 24  4  0
  7 26  4  0
  8 28  1  0
  9 13  2  0
 10 18  1  0
 10 21  4  0
 10 30  4  0
 11 17  2  0
 12 18  1  0
 13 15  1  0
 14 24  1  0
 15 25  1  0
 16 28  2  0
 17 20  1  0
 19 24  4  0
 20 23  1  0
 21 22  4  0
 22 23  4  0
 25 26  4  0
 27 29  2  0
M  END
$$$$

 Created by Python create_sdf_string function

 30 33  0  0  0  0  0  0  0  0999 V2000
    8.3036    9.8571   18.4133 C   0  0  0  0  0  0  0  0  0  0  0  0
    8.3694    7.6612   22.6703 C   0  0  0  0  0  0  0  0  0  0  0  0
    8.4143    6.6863   16.2273 C   0  0  0  0  0  0  0  0  0  0  0  0
   10.7581    6.5674   21.7636 C   0  0  0  0  0  0  0  0  0  0  0  0
    8.4452    8.7960   19.2958 O   0  0  0  0  0  0  0  0  0  0  0  0
    8.7122    6.7842   24.8569 C   0  0  0  0  0  0  0  0  0  0  0  0
   10.3400    6.1726   14.3081 C   0  0  0  0  0  0  0  0  0  0  0  0
    7.4297    7.5873   24.8962 C   0  0  0  0  0  0  0  0  0  0  0  0
    8.1566   10.0536   16.0516 O   0  0  0  0  0  0  0  0  0  0  0  0
   12.4989    6.2074   20.1776 C   0  0  0  0  0  0  0  0  0  0  0  0
    6.9192    9.1053   20.9073 O   0  0  0  0  0  0  0  0  0  0  0  0
   14.3979    6.0729   18.7784 C   0  0  0  0  0  0  0  0  0  0  0  0
    8.6811    9.5354   16.9998 C   0  0  0  0  0  0  0  0  0  0  0  0
    9.2512    4.2713   13.7653 O   0  0  0  0  0  0  0  0  0  0  0  0
    9.6495    8.6317   16.8332 N   0  0  0  0  0  0  0  0  0  0  0  0
    6.2934    8.6988   23.1988 O   0  0  0  0  0  0  0  0  0  0  0  0
    7.9806    8.6543   20.5437 C   0  0  0  0  0  0  0  0  0  0  0  0
   13.7270    5.7144   19.8610 O   0  0  0  0  0  0  0  0  0  0  0  0
    8.3351    5.5235   15.4478 C   0  0  0  0  0  0  0  0  0  0  0  0
    8.7700    7.8434   21.3915 C   0  0  0  0  0  0  0  0  0  0  0  0
   11.7856    6.8851   19.2401 C   0  0  0  0  0  0  0  0  0  0  0  0
   10.5281    7.4276   19.5649 C   0  0  0  0  0  0  0  0  0  0  0  0
   10.0256    7.2907   20.8484 C   0  0  0  0  0  0  0  0  0  0  0  0
    9.3113    5.3049   14.4911 C   0  0  0  0  0  0  0  0  0  0  0  0
    9.4607    7.5646   16.0139 C   0  0  0  0  0  0  0  0  0  0  0  0
   10.4192    7.3157   15.0955 C   0  0  0  0  0  0  0  0  0  0  0  0
   10.2489    6.4227   23.0218 N   0  0  0  0  0  0  0  0  0  0  0  0
    7.2472    8.0746   23.5050 C   0  0  0  0  0  0  0  0  0  0  0  0
    9.2051    6.9101   23.4604 C   0  0  0  0  0  0  0  0  0  0  0  0
   11.9646    6.0299   21.4251 C   0  0  0  0  0  0  0  0  0  0  0  0
  1  5  1  0
  1 13  1  0
  2 20  2  0
  2 28  1  0
  2 29  1  0
  3 19  4  0
  3 25  4  0
  4 23  4  0
  4 27  1  0
  4 30  4  0
  5 17  1  0
  6  8  1  0
  6 29  1  0
  7 24  4  0
  7 26  4  0
  8 28  1  0
  9 13  2  0
 10 18  1  0
 10 21  4  0
 10 30  4  0
 11 17  2  0
 12 18  1  0
 13 15  1  0
 14 24  1  0
 15 25  1  0
 16 28  2  0
 17 20  1  0
 19 24  4  0
 20 23  1  0
 21 22  4  0
 22 23  4  0
 25 26  4  0
 27 29  2  0
M  END
$$$$

 Created by Python create_sdf_string function

 30 33  0  0  0  0  0  0  0  0999 V2000
    8.3036    9.8571   18.4133 C   0  0  0  0  0  0  0  0  0  0  0  0
    8.3694    7.6612   22.6703 C   0  0  0  0  0  0  0  0  0  0  0  0
    8.4143    6.6863   16.2273 C   0  0  0  0  0  0  0  0  0  0  0  0
   10.7581    6.5674   21.7636 C   0  0  0  0  0  0  0  0  0  0  0  0
    8.4452    8.7960   19.2958 O   0  0  0  0  0  0  0  0  0  0  0  0
    8.7122    6.7842   24.8569 C   0  0  0  0  0  0  0  0  0  0  0  0
   10.3400    6.1726   14.3081 C   0  0  0  0  0  0  0  0  0  0  0  0
    7.4297    7.5873   24.8962 C   0  0  0  0  0  0  0  0  0  0  0  0
    8.1566   10.0536   16.0516 O   0  0  0  0  0  0  0  0  0  0  0  0
   12.4989    6.2074   20.1776 C   0  0  0  0  0  0  0  0  0  0  0  0
    6.9192    9.1053   20.9073 O   0  0  0  0  0  0  0  0  0  0  0  0
   14.3979    6.0729   18.7784 C   0  0  0  0  0  0  0  0  0  0  0  0
    8.6811    9.5354   16.9998 C   0  0  0  0  0  0  0  0  0  0  0  0
    9.2512    4.2713   13.7653 O   0  0  0  0  0  0  0  0  0  0  0  0
    9.6495    8.6317   16.8332 N   0  0  0  0  0  0  0  0  0  0  0  0
    6.2934    8.6988   23.1988 O   0  0  0  0  0  0  0  0  0  0  0  0
    7.9806    8.6543   20.5437 C   0  0  0  0  0  0  0  0  0  0  0  0
   13.7270    5.7144   19.8610 O   0  0  0  0  0  0  0  0  0  0  0  0
    8.3351    5.5235   15.4478 C   0  0  0  0  0  0  0  0  0  0  0  0
    8.7700    7.8434   21.3915 C   0  0  0  0  0  0  0  0  0  0  0  0
   11.7856    6.8851   19.2401 C   0  0  0  0  0  0  0  0  0  0  0  0
   10.5281    7.4276   19.5649 C   0  0  0  0  0  0  0  0  0  0  0  0
   10.0256    7.2907   20.8484 C   0  0  0  0  0  0  0  0  0  0  0  0
    9.3113    5.3049   14.4911 C   0  0  0  0  0  0  0  0  0  0  0  0
    9.4607    7.5646   16.0139 C   0  0  0  0  0  0  0  0  0  0  0  0
   10.4192    7.3157   15.0955 C   0  0  0  0  0  0  0  0  0  0  0  0
   10.2489    6.4227   23.0218 N   0  0  0  0  0  0  0  0  0  0  0  0
    7.2472    8.0746   23.5050 C   0  0  0  0  0  0  0  0  0  0  0  0
    9.2051    6.9101   23.4604 C   0  0  0  0  0  0  0  0  0  0  0  0
   11.9646    6.0299   21.4251 C   0  0  0  0  0  0  0  0  0  0  0  0
  1  5  1  0
  1 13  1  0
  2 20  2  0
  2 28  1  0
  2 29  1  0
  3 19  4  0
  3 25  4  0
  4 23  4  0
  4 27  1  0
  4 30  4  0
  5 17  1  0
  6  8  1  0
  6 29  1  0
  7 24  4  0
  7 26  4  0
  8 28  1  0
  9 13  2  0
 10 18  1  0
 10 21  4  0
 10 30  4  0
 11 17  2  0
 12 18  1  0
 13 15  1  0
 14 24  1  0
 15 25  1  0
 16 28  2  0
 17 20  1  0
 19 24  4  0
 20 23  1  0
 21 22  4  0
 22 23  4  0
 25 26  4  0
 27 29  2  0
M  END
$$$$

 Created by Python create_sdf_string function

 30 33  0  0  0  0  0  0  0  0999 V2000
    8.3036    9.8571   18.4133 C   0  0  0  0  0  0  0  0  0  0  0  0
    8.3694    7.6612   22.6703 C   0  0  0  0  0  0  0  0  0  0  0  0
    8.4143    6.6863   16.2273 C   0  0  0  0  0  0  0  0  0  0  0  0
   10.7581    6.5674   21.7636 C   0  0  0  0  0  0  0  0  0  0  0  0
    8.4452    8.7960   19.2958 O   0  0  0  0  0  0  0  0  0  0  0  0
    8.7122    6.7842   24.8569 C   0  0  0  0  0  0  0  0  0  0  0  0
   10.3400    6.1726   14.3081 C   0  0  0  0  0  0  0  0  0  0  0  0
    7.4297    7.5873   24.8962 C   0  0  0  0  0  0  0  0  0  0  0  0
    8.1566   10.0536   16.0516 O   0  0  0  0  0  0  0  0  0  0  0  0
   12.4989    6.2074   20.1776 C   0  0  0  0  0  0  0  0  0  0  0  0
    6.9192    9.1053   20.9073 O   0  0  0  0  0  0  0  0  0  0  0  0
   14.3979    6.0729   18.7784 C   0  0  0  0  0  0  0  0  0  0  0  0
    8.6811    9.5354   16.9998 C   0  0  0  0  0  0  0  0  0  0  0  0
    9.2512    4.2713   13.7653 O   0  0  0  0  0  0  0  0  0  0  0  0
    9.6495    8.6317   16.8332 N   0  0  0  0  0  0  0  0  0  0  0  0
    6.2934    8.6988   23.1988 O   0  0  0  0  0  0  0  0  0  0  0  0
    7.9806    8.6543   20.5437 C   0  0  0  0  0  0  0  0  0  0  0  0
   13.7270    5.7144   19.8610 O   0  0  0  0  0  0  0  0  0  0  0  0
    8.3351    5.5235   15.4478 C   0  0  0  0  0  0  0  0  0  0  0  0
    8.7700    7.8434   21.3915 C   0  0  0  0  0  0  0  0  0  0  0  0
   11.7856    6.8851   19.2401 C   0  0  0  0  0  0  0  0  0  0  0  0
   10.5281    7.4276   19.5649 C   0  0  0  0  0  0  0  0  0  0  0  0
   10.0256    7.2907   20.8484 C   0  0  0  0  0  0  0  0  0  0  0  0
    9.3113    5.3049   14.4911 C   0  0  0  0  0  0  0  0  0  0  0  0
    9.4607    7.5646   16.0139 C   0  0  0  0  0  0  0  0  0  0  0  0
   10.4192    7.3157   15.0955 C   0  0  0  0  0  0  0  0  0  0  0  0
   10.2489    6.4227   23.0218 N   0  0  0  0  0  0  0  0  0  0  0  0
    7.2472    8.0746   23.5050 C   0  0  0  0  0  0  0  0  0  0  0  0
    9.2051    6.9101   23.4604 C   0  0  0  0  0  0  0  0  0  0  0  0
   11.9646    6.0299   21.4251 C   0  0  0  0  0  0  0  0  0  0  0  0
  1  5  1  0
  1 13  1  0
  2 20  2  0
  2 28  1  0
  2 29  1  0
  3 19  4  0
  3 25  4  0
  4 23  4  0
  4 27  1  0
  4 30  4  0
  5 17  1  0
  6  8  1  0
  6 29  1  0
  7 24  4  0
  7 26  4  0
  8 28  1  0
  9 13  2  0
 10 18  1  0
 10 21  4  0
 10 30  4  0
 11 17  2  0
 12 18  1  0
 13 15  1  0
 14 24  1  0
 15 25  1  0
 16 28  2  0
 17 20  1  0
 19 24  4  0
 20 23  1  0
 21 22  4  0
 22 23  4  0
 25 26  4  0
 27 29  2  0
M  END
$$$$

 Created by Python create_sdf_string function

 30 33  0  0  0  0  0  0  0  0999 V2000
    8.3036    9.8571   18.4133 C   0  0  0  0  0  0  0  0  0  0  0  0
    8.3694    7.6612   22.6703 C   0  0  0  0  0  0  0  0  0  0  0  0
    8.4143    6.6863   16.2273 C   0  0  0  0  0  0  0  0  0  0  0  0
   10.7581    6.5674   21.7636 C   0  0  0  0  0  0  0  0  0  0  0  0
    8.4452    8.7960   19.2958 O   0  0  0  0  0  0  0  0  0  0  0  0
    8.7122    6.7842   24.8569 C   0  0  0  0  0  0  0  0  0  0  0  0
   10.3400    6.1726   14.3081 C   0  0  0  0  0  0  0  0  0  0  0  0
    7.4297    7.5873   24.8962 C   0  0  0  0  0  0  0  0  0  0  0  0
    8.1566   10.0536   16.0516 O   0  0  0  0  0  0  0  0  0  0  0  0
   12.4989    6.2074   20.1776 C   0  0  0  0  0  0  0  0  0  0  0  0
    6.9192    9.1053   20.9073 O   0  0  0  0  0  0  0  0  0  0  0  0
   14.3979    6.0729   18.7784 C   0  0  0  0  0  0  0  0  0  0  0  0
    8.6811    9.5354   16.9998 C   0  0  0  0  0  0  0  0  0  0  0  0
    9.2512    4.2713   13.7653 O   0  0  0  0  0  0  0  0  0  0  0  0
    9.6495    8.6317   16.8332 N   0  0  0  0  0  0  0  0  0  0  0  0
    6.2934    8.6988   23.1988 O   0  0  0  0  0  0  0  0  0  0  0  0
    7.9806    8.6543   20.5437 C   0  0  0  0  0  0  0  0  0  0  0  0
   13.7270    5.7144   19.8610 O   0  0  0  0  0  0  0  0  0  0  0  0
    8.3351    5.5235   15.4478 C   0  0  0  0  0  0  0  0  0  0  0  0
    8.7700    7.8434   21.3915 C   0  0  0  0  0  0  0  0  0  0  0  0
   11.7856    6.8851   19.2401 C   0  0  0  0  0  0  0  0  0  0  0  0
   10.5281    7.4276   19.5649 C   0  0  0  0  0  0  0  0  0  0  0  0
   10.0256    7.2907   20.8484 C   0  0  0  0  0  0  0  0  0  0  0  0
    9.3113    5.3049   14.4911 C   0  0  0  0  0  0  0  0  0  0  0  0
    9.4607    7.5646   16.0139 C   0  0  0  0  0  0  0  0  0  0  0  0
   10.4192    7.3157   15.0955 C   0  0  0  0  0  0  0  0  0  0  0  0
   10.2489    6.4227   23.0218 N   0  0  0  0  0  0  0  0  0  0  0  0
    7.2472    8.0746   23.5050 C   0  0  0  0  0  0  0  0  0  0  0  0
    9.2051    6.9101   23.4604 C   0  0  0  0  0  0  0  0  0  0  0  0
   11.9646    6.0299   21.4251 C   0  0  0  0  0  0  0  0  0  0  0  0
  1  5  1  0
  1 13  1  0
  2 20  2  0
  2 28  1  0
  2 29  1  0
  3 19  4  0
  3 25  4  0
  4 23  4  0
  4 27  1  0
  4 30  4  0
  5 17  1  0
  6  8  1  0
  6 29  1  0
  7 24  4  0
  7 26  4  0
  8 28  1  0
  9 13  2  0
 10 18  1  0
 10 21  4  0
 10 30  4  0
 11 17  2  0
 12 18  1  0
 13 15  1  0
 14 24  1  0
 15 25  1  0
 16 28  2  0
 17 20  1  0
 19 24  4  0
 20 23  1  0
 21 22  4  0
 22 23  4  0
 25 26  4  0
 27 29  2  0
M  END
$$$$

 Created by Python create_sdf_string function

 30 33  0  0  0  0  0  0  0  0999 V2000
    8.3036    9.8571   18.4133 C   0  0  0  0  0  0  0  0  0  0  0  0
    8.3694    7.6612   22.6703 C   0  0  0  0  0  0  0  0  0  0  0  0
    8.4143    6.6863   16.2273 C   0  0  0  0  0  0  0  0  0  0  0  0
   10.7581    6.5674   21.7636 C   0  0  0  0  0  0  0  0  0  0  0  0
    8.4452    8.7960   19.2958 O   0  0  0  0  0  0  0  0  0  0  0  0
    8.7122    6.7842   24.8569 C   0  0  0  0  0  0  0  0  0  0  0  0
   10.3400    6.1726   14.3081 C   0  0  0  0  0  0  0  0  0  0  0  0
    7.4297    7.5873   24.8962 C   0  0  0  0  0  0  0  0  0  0  0  0
    8.1566   10.0536   16.0516 O   0  0  0  0  0  0  0  0  0  0  0  0
   12.4989    6.2074   20.1776 C   0  0  0  0  0  0  0  0  0  0  0  0
    6.9192    9.1053   20.9073 O   0  0  0  0  0  0  0  0  0  0  0  0
   14.3979    6.0729   18.7784 C   0  0  0  0  0  0  0  0  0  0  0  0
    8.6811    9.5354   16.9998 C   0  0  0  0  0  0  0  0  0  0  0  0
    9.2512    4.2713   13.7653 O   0  0  0  0  0  0  0  0  0  0  0  0
    9.6495    8.6317   16.8332 N   0  0  0  0  0  0  0  0  0  0  0  0
    6.2934    8.6988   23.1988 O   0  0  0  0  0  0  0  0  0  0  0  0
    7.9806    8.6543   20.5437 C   0  0  0  0  0  0  0  0  0  0  0  0
   13.7270    5.7144   19.8610 O   0  0  0  0  0  0  0  0  0  0  0  0
    8.3351    5.5235   15.4478 C   0  0  0  0  0  0  0  0  0  0  0  0
    8.7700    7.8434   21.3915 C   0  0  0  0  0  0  0  0  0  0  0  0
   11.7856    6.8851   19.2401 C   0  0  0  0  0  0  0  0  0  0  0  0
   10.5281    7.4276   19.5649 C   0  0  0  0  0  0  0  0  0  0  0  0
   10.0256    7.2907   20.8484 C   0  0  0  0  0  0  0  0  0  0  0  0
    9.3113    5.3049   14.4911 C   0  0  0  0  0  0  0  0  0  0  0  0
    9.4607    7.5646   16.0139 C   0  0  0  0  0  0  0  0  0  0  0  0
   10.4192    7.3157   15.0955 C   0  0  0  0  0  0  0  0  0  0  0  0
   10.2489    6.4227   23.0218 N   0  0  0  0  0  0  0  0  0  0  0  0
    7.2472    8.0746   23.5050 C   0  0  0  0  0  0  0  0  0  0  0  0
    9.2051    6.9101   23.4604 C   0  0  0  0  0  0  0  0  0  0  0  0
   11.9646    6.0299   21.4251 C   0  0  0  0  0  0  0  0  0  0  0  0
  1  5  1  0
  1 13  1  0
  2 20  2  0
  2 28  1  0
  2 29  1  0
  3 19  4  0
  3 25  4  0
  4 23  4  0
  4 27  1  0
  4 30  4  0
  5 17  1  0
  6  8  1  0
  6 29  1  0
  7 24  4  0
  7 26  4  0
  8 28  1  0
  9 13  2  0
 10 18  1  0
 10 21  4  0
 10 30  4  0
 11 17  2  0
 12 18  1  0
 13 15  1  0
 14 24  1  0
 15 25  1  0
 16 28  2  0
 17 20  1  0
 19 24  4  0
 20 23  1  0
 21 22  4  0
 22 23  4  0
 25 26  4  0
 27 29  2  0
M  END
$$$$

 Created by Python create_sdf_string function

 30 33  0  0  0  0  0  0  0  0999 V2000
    8.3036    9.8571   18.4133 C   0  0  0  0  0  0  0  0  0  0  0  0
    8.3694    7.6612   22.6703 C   0  0  0  0  0  0  0  0  0  0  0  0
    8.4143    6.6863   16.2273 C   0  0  0  0  0  0  0  0  0  0  0  0
   10.7581    6.5674   21.7636 C   0  0  0  0  0  0  0  0  0  0  0  0
    8.4452    8.7960   19.2958 O   0  0  0  0  0  0  0  0  0  0  0  0
    8.7122    6.7842   24.8569 C   0  0  0  0  0  0  0  0  0  0  0  0
   10.3400    6.1726   14.3081 C   0  0  0  0  0  0  0  0  0  0  0  0
    7.4297    7.5873   24.8962 C   0  0  0  0  0  0  0  0  0  0  0  0
    8.1566   10.0536   16.0516 O   0  0  0  0  0  0  0  0  0  0  0  0
   12.4989    6.2074   20.1776 C   0  0  0  0  0  0  0  0  0  0  0  0
    6.9192    9.1053   20.9073 O   0  0  0  0  0  0  0  0  0  0  0  0
   14.3979    6.0729   18.7784 C   0  0  0  0  0  0  0  0  0  0  0  0
    8.6811    9.5354   16.9998 C   0  0  0  0  0  0  0  0  0  0  0  0
    9.2512    4.2713   13.7653 O   0  0  0  0  0  0  0  0  0  0  0  0
    9.6495    8.6317   16.8332 N   0  0  0  0  0  0  0  0  0  0  0  0
    6.2934    8.6988   23.1988 O   0  0  0  0  0  0  0  0  0  0  0  0
    7.9806    8.6543   20.5437 C   0  0  0  0  0  0  0  0  0  0  0  0
   13.7270    5.7144   19.8610 O   0  0  0  0  0  0  0  0  0  0  0  0
    8.3351    5.5235   15.4478 C   0  0  0  0  0  0  0  0  0  0  0  0
    8.7700    7.8434   21.3915 C   0  0  0  0  0  0  0  0  0  0  0  0
   11.7856    6.8851   19.2401 C   0  0  0  0  0  0  0  0  0  0  0  0
   10.5281    7.4276   19.5649 C   0  0  0  0  0  0  0  0  0  0  0  0
   10.0256    7.2907   20.8484 C   0  0  0  0  0  0  0  0  0  0  0  0
    9.3113    5.3049   14.4911 C   0  0  0  0  0  0  0  0  0  0  0  0
    9.4607    7.5646   16.0139 C   0  0  0  0  0  0  0  0  0  0  0  0
   10.4192    7.3157   15.0955 C   0  0  0  0  0  0  0  0  0  0  0  0
   10.2489    6.4227   23.0218 N   0  0  0  0  0  0  0  0  0  0  0  0
    7.2472    8.0746   23.5050 C   0  0  0  0  0  0  0  0  0  0  0  0
    9.2051    6.9101   23.4604 C   0  0  0  0  0  0  0  0  0  0  0  0
   11.9646    6.0299   21.4251 C   0  0  0  0  0  0  0  0  0  0  0  0
  1  5  1  0
  1 13  1  0
  2 20  2  0
  2 28  1  0
  2 29  1  0
  3 19  4  0
  3 25  4  0
  4 23  4  0
  4 27  1  0
  4 30  4  0
  5 17  1  0
  6  8  1  0
  6 29  1  0
  7 24  4  0
  7 26  4  0
  8 28  1  0
  9 13  2  0
 10 18  1  0
 10 21  4  0
 10 30  4  0
 11 17  2  0
 12 18  1  0
 13 15  1  0
 14 24  1  0
 15 25  1  0
 16 28  2  0
 17 20  1  0
 19 24  4  0
 20 23  1  0
 21 22  4  0
 22 23  4  0
 25 26  4  0
 27 29  2  0
M  END
$$$$

 Created by Python create_sdf_string function

 30 33  0  0  0  0  0  0  0  0999 V2000
    8.3036    9.8571   18.4133 C   0  0  0  0  0  0  0  0  0  0  0  0
    8.3694    7.6612   22.6703 C   0  0  0  0  0  0  0  0  0  0  0  0
    8.4143    6.6863   16.2273 C   0  0  0  0  0  0  0  0  0  0  0  0
   10.7581    6.5674   21.7636 C   0  0  0  0  0  0  0  0  0  0  0  0
    8.4452    8.7960   19.2958 O   0  0  0  0  0  0  0  0  0  0  0  0
    8.7122    6.7842   24.8569 C   0  0  0  0  0  0  0  0  0  0  0  0
   10.3400    6.1726   14.3081 C   0  0  0  0  0  0  0  0  0  0  0  0
    7.4297    7.5873   24.8962 C   0  0  0  0  0  0  0  0  0  0  0  0
    8.1566   10.0536   16.0516 O   0  0  0  0  0  0  0  0  0  0  0  0
   12.4989    6.2074   20.1776 C   0  0  0  0  0  0  0  0  0  0  0  0
    6.9192    9.1053   20.9073 O   0  0  0  0  0  0  0  0  0  0  0  0
   14.3979    6.0729   18.7784 C   0  0  0  0  0  0  0  0  0  0  0  0
    8.6811    9.5354   16.9998 C   0  0  0  0  0  0  0  0  0  0  0  0
    9.2512    4.2713   13.7653 O   0  0  0  0  0  0  0  0  0  0  0  0
    9.6495    8.6317   16.8332 N   0  0  0  0  0  0  0  0  0  0  0  0
    6.2934    8.6988   23.1988 O   0  0  0  0  0  0  0  0  0  0  0  0
    7.9806    8.6543   20.5437 C   0  0  0  0  0  0  0  0  0  0  0  0
   13.7270    5.7144   19.8610 O   0  0  0  0  0  0  0  0  0  0  0  0
    8.3351    5.5235   15.4478 C   0  0  0  0  0  0  0  0  0  0  0  0
    8.7700    7.8434   21.3915 C   0  0  0  0  0  0  0  0  0  0  0  0
   11.7856    6.8851   19.2401 C   0  0  0  0  0  0  0  0  0  0  0  0
   10.5281    7.4276   19.5649 C   0  0  0  0  0  0  0  0  0  0  0  0
   10.0256    7.2907   20.8484 C   0  0  0  0  0  0  0  0  0  0  0  0
    9.3113    5.3049   14.4911 C   0  0  0  0  0  0  0  0  0  0  0  0
    9.4607    7.5646   16.0139 C   0  0  0  0  0  0  0  0  0  0  0  0
   10.4192    7.3157   15.0955 C   0  0  0  0  0  0  0  0  0  0  0  0
   10.2489    6.4227   23.0218 N   0  0  0  0  0  0  0  0  0  0  0  0
    7.2472    8.0746   23.5050 C   0  0  0  0  0  0  0  0  0  0  0  0
    9.2051    6.9101   23.4604 C   0  0  0  0  0  0  0  0  0  0  0  0
   11.9646    6.0299   21.4251 C   0  0  0  0  0  0  0  0  0  0  0  0
  1  5  1  0
  1 13  1  0
  2 20  2  0
  2 28  1  0
  2 29  1  0
  3 19  4  0
  3 25  4  0
  4 23  4  0
  4 27  1  0
  4 30  4  0
  5 17  1  0
  6  8  1  0
  6 29  1  0
  7 24  4  0
  7 26  4  0
  8 28  1  0
  9 13  2  0
 10 18  1  0
 10 21  4  0
 10 30  4  0
 11 17  2  0
 12 18  1  0
 13 15  1  0
 14 24  1  0
 15 25  1  0
 16 28  2  0
 17 20  1  0
 19 24  4  0
 20 23  1  0
 21 22  4  0
 22 23  4  0
 25 26  4  0
 27 29  2  0
M  END
$$$$

 Created by Python create_sdf_string function

 30 33  0  0  0  0  0  0  0  0999 V2000
    8.3036    9.8571   18.4133 C   0  0  0  0  0  0  0  0  0  0  0  0
    8.3694    7.6612   22.6703 C   0  0  0  0  0  0  0  0  0  0  0  0
    8.4143    6.6863   16.2273 C   0  0  0  0  0  0  0  0  0  0  0  0
   10.7581    6.5674   21.7636 C   0  0  0  0  0  0  0  0  0  0  0  0
    8.4452    8.7960   19.2958 O   0  0  0  0  0  0  0  0  0  0  0  0
    8.7122    6.7842   24.8569 C   0  0  0  0  0  0  0  0  0  0  0  0
   10.3400    6.1726   14.3081 C   0  0  0  0  0  0  0  0  0  0  0  0
    7.4297    7.5873   24.8962 C   0  0  0  0  0  0  0  0  0  0  0  0
    8.1566   10.0536   16.0516 O   0  0  0  0  0  0  0  0  0  0  0  0
   12.4989    6.2074   20.1776 C   0  0  0  0  0  0  0  0  0  0  0  0
    6.9192    9.1053   20.9073 O   0  0  0  0  0  0  0  0  0  0  0  0
   14.3979    6.0729   18.7784 C   0  0  0  0  0  0  0  0  0  0  0  0
    8.6811    9.5354   16.9998 C   0  0  0  0  0  0  0  0  0  0  0  0
    9.2512    4.2713   13.7653 O   0  0  0  0  0  0  0  0  0  0  0  0
    9.6495    8.6317   16.8332 N   0  0  0  0  0  0  0  0  0  0  0  0
    6.2934    8.6988   23.1988 O   0  0  0  0  0  0  0  0  0  0  0  0
    7.9806    8.6543   20.5437 C   0  0  0  0  0  0  0  0  0  0  0  0
   13.7270    5.7144   19.8610 O   0  0  0  0  0  0  0  0  0  0  0  0
    8.3351    5.5235   15.4478 C   0  0  0  0  0  0  0  0  0  0  0  0
    8.7700    7.8434   21.3915 C   0  0  0  0  0  0  0  0  0  0  0  0
   11.7856    6.8851   19.2401 C   0  0  0  0  0  0  0  0  0  0  0  0
   10.5281    7.4276   19.5649 C   0  0  0  0  0  0  0  0  0  0  0  0
   10.0256    7.2907   20.8484 C   0  0  0  0  0  0  0  0  0  0  0  0
    9.3113    5.3049   14.4911 C   0  0  0  0  0  0  0  0  0  0  0  0
    9.4607    7.5646   16.0139 C   0  0  0  0  0  0  0  0  0  0  0  0
   10.4192    7.3157   15.0955 C   0  0  0  0  0  0  0  0  0  0  0  0
   10.2489    6.4227   23.0218 N   0  0  0  0  0  0  0  0  0  0  0  0
    7.2472    8.0746   23.5050 C   0  0  0  0  0  0  0  0  0  0  0  0
    9.2051    6.9101   23.4604 C   0  0  0  0  0  0  0  0  0  0  0  0
   11.9646    6.0299   21.4251 C   0  0  0  0  0  0  0  0  0  0  0  0
  1  5  1  0
  1 13  1  0
  2 20  2  0
  2 28  1  0
  2 29  1  0
  3 19  4  0
  3 25  4  0
  4 23  4  0
  4 27  1  0
  4 30  4  0
  5 17  1  0
  6  8  1  0
  6 29  1  0
  7 24  4  0
  7 26  4  0
  8 28  1  0
  9 13  2  0
 10 18  1  0
 10 21  4  0
 10 30  4  0
 11 17  2  0
 12 18  1  0
 13 15  1  0
 14 24  1  0
 15 25  1  0
 16 28  2  0
 17 20  1  0
 19 24  4  0
 20 23  1  0
 21 22  4  0
 22 23  4  0
 25 26  4  0
 27 29  2  0
M  END
$$$$

 Created by Python create_sdf_string function

 30 33  0  0  0  0  0  0  0  0999 V2000
    8.3036    9.8571   18.4133 C   0  0  0  0  0  0  0  0  0  0  0  0
    8.3694    7.6612   22.6703 C   0  0  0  0  0  0  0  0  0  0  0  0
    8.4143    6.6863   16.2273 C   0  0  0  0  0  0  0  0  0  0  0  0
   10.7581    6.5674   21.7636 C   0  0  0  0  0  0  0  0  0  0  0  0
    8.4452    8.7960   19.2958 O   0  0  0  0  0  0  0  0  0  0  0  0
    8.7122    6.7842   24.8569 C   0  0  0  0  0  0  0  0  0  0  0  0
   10.3400    6.1726   14.3081 C   0  0  0  0  0  0  0  0  0  0  0  0
    7.4297    7.5873   24.8962 C   0  0  0  0  0  0  0  0  0  0  0  0
    8.1566   10.0536   16.0516 O   0  0  0  0  0  0  0  0  0  0  0  0
   12.4989    6.2074   20.1776 C   0  0  0  0  0  0  0  0  0  0  0  0
    6.9192    9.1053   20.9073 O   0  0  0  0  0  0  0  0  0  0  0  0
   14.3979    6.0729   18.7784 C   0  0  0  0  0  0  0  0  0  0  0  0
    8.6811    9.5354   16.9998 C   0  0  0  0  0  0  0  0  0  0  0  0
    9.2512    4.2713   13.7653 O   0  0  0  0  0  0  0  0  0  0  0  0
    9.6495    8.6317   16.8332 N   0  0  0  0  0  0  0  0  0  0  0  0
    6.2934    8.6988   23.1988 O   0  0  0  0  0  0  0  0  0  0  0  0
    7.9806    8.6543   20.5437 C   0  0  0  0  0  0  0  0  0  0  0  0
   13.7270    5.7144   19.8610 O   0  0  0  0  0  0  0  0  0  0  0  0
    8.3351    5.5235   15.4478 C   0  0  0  0  0  0  0  0  0  0  0  0
    8.7700    7.8434   21.3915 C   0  0  0  0  0  0  0  0  0  0  0  0
   11.7856    6.8851   19.2401 C   0  0  0  0  0  0  0  0  0  0  0  0
   10.5281    7.4276   19.5649 C   0  0  0  0  0  0  0  0  0  0  0  0
   10.0256    7.2907   20.8484 C   0  0  0  0  0  0  0  0  0  0  0  0
    9.3113    5.3049   14.4911 C   0  0  0  0  0  0  0  0  0  0  0  0
    9.4607    7.5646   16.0139 C   0  0  0  0  0  0  0  0  0  0  0  0
   10.4192    7.3157   15.0955 C   0  0  0  0  0  0  0  0  0  0  0  0
   10.2489    6.4227   23.0218 N   0  0  0  0  0  0  0  0  0  0  0  0
    7.2472    8.0746   23.5050 C   0  0  0  0  0  0  0  0  0  0  0  0
    9.2051    6.9101   23.4604 C   0  0  0  0  0  0  0  0  0  0  0  0
   11.9646    6.0299   21.4251 C   0  0  0  0  0  0  0  0  0  0  0  0
  1  5  1  0
  1 13  1  0
  2 20  2  0
  2 28  1  0
  2 29  1  0
  3 19  4  0
  3 25  4  0
  4 23  4  0
  4 27  1  0
  4 30  4  0
  5 17  1  0
  6  8  1  0
  6 29  1  0
  7 24  4  0
  7 26  4  0
  8 28  1  0
  9 13  2  0
 10 18  1  0
 10 21  4  0
 10 30  4  0
 11 17  2  0
 12 18  1  0
 13 15  1  0
 14 24  1  0
 15 25  1  0
 16 28  2  0
 17 20  1  0
 19 24  4  0
 20 23  1  0
 21 22  4  0
 22 23  4  0
 25 26  4  0
 27 29  2  0
M  END
$$$$

 Created by Python create_sdf_string function

 30 33  0  0  0  0  0  0  0  0999 V2000
    8.3036    9.8571   18.4133 C   0  0  0  0  0  0  0  0  0  0  0  0
    8.3694    7.6612   22.6703 C   0  0  0  0  0  0  0  0  0  0  0  0
    8.4143    6.6863   16.2273 C   0  0  0  0  0  0  0  0  0  0  0  0
   10.7581    6.5674   21.7636 C   0  0  0  0  0  0  0  0  0  0  0  0
    8.4452    8.7960   19.2958 O   0  0  0  0  0  0  0  0  0  0  0  0
    8.7122    6.7842   24.8569 C   0  0  0  0  0  0  0  0  0  0  0  0
   10.3400    6.1726   14.3081 C   0  0  0  0  0  0  0  0  0  0  0  0
    7.4297    7.5873   24.8962 C   0  0  0  0  0  0  0  0  0  0  0  0
    8.1566   10.0536   16.0516 O   0  0  0  0  0  0  0  0  0  0  0  0
   12.4989    6.2074   20.1776 C   0  0  0  0  0  0  0  0  0  0  0  0
    6.9192    9.1053   20.9073 O   0  0  0  0  0  0  0  0  0  0  0  0
   14.3979    6.0729   18.7784 C   0  0  0  0  0  0  0  0  0  0  0  0
    8.6811    9.5354   16.9998 C   0  0  0  0  0  0  0  0  0  0  0  0
    9.2512    4.2713   13.7653 O   0  0  0  0  0  0  0  0  0  0  0  0
    9.6495    8.6317   16.8332 N   0  0  0  0  0  0  0  0  0  0  0  0
    6.2934    8.6988   23.1988 O   0  0  0  0  0  0  0  0  0  0  0  0
    7.9806    8.6543   20.5437 C   0  0  0  0  0  0  0  0  0  0  0  0
   13.7270    5.7144   19.8610 O   0  0  0  0  0  0  0  0  0  0  0  0
    8.3351    5.5235   15.4478 C   0  0  0  0  0  0  0  0  0  0  0  0
    8.7700    7.8434   21.3915 C   0  0  0  0  0  0  0  0  0  0  0  0
   11.7856    6.8851   19.2401 C   0  0  0  0  0  0  0  0  0  0  0  0
   10.5281    7.4276   19.5649 C   0  0  0  0  0  0  0  0  0  0  0  0
   10.0256    7.2907   20.8484 C   0  0  0  0  0  0  0  0  0  0  0  0
    9.3113    5.3049   14.4911 C   0  0  0  0  0  0  0  0  0  0  0  0
    9.4607    7.5646   16.0139 C   0  0  0  0  0  0  0  0  0  0  0  0
   10.4192    7.3157   15.0955 C   0  0  0  0  0  0  0  0  0  0  0  0
   10.2489    6.4227   23.0218 N   0  0  0  0  0  0  0  0  0  0  0  0
    7.2472    8.0746   23.5050 C   0  0  0  0  0  0  0  0  0  0  0  0
    9.2051    6.9101   23.4604 C   0  0  0  0  0  0  0  0  0  0  0  0
   11.9646    6.0299   21.4251 C   0  0  0  0  0  0  0  0  0  0  0  0
  1  5  1  0
  1 13  1  0
  2 20  2  0
  2 28  1  0
  2 29  1  0
  3 19  4  0
  3 25  4  0
  4 23  4  0
  4 27  1  0
  4 30  4  0
  5 17  1  0
  6  8  1  0
  6 29  1  0
  7 24  4  0
  7 26  4  0
  8 28  1  0
  9 13  2  0
 10 18  1  0
 10 21  4  0
 10 30  4  0
 11 17  2  0
 12 18  1  0
 13 15  1  0
 14 24  1  0
 15 25  1  0
 16 28  2  0
 17 20  1  0
 19 24  4  0
 20 23  1  0
 21 22  4  0
 22 23  4  0
 25 26  4  0
 27 29  2  0
M  END
$$$$

 Created by Python create_sdf_string function

 30 33  0  0  0  0  0  0  0  0999 V2000
    8.3036    9.8571   18.4133 C   0  0  0  0  0  0  0  0  0  0  0  0
    8.3694    7.6612   22.6703 C   0  0  0  0  0  0  0  0  0  0  0  0
    8.4143    6.6863   16.2273 C   0  0  0  0  0  0  0  0  0  0  0  0
   10.7581    6.5674   21.7636 C   0  0  0  0  0  0  0  0  0  0  0  0
    8.4452    8.7960   19.2958 O   0  0  0  0  0  0  0  0  0  0  0  0
    8.7122    6.7842   24.8569 C   0  0  0  0  0  0  0  0  0  0  0  0
   10.3400    6.1726   14.3081 C   0  0  0  0  0  0  0  0  0  0  0  0
    7.4297    7.5873   24.8962 C   0  0  0  0  0  0  0  0  0  0  0  0
    8.1566   10.0536   16.0516 O   0  0  0  0  0  0  0  0  0  0  0  0
   12.4989    6.2074   20.1776 C   0  0  0  0  0  0  0  0  0  0  0  0
    6.9192    9.1053   20.9073 O   0  0  0  0  0  0  0  0  0  0  0  0
   14.3979    6.0729   18.7784 C   0  0  0  0  0  0  0  0  0  0  0  0
    8.6811    9.5354   16.9998 C   0  0  0  0  0  0  0  0  0  0  0  0
    9.2512    4.2713   13.7653 O   0  0  0  0  0  0  0  0  0  0  0  0
    9.6495    8.6317   16.8332 N   0  0  0  0  0  0  0  0  0  0  0  0
    6.2934    8.6988   23.1988 O   0  0  0  0  0  0  0  0  0  0  0  0
    7.9806    8.6543   20.5437 C   0  0  0  0  0  0  0  0  0  0  0  0
   13.7270    5.7144   19.8610 O   0  0  0  0  0  0  0  0  0  0  0  0
    8.3351    5.5235   15.4478 C   0  0  0  0  0  0  0  0  0  0  0  0
    8.7700    7.8434   21.3915 C   0  0  0  0  0  0  0  0  0  0  0  0
   11.7856    6.8851   19.2401 C   0  0  0  0  0  0  0  0  0  0  0  0
   10.5281    7.4276   19.5649 C   0  0  0  0  0  0  0  0  0  0  0  0
   10.0256    7.2907   20.8484 C   0  0  0  0  0  0  0  0  0  0  0  0
    9.3113    5.3049   14.4911 C   0  0  0  0  0  0  0  0  0  0  0  0
    9.4607    7.5646   16.0139 C   0  0  0  0  0  0  0  0  0  0  0  0
   10.4192    7.3157   15.0955 C   0  0  0  0  0  0  0  0  0  0  0  0
   10.2489    6.4227   23.0218 N   0  0  0  0  0  0  0  0  0  0  0  0
    7.2472    8.0746   23.5050 C   0  0  0  0  0  0  0  0  0  0  0  0
    9.2051    6.9101   23.4604 C   0  0  0  0  0  0  0  0  0  0  0  0
   11.9646    6.0299   21.4251 C   0  0  0  0  0  0  0  0  0  0  0  0
  1  5  1  0
  1 13  1  0
  2 20  2  0
  2 28  1  0
  2 29  1  0
  3 19  4  0
  3 25  4  0
  4 23  4  0
  4 27  1  0
  4 30  4  0
  5 17  1  0
  6  8  1  0
  6 29  1  0
  7 24  4  0
  7 26  4  0
  8 28  1  0
  9 13  2  0
 10 18  1  0
 10 21  4  0
 10 30  4  0
 11 17  2  0
 12 18  1  0
 13 15  1  0
 14 24  1  0
 15 25  1  0
 16 28  2  0
 17 20  1  0
 19 24  4  0
 20 23  1  0
 21 22  4  0
 22 23  4  0
 25 26  4  0
 27 29  2  0
M  END
$$$$

 Created by Python create_sdf_string function

 30 33  0  0  0  0  0  0  0  0999 V2000
    8.3036    9.8571   18.4133 C   0  0  0  0  0  0  0  0  0  0  0  0
    8.3694    7.6612   22.6703 C   0  0  0  0  0  0  0  0  0  0  0  0
    8.4143    6.6863   16.2273 C   0  0  0  0  0  0  0  0  0  0  0  0
   10.7581    6.5674   21.7636 C   0  0  0  0  0  0  0  0  0  0  0  0
    8.4452    8.7960   19.2958 O   0  0  0  0  0  0  0  0  0  0  0  0
    8.7122    6.7842   24.8569 C   0  0  0  0  0  0  0  0  0  0  0  0
   10.3400    6.1726   14.3081 C   0  0  0  0  0  0  0  0  0  0  0  0
    7.4297    7.5873   24.8962 C   0  0  0  0  0  0  0  0  0  0  0  0
    8.1566   10.0536   16.0516 O   0  0  0  0  0  0  0  0  0  0  0  0
   12.4989    6.2074   20.1776 C   0  0  0  0  0  0  0  0  0  0  0  0
    6.9192    9.1053   20.9073 O   0  0  0  0  0  0  0  0  0  0  0  0
   14.3979    6.0729   18.7784 C   0  0  0  0  0  0  0  0  0  0  0  0
    8.6811    9.5354   16.9998 C   0  0  0  0  0  0  0  0  0  0  0  0
    9.2512    4.2713   13.7653 O   0  0  0  0  0  0  0  0  0  0  0  0
    9.6495    8.6317   16.8332 N   0  0  0  0  0  0  0  0  0  0  0  0
    6.2934    8.6988   23.1988 O   0  0  0  0  0  0  0  0  0  0  0  0
    7.9806    8.6543   20.5437 C   0  0  0  0  0  0  0  0  0  0  0  0
   13.7270    5.7144   19.8610 O   0  0  0  0  0  0  0  0  0  0  0  0
    8.3351    5.5235   15.4478 C   0  0  0  0  0  0  0  0  0  0  0  0
    8.7700    7.8434   21.3915 C   0  0  0  0  0  0  0  0  0  0  0  0
   11.7856    6.8851   19.2401 C   0  0  0  0  0  0  0  0  0  0  0  0
   10.5281    7.4276   19.5649 C   0  0  0  0  0  0  0  0  0  0  0  0
   10.0256    7.2907   20.8484 C   0  0  0  0  0  0  0  0  0  0  0  0
    9.3113    5.3049   14.4911 C   0  0  0  0  0  0  0  0  0  0  0  0
    9.4607    7.5646   16.0139 C   0  0  0  0  0  0  0  0  0  0  0  0
   10.4192    7.3157   15.0955 C   0  0  0  0  0  0  0  0  0  0  0  0
   10.2489    6.4227   23.0218 N   0  0  0  0  0  0  0  0  0  0  0  0
    7.2472    8.0746   23.5050 C   0  0  0  0  0  0  0  0  0  0  0  0
    9.2051    6.9101   23.4604 C   0  0  0  0  0  0  0  0  0  0  0  0
   11.9646    6.0299   21.4251 C   0  0  0  0  0  0  0  0  0  0  0  0
  1  5  1  0
  1 13  1  0
  2 20  2  0
  2 28  1  0
  2 29  1  0
  3 19  4  0
  3 25  4  0
  4 23  4  0
  4 27  1  0
  4 30  4  0
  5 17  1  0
  6  8  1  0
  6 29  1  0
  7 24  4  0
  7 26  4  0
  8 28  1  0
  9 13  2  0
 10 18  1  0
 10 21  4  0
 10 30  4  0
 11 17  2  0
 12 18  1  0
 13 15  1  0
 14 24  1  0
 15 25  1  0
 16 28  2  0
 17 20  1  0
 19 24  4  0
 20 23  1  0
 21 22  4  0
 22 23  4  0
 25 26  4  0
 27 29  2  0
M  END
$$$$

 Created by Python create_sdf_string function

 30 33  0  0  0  0  0  0  0  0999 V2000
    8.3036    9.8571   18.4133 C   0  0  0  0  0  0  0  0  0  0  0  0
    8.3694    7.6612   22.6703 C   0  0  0  0  0  0  0  0  0  0  0  0
    8.4143    6.6863   16.2273 C   0  0  0  0  0  0  0  0  0  0  0  0
   10.7581    6.5674   21.7636 C   0  0  0  0  0  0  0  0  0  0  0  0
    8.4452    8.7960   19.2958 O   0  0  0  0  0  0  0  0  0  0  0  0
    8.7122    6.7842   24.8569 C   0  0  0  0  0  0  0  0  0  0  0  0
   10.3400    6.1726   14.3081 C   0  0  0  0  0  0  0  0  0  0  0  0
    7.4297    7.5873   24.8962 C   0  0  0  0  0  0  0  0  0  0  0  0
    8.1566   10.0536   16.0516 O   0  0  0  0  0  0  0  0  0  0  0  0
   12.4989    6.2074   20.1776 C   0  0  0  0  0  0  0  0  0  0  0  0
    6.9192    9.1053   20.9073 O   0  0  0  0  0  0  0  0  0  0  0  0
   14.3979    6.0729   18.7784 C   0  0  0  0  0  0  0  0  0  0  0  0
    8.6811    9.5354   16.9998 C   0  0  0  0  0  0  0  0  0  0  0  0
    9.2512    4.2713   13.7653 O   0  0  0  0  0  0  0  0  0  0  0  0
    9.6495    8.6317   16.8332 N   0  0  0  0  0  0  0  0  0  0  0  0
    6.2934    8.6988   23.1988 O   0  0  0  0  0  0  0  0  0  0  0  0
    7.9806    8.6543   20.5437 C   0  0  0  0  0  0  0  0  0  0  0  0
   13.7270    5.7144   19.8610 O   0  0  0  0  0  0  0  0  0  0  0  0
    8.3351    5.5235   15.4478 C   0  0  0  0  0  0  0  0  0  0  0  0
    8.7700    7.8434   21.3915 C   0  0  0  0  0  0  0  0  0  0  0  0
   11.7856    6.8851   19.2401 C   0  0  0  0  0  0  0  0  0  0  0  0
   10.5281    7.4276   19.5649 C   0  0  0  0  0  0  0  0  0  0  0  0
   10.0256    7.2907   20.8484 C   0  0  0  0  0  0  0  0  0  0  0  0
    9.3113    5.3049   14.4911 C   0  0  0  0  0  0  0  0  0  0  0  0
    9.4607    7.5646   16.0139 C   0  0  0  0  0  0  0  0  0  0  0  0
   10.4192    7.3157   15.0955 C   0  0  0  0  0  0  0  0  0  0  0  0
   10.2489    6.4227   23.0218 N   0  0  0  0  0  0  0  0  0  0  0  0
    7.2472    8.0746   23.5050 C   0  0  0  0  0  0  0  0  0  0  0  0
    9.2051    6.9101   23.4604 C   0  0  0  0  0  0  0  0  0  0  0  0
   11.9646    6.0299   21.4251 C   0  0  0  0  0  0  0  0  0  0  0  0
  1  5  1  0
  1 13  1  0
  2 20  2  0
  2 28  1  0
  2 29  1  0
  3 19  4  0
  3 25  4  0
  4 23  4  0
  4 27  1  0
  4 30  4  0
  5 17  1  0
  6  8  1  0
  6 29  1  0
  7 24  4  0
  7 26  4  0
  8 28  1  0
  9 13  2  0
 10 18  1  0
 10 21  4  0
 10 30  4  0
 11 17  2  0
 12 18  1  0
 13 15  1  0
 14 24  1  0
 15 25  1  0
 16 28  2  0
 17 20  1  0
 19 24  4  0
 20 23  1  0
 21 22  4  0
 22 23  4  0
 25 26  4  0
 27 29  2  0
M  END
$$$$

 Created by Python create_sdf_string function

 30 33  0  0  0  0  0  0  0  0999 V2000
    8.3036    9.8571   18.4133 C   0  0  0  0  0  0  0  0  0  0  0  0
    8.3694    7.6612   22.6703 C   0  0  0  0  0  0  0  0  0  0  0  0
    8.4143    6.6863   16.2273 C   0  0  0  0  0  0  0  0  0  0  0  0
   10.7581    6.5674   21.7636 C   0  0  0  0  0  0  0  0  0  0  0  0
    8.4452    8.7960   19.2958 O   0  0  0  0  0  0  0  0  0  0  0  0
    8.7122    6.7842   24.8569 C   0  0  0  0  0  0  0  0  0  0  0  0
   10.3400    6.1726   14.3081 C   0  0  0  0  0  0  0  0  0  0  0  0
    7.4297    7.5873   24.8962 C   0  0  0  0  0  0  0  0  0  0  0  0
    8.1566   10.0536   16.0516 O   0  0  0  0  0  0  0  0  0  0  0  0
   12.4989    6.2074   20.1776 C   0  0  0  0  0  0  0  0  0  0  0  0
    6.9192    9.1053   20.9073 O   0  0  0  0  0  0  0  0  0  0  0  0
   14.3979    6.0729   18.7784 C   0  0  0  0  0  0  0  0  0  0  0  0
    8.6811    9.5354   16.9998 C   0  0  0  0  0  0  0  0  0  0  0  0
    9.2512    4.2713   13.7653 O   0  0  0  0  0  0  0  0  0  0  0  0
    9.6495    8.6317   16.8332 N   0  0  0  0  0  0  0  0  0  0  0  0
    6.2934    8.6988   23.1988 O   0  0  0  0  0  0  0  0  0  0  0  0
    7.9806    8.6543   20.5437 C   0  0  0  0  0  0  0  0  0  0  0  0
   13.7270    5.7144   19.8610 O   0  0  0  0  0  0  0  0  0  0  0  0
    8.3351    5.5235   15.4478 C   0  0  0  0  0  0  0  0  0  0  0  0
    8.7700    7.8434   21.3915 C   0  0  0  0  0  0  0  0  0  0  0  0
   11.7856    6.8851   19.2401 C   0  0  0  0  0  0  0  0  0  0  0  0
   10.5281    7.4276   19.5649 C   0  0  0  0  0  0  0  0  0  0  0  0
   10.0256    7.2907   20.8484 C   0  0  0  0  0  0  0  0  0  0  0  0
    9.3113    5.3049   14.4911 C   0  0  0  0  0  0  0  0  0  0  0  0
    9.4607    7.5646   16.0139 C   0  0  0  0  0  0  0  0  0  0  0  0
   10.4192    7.3157   15.0955 C   0  0  0  0  0  0  0  0  0  0  0  0
   10.2489    6.4227   23.0218 N   0  0  0  0  0  0  0  0  0  0  0  0
    7.2472    8.0746   23.5050 C   0  0  0  0  0  0  0  0  0  0  0  0
    9.2051    6.9101   23.4604 C   0  0  0  0  0  0  0  0  0  0  0  0
   11.9646    6.0299   21.4251 C   0  0  0  0  0  0  0  0  0  0  0  0
  1  5  1  0
  1 13  1  0
  2 20  2  0
  2 28  1  0
  2 29  1  0
  3 19  4  0
  3 25  4  0
  4 23  4  0
  4 27  1  0
  4 30  4  0
  5 17  1  0
  6  8  1  0
  6 29  1  0
  7 24  4  0
  7 26  4  0
  8 28  1  0
  9 13  2  0
 10 18  1  0
 10 21  4  0
 10 30  4  0
 11 17  2  0
 12 18  1  0
 13 15  1  0
 14 24  1  0
 15 25  1  0
 16 28  2  0
 17 20  1  0
 19 24  4  0
 20 23  1  0
 21 22  4  0
 22 23  4  0
 25 26  4  0
 27 29  2  0
M  END
$$$$

 Created by Python create_sdf_string function

 30 33  0  0  0  0  0  0  0  0999 V2000
    8.3036    9.8571   18.4133 C   0  0  0  0  0  0  0  0  0  0  0  0
    8.3694    7.6612   22.6703 C   0  0  0  0  0  0  0  0  0  0  0  0
    8.4143    6.6863   16.2273 C   0  0  0  0  0  0  0  0  0  0  0  0
   10.7581    6.5674   21.7636 C   0  0  0  0  0  0  0  0  0  0  0  0
    8.4452    8.7960   19.2958 O   0  0  0  0  0  0  0  0  0  0  0  0
    8.7122    6.7842   24.8569 C   0  0  0  0  0  0  0  0  0  0  0  0
   10.3400    6.1726   14.3081 C   0  0  0  0  0  0  0  0  0  0  0  0
    7.4297    7.5873   24.8962 C   0  0  0  0  0  0  0  0  0  0  0  0
    8.1566   10.0536   16.0516 O   0  0  0  0  0  0  0  0  0  0  0  0
   12.4989    6.2074   20.1776 C   0  0  0  0  0  0  0  0  0  0  0  0
    6.9192    9.1053   20.9073 O   0  0  0  0  0  0  0  0  0  0  0  0
   14.3979    6.0729   18.7784 C   0  0  0  0  0  0  0  0  0  0  0  0
    8.6811    9.5354   16.9998 C   0  0  0  0  0  0  0  0  0  0  0  0
    9.2512    4.2713   13.7653 O   0  0  0  0  0  0  0  0  0  0  0  0
    9.6495    8.6317   16.8332 N   0  0  0  0  0  0  0  0  0  0  0  0
    6.2934    8.6988   23.1988 O   0  0  0  0  0  0  0  0  0  0  0  0
    7.9806    8.6543   20.5437 C   0  0  0  0  0  0  0  0  0  0  0  0
   13.7270    5.7144   19.8610 O   0  0  0  0  0  0  0  0  0  0  0  0
    8.3351    5.5235   15.4478 C   0  0  0  0  0  0  0  0  0  0  0  0
    8.7700    7.8434   21.3915 C   0  0  0  0  0  0  0  0  0  0  0  0
   11.7856    6.8851   19.2401 C   0  0  0  0  0  0  0  0  0  0  0  0
   10.5281    7.4276   19.5649 C   0  0  0  0  0  0  0  0  0  0  0  0
   10.0256    7.2907   20.8484 C   0  0  0  0  0  0  0  0  0  0  0  0
    9.3113    5.3049   14.4911 C   0  0  0  0  0  0  0  0  0  0  0  0
    9.4607    7.5646   16.0139 C   0  0  0  0  0  0  0  0  0  0  0  0
   10.4192    7.3157   15.0955 C   0  0  0  0  0  0  0  0  0  0  0  0
   10.2489    6.4227   23.0218 N   0  0  0  0  0  0  0  0  0  0  0  0
    7.2472    8.0746   23.5050 C   0  0  0  0  0  0  0  0  0  0  0  0
    9.2051    6.9101   23.4604 C   0  0  0  0  0  0  0  0  0  0  0  0
   11.9646    6.0299   21.4251 C   0  0  0  0  0  0  0  0  0  0  0  0
  1  5  1  0
  1 13  1  0
  2 20  2  0
  2 28  1  0
  2 29  1  0
  3 19  4  0
  3 25  4  0
  4 23  4  0
  4 27  1  0
  4 30  4  0
  5 17  1  0
  6  8  1  0
  6 29  1  0
  7 24  4  0
  7 26  4  0
  8 28  1  0
  9 13  2  0
 10 18  1  0
 10 21  4  0
 10 30  4  0
 11 17  2  0
 12 18  1  0
 13 15  1  0
 14 24  1  0
 15 25  1  0
 16 28  2  0
 17 20  1  0
 19 24  4  0
 20 23  1  0
 21 22  4  0
 22 23  4  0
 25 26  4  0
 27 29  2  0
M  END
$$$$

 Created by Python create_sdf_string function

 30 33  0  0  0  0  0  0  0  0999 V2000
    8.3036    9.8571   18.4133 C   0  0  0  0  0  0  0  0  0  0  0  0
    8.3694    7.6612   22.6703 C   0  0  0  0  0  0  0  0  0  0  0  0
    8.4143    6.6863   16.2273 C   0  0  0  0  0  0  0  0  0  0  0  0
   10.7581    6.5674   21.7636 C   0  0  0  0  0  0  0  0  0  0  0  0
    8.4452    8.7960   19.2958 O   0  0  0  0  0  0  0  0  0  0  0  0
    8.7122    6.7842   24.8569 C   0  0  0  0  0  0  0  0  0  0  0  0
   10.3400    6.1726   14.3081 C   0  0  0  0  0  0  0  0  0  0  0  0
    7.4297    7.5873   24.8962 C   0  0  0  0  0  0  0  0  0  0  0  0
    8.1566   10.0536   16.0516 O   0  0  0  0  0  0  0  0  0  0  0  0
   12.4989    6.2074   20.1776 C   0  0  0  0  0  0  0  0  0  0  0  0
    6.9192    9.1053   20.9073 O   0  0  0  0  0  0  0  0  0  0  0  0
   14.3979    6.0729   18.7784 C   0  0  0  0  0  0  0  0  0  0  0  0
    8.6811    9.5354   16.9998 C   0  0  0  0  0  0  0  0  0  0  0  0
    9.2512    4.2713   13.7653 O   0  0  0  0  0  0  0  0  0  0  0  0
    9.6495    8.6317   16.8332 N   0  0  0  0  0  0  0  0  0  0  0  0
    6.2934    8.6988   23.1988 O   0  0  0  0  0  0  0  0  0  0  0  0
    7.9806    8.6543   20.5437 C   0  0  0  0  0  0  0  0  0  0  0  0
   13.7270    5.7144   19.8610 O   0  0  0  0  0  0  0  0  0  0  0  0
    8.3351    5.5235   15.4478 C   0  0  0  0  0  0  0  0  0  0  0  0
    8.7700    7.8434   21.3915 C   0  0  0  0  0  0  0  0  0  0  0  0
   11.7856    6.8851   19.2401 C   0  0  0  0  0  0  0  0  0  0  0  0
   10.5281    7.4276   19.5649 C   0  0  0  0  0  0  0  0  0  0  0  0
   10.0256    7.2907   20.8484 C   0  0  0  0  0  0  0  0  0  0  0  0
    9.3113    5.3049   14.4911 C   0  0  0  0  0  0  0  0  0  0  0  0
    9.4607    7.5646   16.0139 C   0  0  0  0  0  0  0  0  0  0  0  0
   10.4192    7.3157   15.0955 C   0  0  0  0  0  0  0  0  0  0  0  0
   10.2489    6.4227   23.0218 N   0  0  0  0  0  0  0  0  0  0  0  0
    7.2472    8.0746   23.5050 C   0  0  0  0  0  0  0  0  0  0  0  0
    9.2051    6.9101   23.4604 C   0  0  0  0  0  0  0  0  0  0  0  0
   11.9646    6.0299   21.4251 C   0  0  0  0  0  0  0  0  0  0  0  0
  1  5  1  0
  1 13  1  0
  2 20  2  0
  2 28  1  0
  2 29  1  0
  3 19  4  0
  3 25  4  0
  4 23  4  0
  4 27  1  0
  4 30  4  0
  5 17  1  0
  6  8  1  0
  6 29  1  0
  7 24  4  0
  7 26  4  0
  8 28  1  0
  9 13  2  0
 10 18  1  0
 10 21  4  0
 10 30  4  0
 11 17  2  0
 12 18  1  0
 13 15  1  0
 14 24  1  0
 15 25  1  0
 16 28  2  0
 17 20  1  0
 19 24  4  0
 20 23  1  0
 21 22  4  0
 22 23  4  0
 25 26  4  0
 27 29  2  0
M  END
$$$$

 Created by Python create_sdf_string function

 30 33  0  0  0  0  0  0  0  0999 V2000
    8.3036    9.8571   18.4133 C   0  0  0  0  0  0  0  0  0  0  0  0
    8.3694    7.6612   22.6703 C   0  0  0  0  0  0  0  0  0  0  0  0
    8.4143    6.6863   16.2273 C   0  0  0  0  0  0  0  0  0  0  0  0
   10.7581    6.5674   21.7636 C   0  0  0  0  0  0  0  0  0  0  0  0
    8.4452    8.7960   19.2958 O   0  0  0  0  0  0  0  0  0  0  0  0
    8.7122    6.7842   24.8569 C   0  0  0  0  0  0  0  0  0  0  0  0
   10.3400    6.1726   14.3081 C   0  0  0  0  0  0  0  0  0  0  0  0
    7.4297    7.5873   24.8962 C   0  0  0  0  0  0  0  0  0  0  0  0
    8.1566   10.0536   16.0516 O   0  0  0  0  0  0  0  0  0  0  0  0
   12.4989    6.2074   20.1776 C   0  0  0  0  0  0  0  0  0  0  0  0
    6.9192    9.1053   20.9073 O   0  0  0  0  0  0  0  0  0  0  0  0
   14.3979    6.0729   18.7784 C   0  0  0  0  0  0  0  0  0  0  0  0
    8.6811    9.5354   16.9998 C   0  0  0  0  0  0  0  0  0  0  0  0
    9.2512    4.2713   13.7653 O   0  0  0  0  0  0  0  0  0  0  0  0
    9.6495    8.6317   16.8332 N   0  0  0  0  0  0  0  0  0  0  0  0
    6.2934    8.6988   23.1988 O   0  0  0  0  0  0  0  0  0  0  0  0
    7.9806    8.6543   20.5437 C   0  0  0  0  0  0  0  0  0  0  0  0
   13.7270    5.7144   19.8610 O   0  0  0  0  0  0  0  0  0  0  0  0
    8.3351    5.5235   15.4478 C   0  0  0  0  0  0  0  0  0  0  0  0
    8.7700    7.8434   21.3915 C   0  0  0  0  0  0  0  0  0  0  0  0
   11.7856    6.8851   19.2401 C   0  0  0  0  0  0  0  0  0  0  0  0
   10.5281    7.4276   19.5649 C   0  0  0  0  0  0  0  0  0  0  0  0
   10.0256    7.2907   20.8484 C   0  0  0  0  0  0  0  0  0  0  0  0
    9.3113    5.3049   14.4911 C   0  0  0  0  0  0  0  0  0  0  0  0
    9.4607    7.5646   16.0139 C   0  0  0  0  0  0  0  0  0  0  0  0
   10.4192    7.3157   15.0955 C   0  0  0  0  0  0  0  0  0  0  0  0
   10.2489    6.4227   23.0218 N   0  0  0  0  0  0  0  0  0  0  0  0
    7.2472    8.0746   23.5050 C   0  0  0  0  0  0  0  0  0  0  0  0
    9.2051    6.9101   23.4604 C   0  0  0  0  0  0  0  0  0  0  0  0
   11.9646    6.0299   21.4251 C   0  0  0  0  0  0  0  0  0  0  0  0
  1  5  1  0
  1 13  1  0
  2 20  2  0
  2 28  1  0
  2 29  1  0
  3 19  4  0
  3 25  4  0
  4 23  4  0
  4 27  1  0
  4 30  4  0
  5 17  1  0
  6  8  1  0
  6 29  1  0
  7 24  4  0
  7 26  4  0
  8 28  1  0
  9 13  2  0
 10 18  1  0
 10 21  4  0
 10 30  4  0
 11 17  2  0
 12 18  1  0
 13 15  1  0
 14 24  1  0
 15 25  1  0
 16 28  2  0
 17 20  1  0
 19 24  4  0
 20 23  1  0
 21 22  4  0
 22 23  4  0
 25 26  4  0
 27 29  2  0
M  END
$$$$

 Created by Python create_sdf_string function

 30 33  0  0  0  0  0  0  0  0999 V2000
    8.3036    9.8571   18.4133 C   0  0  0  0  0  0  0  0  0  0  0  0
    8.3694    7.6612   22.6703 C   0  0  0  0  0  0  0  0  0  0  0  0
    8.4143    6.6863   16.2273 C   0  0  0  0  0  0  0  0  0  0  0  0
   10.7581    6.5674   21.7636 C   0  0  0  0  0  0  0  0  0  0  0  0
    8.4452    8.7960   19.2958 O   0  0  0  0  0  0  0  0  0  0  0  0
    8.7122    6.7842   24.8569 C   0  0  0  0  0  0  0  0  0  0  0  0
   10.3400    6.1726   14.3081 C   0  0  0  0  0  0  0  0  0  0  0  0
    7.4297    7.5873   24.8962 C   0  0  0  0  0  0  0  0  0  0  0  0
    8.1566   10.0536   16.0516 O   0  0  0  0  0  0  0  0  0  0  0  0
   12.4989    6.2074   20.1776 C   0  0  0  0  0  0  0  0  0  0  0  0
    6.9192    9.1053   20.9073 O   0  0  0  0  0  0  0  0  0  0  0  0
   14.3979    6.0729   18.7784 C   0  0  0  0  0  0  0  0  0  0  0  0
    8.6811    9.5354   16.9998 C   0  0  0  0  0  0  0  0  0  0  0  0
    9.2512    4.2713   13.7653 O   0  0  0  0  0  0  0  0  0  0  0  0
    9.6495    8.6317   16.8332 N   0  0  0  0  0  0  0  0  0  0  0  0
    6.2934    8.6988   23.1988 O   0  0  0  0  0  0  0  0  0  0  0  0
    7.9806    8.6543   20.5437 C   0  0  0  0  0  0  0  0  0  0  0  0
   13.7270    5.7144   19.8610 O   0  0  0  0  0  0  0  0  0  0  0  0
    8.3351    5.5235   15.4478 C   0  0  0  0  0  0  0  0  0  0  0  0
    8.7700    7.8434   21.3915 C   0  0  0  0  0  0  0  0  0  0  0  0
   11.7856    6.8851   19.2401 C   0  0  0  0  0  0  0  0  0  0  0  0
   10.5281    7.4276   19.5649 C   0  0  0  0  0  0  0  0  0  0  0  0
   10.0256    7.2907   20.8484 C   0  0  0  0  0  0  0  0  0  0  0  0
    9.3113    5.3049   14.4911 C   0  0  0  0  0  0  0  0  0  0  0  0
    9.4607    7.5646   16.0139 C   0  0  0  0  0  0  0  0  0  0  0  0
   10.4192    7.3157   15.0955 C   0  0  0  0  0  0  0  0  0  0  0  0
   10.2489    6.4227   23.0218 N   0  0  0  0  0  0  0  0  0  0  0  0
    7.2472    8.0746   23.5050 C   0  0  0  0  0  0  0  0  0  0  0  0
    9.2051    6.9101   23.4604 C   0  0  0  0  0  0  0  0  0  0  0  0
   11.9646    6.0299   21.4251 C   0  0  0  0  0  0  0  0  0  0  0  0
  1  5  1  0
  1 13  1  0
  2 20  2  0
  2 28  1  0
  2 29  1  0
  3 19  4  0
  3 25  4  0
  4 23  4  0
  4 27  1  0
  4 30  4  0
  5 17  1  0
  6  8  1  0
  6 29  1  0
  7 24  4  0
  7 26  4  0
  8 28  1  0
  9 13  2  0
 10 18  1  0
 10 21  4  0
 10 30  4  0
 11 17  2  0
 12 18  1  0
 13 15  1  0
 14 24  1  0
 15 25  1  0
 16 28  2  0
 17 20  1  0
 19 24  4  0
 20 23  1  0
 21 22  4  0
 22 23  4  0
 25 26  4  0
 27 29  2  0
M  END
$$$$

 Created by Python create_sdf_string function

 30 33  0  0  0  0  0  0  0  0999 V2000
    8.3036    9.8571   18.4133 C   0  0  0  0  0  0  0  0  0  0  0  0
    8.3694    7.6612   22.6703 C   0  0  0  0  0  0  0  0  0  0  0  0
    8.4143    6.6863   16.2273 C   0  0  0  0  0  0  0  0  0  0  0  0
   10.7581    6.5674   21.7636 C   0  0  0  0  0  0  0  0  0  0  0  0
    8.4452    8.7960   19.2958 O   0  0  0  0  0  0  0  0  0  0  0  0
    8.7122    6.7842   24.8569 C   0  0  0  0  0  0  0  0  0  0  0  0
   10.3400    6.1726   14.3081 C   0  0  0  0  0  0  0  0  0  0  0  0
    7.4297    7.5873   24.8962 C   0  0  0  0  0  0  0  0  0  0  0  0
    8.1566   10.0536   16.0516 O   0  0  0  0  0  0  0  0  0  0  0  0
   12.4989    6.2074   20.1776 C   0  0  0  0  0  0  0  0  0  0  0  0
    6.9192    9.1053   20.9073 O   0  0  0  0  0  0  0  0  0  0  0  0
   14.3979    6.0729   18.7784 C   0  0  0  0  0  0  0  0  0  0  0  0
    8.6811    9.5354   16.9998 C   0  0  0  0  0  0  0  0  0  0  0  0
    9.2512    4.2713   13.7653 O   0  0  0  0  0  0  0  0  0  0  0  0
    9.6495    8.6317   16.8332 N   0  0  0  0  0  0  0  0  0  0  0  0
    6.2934    8.6988   23.1988 O   0  0  0  0  0  0  0  0  0  0  0  0
    7.9806    8.6543   20.5437 C   0  0  0  0  0  0  0  0  0  0  0  0
   13.7270    5.7144   19.8610 O   0  0  0  0  0  0  0  0  0  0  0  0
    8.3351    5.5235   15.4478 C   0  0  0  0  0  0  0  0  0  0  0  0
    8.7700    7.8434   21.3915 C   0  0  0  0  0  0  0  0  0  0  0  0
   11.7856    6.8851   19.2401 C   0  0  0  0  0  0  0  0  0  0  0  0
   10.5281    7.4276   19.5649 C   0  0  0  0  0  0  0  0  0  0  0  0
   10.0256    7.2907   20.8484 C   0  0  0  0  0  0  0  0  0  0  0  0
    9.3113    5.3049   14.4911 C   0  0  0  0  0  0  0  0  0  0  0  0
    9.4607    7.5646   16.0139 C   0  0  0  0  0  0  0  0  0  0  0  0
   10.4192    7.3157   15.0955 C   0  0  0  0  0  0  0  0  0  0  0  0
   10.2489    6.4227   23.0218 N   0  0  0  0  0  0  0  0  0  0  0  0
    7.2472    8.0746   23.5050 C   0  0  0  0  0  0  0  0  0  0  0  0
    9.2051    6.9101   23.4604 C   0  0  0  0  0  0  0  0  0  0  0  0
   11.9646    6.0299   21.4251 C   0  0  0  0  0  0  0  0  0  0  0  0
  1  5  1  0
  1 13  1  0
  2 20  2  0
  2 28  1  0
  2 29  1  0
  3 19  4  0
  3 25  4  0
  4 23  4  0
  4 27  1  0
  4 30  4  0
  5 17  1  0
  6  8  1  0
  6 29  1  0
  7 24  4  0
  7 26  4  0
  8 28  1  0
  9 13  2  0
 10 18  1  0
 10 21  4  0
 10 30  4  0
 11 17  2  0
 12 18  1  0
 13 15  1  0
 14 24  1  0
 15 25  1  0
 16 28  2  0
 17 20  1  0
 19 24  4  0
 20 23  1  0
 21 22  4  0
 22 23  4  0
 25 26  4  0
 27 29  2  0
M  END
$$$$

 Created by Python create_sdf_string function

 30 33  0  0  0  0  0  0  0  0999 V2000
    8.3036    9.8571   18.4133 C   0  0  0  0  0  0  0  0  0  0  0  0
    8.3694    7.6612   22.6703 C   0  0  0  0  0  0  0  0  0  0  0  0
    8.4143    6.6863   16.2273 C   0  0  0  0  0  0  0  0  0  0  0  0
   10.7581    6.5674   21.7636 C   0  0  0  0  0  0  0  0  0  0  0  0
    8.4452    8.7960   19.2958 O   0  0  0  0  0  0  0  0  0  0  0  0
    8.7122    6.7842   24.8569 C   0  0  0  0  0  0  0  0  0  0  0  0
   10.3400    6.1726   14.3081 C   0  0  0  0  0  0  0  0  0  0  0  0
    7.4297    7.5873   24.8962 C   0  0  0  0  0  0  0  0  0  0  0  0
    8.1566   10.0536   16.0516 O   0  0  0  0  0  0  0  0  0  0  0  0
   12.4989    6.2074   20.1776 C   0  0  0  0  0  0  0  0  0  0  0  0
    6.9192    9.1053   20.9073 O   0  0  0  0  0  0  0  0  0  0  0  0
   14.3979    6.0729   18.7784 C   0  0  0  0  0  0  0  0  0  0  0  0
    8.6811    9.5354   16.9998 C   0  0  0  0  0  0  0  0  0  0  0  0
    9.2512    4.2713   13.7653 O   0  0  0  0  0  0  0  0  0  0  0  0
    9.6495    8.6317   16.8332 N   0  0  0  0  0  0  0  0  0  0  0  0
    6.2934    8.6988   23.1988 O   0  0  0  0  0  0  0  0  0  0  0  0
    7.9806    8.6543   20.5437 C   0  0  0  0  0  0  0  0  0  0  0  0
   13.7270    5.7144   19.8610 O   0  0  0  0  0  0  0  0  0  0  0  0
    8.3351    5.5235   15.4478 C   0  0  0  0  0  0  0  0  0  0  0  0
    8.7700    7.8434   21.3915 C   0  0  0  0  0  0  0  0  0  0  0  0
   11.7856    6.8851   19.2401 C   0  0  0  0  0  0  0  0  0  0  0  0
   10.5281    7.4276   19.5649 C   0  0  0  0  0  0  0  0  0  0  0  0
   10.0256    7.2907   20.8484 C   0  0  0  0  0  0  0  0  0  0  0  0
    9.3113    5.3049   14.4911 C   0  0  0  0  0  0  0  0  0  0  0  0
    9.4607    7.5646   16.0139 C   0  0  0  0  0  0  0  0  0  0  0  0
   10.4192    7.3157   15.0955 C   0  0  0  0  0  0  0  0  0  0  0  0
   10.2489    6.4227   23.0218 N   0  0  0  0  0  0  0  0  0  0  0  0
    7.2472    8.0746   23.5050 C   0  0  0  0  0  0  0  0  0  0  0  0
    9.2051    6.9101   23.4604 C   0  0  0  0  0  0  0  0  0  0  0  0
   11.9646    6.0299   21.4251 C   0  0  0  0  0  0  0  0  0  0  0  0
  1  5  1  0
  1 13  1  0
  2 20  2  0
  2 28  1  0
  2 29  1  0
  3 19  4  0
  3 25  4  0
  4 23  4  0
  4 27  1  0
  4 30  4  0
  5 17  1  0
  6  8  1  0
  6 29  1  0
  7 24  4  0
  7 26  4  0
  8 28  1  0
  9 13  2  0
 10 18  1  0
 10 21  4  0
 10 30  4  0
 11 17  2  0
 12 18  1  0
 13 15  1  0
 14 24  1  0
 15 25  1  0
 16 28  2  0
 17 20  1  0
 19 24  4  0
 20 23  1  0
 21 22  4  0
 22 23  4  0
 25 26  4  0
 27 29  2  0
M  END
$$$$

 Created by Python create_sdf_string function

 30 33  0  0  0  0  0  0  0  0999 V2000
    8.3036    9.8571   18.4133 C   0  0  0  0  0  0  0  0  0  0  0  0
    8.3694    7.6612   22.6703 C   0  0  0  0  0  0  0  0  0  0  0  0
    8.4143    6.6863   16.2273 C   0  0  0  0  0  0  0  0  0  0  0  0
   10.7581    6.5674   21.7636 C   0  0  0  0  0  0  0  0  0  0  0  0
    8.4452    8.7960   19.2958 O   0  0  0  0  0  0  0  0  0  0  0  0
    8.7122    6.7842   24.8569 C   0  0  0  0  0  0  0  0  0  0  0  0
   10.3400    6.1726   14.3081 C   0  0  0  0  0  0  0  0  0  0  0  0
    7.4297    7.5873   24.8962 C   0  0  0  0  0  0  0  0  0  0  0  0
    8.1566   10.0536   16.0516 O   0  0  0  0  0  0  0  0  0  0  0  0
   12.4989    6.2074   20.1776 C   0  0  0  0  0  0  0  0  0  0  0  0
    6.9192    9.1053   20.9073 O   0  0  0  0  0  0  0  0  0  0  0  0
   14.3979    6.0729   18.7784 C   0  0  0  0  0  0  0  0  0  0  0  0
    8.6811    9.5354   16.9998 C   0  0  0  0  0  0  0  0  0  0  0  0
    9.2512    4.2713   13.7653 O   0  0  0  0  0  0  0  0  0  0  0  0
    9.6495    8.6317   16.8332 N   0  0  0  0  0  0  0  0  0  0  0  0
    6.2934    8.6988   23.1988 O   0  0  0  0  0  0  0  0  0  0  0  0
    7.9806    8.6543   20.5437 C   0  0  0  0  0  0  0  0  0  0  0  0
   13.7270    5.7144   19.8610 O   0  0  0  0  0  0  0  0  0  0  0  0
    8.3351    5.5235   15.4478 C   0  0  0  0  0  0  0  0  0  0  0  0
    8.7700    7.8434   21.3915 C   0  0  0  0  0  0  0  0  0  0  0  0
   11.7856    6.8851   19.2401 C   0  0  0  0  0  0  0  0  0  0  0  0
   10.5281    7.4276   19.5649 C   0  0  0  0  0  0  0  0  0  0  0  0
   10.0256    7.2907   20.8484 C   0  0  0  0  0  0  0  0  0  0  0  0
    9.3113    5.3049   14.4911 C   0  0  0  0  0  0  0  0  0  0  0  0
    9.4607    7.5646   16.0139 C   0  0  0  0  0  0  0  0  0  0  0  0
   10.4192    7.3157   15.0955 C   0  0  0  0  0  0  0  0  0  0  0  0
   10.2489    6.4227   23.0218 N   0  0  0  0  0  0  0  0  0  0  0  0
    7.2472    8.0746   23.5050 C   0  0  0  0  0  0  0  0  0  0  0  0
    9.2051    6.9101   23.4604 C   0  0  0  0  0  0  0  0  0  0  0  0
   11.9646    6.0299   21.4251 C   0  0  0  0  0  0  0  0  0  0  0  0
  1  5  1  0
  1 13  1  0
  2 20  2  0
  2 28  1  0
  2 29  1  0
  3 19  4  0
  3 25  4  0
  4 23  4  0
  4 27  1  0
  4 30  4  0
  5 17  1  0
  6  8  1  0
  6 29  1  0
  7 24  4  0
  7 26  4  0
  8 28  1  0
  9 13  2  0
 10 18  1  0
 10 21  4  0
 10 30  4  0
 11 17  2  0
 12 18  1  0
 13 15  1  0
 14 24  1  0
 15 25  1  0
 16 28  2  0
 17 20  1  0
 19 24  4  0
 20 23  1  0
 21 22  4  0
 22 23  4  0
 25 26  4  0
 27 29  2  0
M  END
$$$$

 Created by Python create_sdf_string function

 30 33  0  0  0  0  0  0  0  0999 V2000
    8.3036    9.8571   18.4133 C   0  0  0  0  0  0  0  0  0  0  0  0
    8.3694    7.6612   22.6703 C   0  0  0  0  0  0  0  0  0  0  0  0
    8.4143    6.6863   16.2273 C   0  0  0  0  0  0  0  0  0  0  0  0
   10.7581    6.5674   21.7636 C   0  0  0  0  0  0  0  0  0  0  0  0
    8.4452    8.7960   19.2958 O   0  0  0  0  0  0  0  0  0  0  0  0
    8.7122    6.7842   24.8569 C   0  0  0  0  0  0  0  0  0  0  0  0
   10.3400    6.1726   14.3081 C   0  0  0  0  0  0  0  0  0  0  0  0
    7.4297    7.5873   24.8962 C   0  0  0  0  0  0  0  0  0  0  0  0
    8.1566   10.0536   16.0516 O   0  0  0  0  0  0  0  0  0  0  0  0
   12.4989    6.2074   20.1776 C   0  0  0  0  0  0  0  0  0  0  0  0
    6.9192    9.1053   20.9073 O   0  0  0  0  0  0  0  0  0  0  0  0
   14.3979    6.0729   18.7784 C   0  0  0  0  0  0  0  0  0  0  0  0
    8.6811    9.5354   16.9998 C   0  0  0  0  0  0  0  0  0  0  0  0
    9.2512    4.2713   13.7653 O   0  0  0  0  0  0  0  0  0  0  0  0
    9.6495    8.6317   16.8332 N   0  0  0  0  0  0  0  0  0  0  0  0
    6.2934    8.6988   23.1988 O   0  0  0  0  0  0  0  0  0  0  0  0
    7.9806    8.6543   20.5437 C   0  0  0  0  0  0  0  0  0  0  0  0
   13.7270    5.7144   19.8610 O   0  0  0  0  0  0  0  0  0  0  0  0
    8.3351    5.5235   15.4478 C   0  0  0  0  0  0  0  0  0  0  0  0
    8.7700    7.8434   21.3915 C   0  0  0  0  0  0  0  0  0  0  0  0
   11.7856    6.8851   19.2401 C   0  0  0  0  0  0  0  0  0  0  0  0
   10.5281    7.4276   19.5649 C   0  0  0  0  0  0  0  0  0  0  0  0
   10.0256    7.2907   20.8484 C   0  0  0  0  0  0  0  0  0  0  0  0
    9.3113    5.3049   14.4911 C   0  0  0  0  0  0  0  0  0  0  0  0
    9.4607    7.5646   16.0139 C   0  0  0  0  0  0  0  0  0  0  0  0
   10.4192    7.3157   15.0955 C   0  0  0  0  0  0  0  0  0  0  0  0
   10.2489    6.4227   23.0218 N   0  0  0  0  0  0  0  0  0  0  0  0
    7.2472    8.0746   23.5050 C   0  0  0  0  0  0  0  0  0  0  0  0
    9.2051    6.9101   23.4604 C   0  0  0  0  0  0  0  0  0  0  0  0
   11.9646    6.0299   21.4251 C   0  0  0  0  0  0  0  0  0  0  0  0
  1  5  1  0
  1 13  1  0
  2 20  2  0
  2 28  1  0
  2 29  1  0
  3 19  4  0
  3 25  4  0
  4 23  4  0
  4 27  1  0
  4 30  4  0
  5 17  1  0
  6  8  1  0
  6 29  1  0
  7 24  4  0
  7 26  4  0
  8 28  1  0
  9 13  2  0
 10 18  1  0
 10 21  4  0
 10 30  4  0
 11 17  2  0
 12 18  1  0
 13 15  1  0
 14 24  1  0
 15 25  1  0
 16 28  2  0
 17 20  1  0
 19 24  4  0
 20 23  1  0
 21 22  4  0
 22 23  4  0
 25 26  4  0
 27 29  2  0
M  END
$$$$

 Created by Python create_sdf_string function

 30 33  0  0  0  0  0  0  0  0999 V2000
    8.3036    9.8571   18.4133 C   0  0  0  0  0  0  0  0  0  0  0  0
    8.3694    7.6612   22.6703 C   0  0  0  0  0  0  0  0  0  0  0  0
    8.4143    6.6863   16.2273 C   0  0  0  0  0  0  0  0  0  0  0  0
   10.7581    6.5674   21.7636 C   0  0  0  0  0  0  0  0  0  0  0  0
    8.4452    8.7960   19.2958 O   0  0  0  0  0  0  0  0  0  0  0  0
    8.7122    6.7842   24.8569 C   0  0  0  0  0  0  0  0  0  0  0  0
   10.3400    6.1726   14.3081 C   0  0  0  0  0  0  0  0  0  0  0  0
    7.4297    7.5873   24.8962 C   0  0  0  0  0  0  0  0  0  0  0  0
    8.1566   10.0536   16.0516 O   0  0  0  0  0  0  0  0  0  0  0  0
   12.4989    6.2074   20.1776 C   0  0  0  0  0  0  0  0  0  0  0  0
    6.9192    9.1053   20.9073 O   0  0  0  0  0  0  0  0  0  0  0  0
   14.3979    6.0729   18.7784 C   0  0  0  0  0  0  0  0  0  0  0  0
    8.6811    9.5354   16.9998 C   0  0  0  0  0  0  0  0  0  0  0  0
    9.2512    4.2713   13.7653 O   0  0  0  0  0  0  0  0  0  0  0  0
    9.6495    8.6317   16.8332 N   0  0  0  0  0  0  0  0  0  0  0  0
    6.2934    8.6988   23.1988 O   0  0  0  0  0  0  0  0  0  0  0  0
    7.9806    8.6543   20.5437 C   0  0  0  0  0  0  0  0  0  0  0  0
   13.7270    5.7144   19.8610 O   0  0  0  0  0  0  0  0  0  0  0  0
    8.3351    5.5235   15.4478 C   0  0  0  0  0  0  0  0  0  0  0  0
    8.7700    7.8434   21.3915 C   0  0  0  0  0  0  0  0  0  0  0  0
   11.7856    6.8851   19.2401 C   0  0  0  0  0  0  0  0  0  0  0  0
   10.5281    7.4276   19.5649 C   0  0  0  0  0  0  0  0  0  0  0  0
   10.0256    7.2907   20.8484 C   0  0  0  0  0  0  0  0  0  0  0  0
    9.3113    5.3049   14.4911 C   0  0  0  0  0  0  0  0  0  0  0  0
    9.4607    7.5646   16.0139 C   0  0  0  0  0  0  0  0  0  0  0  0
   10.4192    7.3157   15.0955 C   0  0  0  0  0  0  0  0  0  0  0  0
   10.2489    6.4227   23.0218 N   0  0  0  0  0  0  0  0  0  0  0  0
    7.2472    8.0746   23.5050 C   0  0  0  0  0  0  0  0  0  0  0  0
    9.2051    6.9101   23.4604 C   0  0  0  0  0  0  0  0  0  0  0  0
   11.9646    6.0299   21.4251 C   0  0  0  0  0  0  0  0  0  0  0  0
  1  5  1  0
  1 13  1  0
  2 20  2  0
  2 28  1  0
  2 29  1  0
  3 19  4  0
  3 25  4  0
  4 23  4  0
  4 27  1  0
  4 30  4  0
  5 17  1  0
  6  8  1  0
  6 29  1  0
  7 24  4  0
  7 26  4  0
  8 28  1  0
  9 13  2  0
 10 18  1  0
 10 21  4  0
 10 30  4  0
 11 17  2  0
 12 18  1  0
 13 15  1  0
 14 24  1  0
 15 25  1  0
 16 28  2  0
 17 20  1  0
 19 24  4  0
 20 23  1  0
 21 22  4  0
 22 23  4  0
 25 26  4  0
 27 29  2  0
M  END
$$$$

 Created by Python create_sdf_string function

 30 33  0  0  0  0  0  0  0  0999 V2000
    8.3036    9.8571   18.4133 C   0  0  0  0  0  0  0  0  0  0  0  0
    8.3694    7.6612   22.6703 C   0  0  0  0  0  0  0  0  0  0  0  0
    8.4143    6.6863   16.2273 C   0  0  0  0  0  0  0  0  0  0  0  0
   10.7581    6.5674   21.7636 C   0  0  0  0  0  0  0  0  0  0  0  0
    8.4452    8.7960   19.2958 O   0  0  0  0  0  0  0  0  0  0  0  0
    8.7122    6.7842   24.8569 C   0  0  0  0  0  0  0  0  0  0  0  0
   10.3400    6.1726   14.3081 C   0  0  0  0  0  0  0  0  0  0  0  0
    7.4297    7.5873   24.8962 C   0  0  0  0  0  0  0  0  0  0  0  0
    8.1566   10.0536   16.0516 O   0  0  0  0  0  0  0  0  0  0  0  0
   12.4989    6.2074   20.1776 C   0  0  0  0  0  0  0  0  0  0  0  0
    6.9192    9.1053   20.9073 O   0  0  0  0  0  0  0  0  0  0  0  0
   14.3979    6.0729   18.7784 C   0  0  0  0  0  0  0  0  0  0  0  0
    8.6811    9.5354   16.9998 C   0  0  0  0  0  0  0  0  0  0  0  0
    9.2512    4.2713   13.7653 O   0  0  0  0  0  0  0  0  0  0  0  0
    9.6495    8.6317   16.8332 N   0  0  0  0  0  0  0  0  0  0  0  0
    6.2934    8.6988   23.1988 O   0  0  0  0  0  0  0  0  0  0  0  0
    7.9806    8.6543   20.5437 C   0  0  0  0  0  0  0  0  0  0  0  0
   13.7270    5.7144   19.8610 O   0  0  0  0  0  0  0  0  0  0  0  0
    8.3351    5.5235   15.4478 C   0  0  0  0  0  0  0  0  0  0  0  0
    8.7700    7.8434   21.3915 C   0  0  0  0  0  0  0  0  0  0  0  0
   11.7856    6.8851   19.2401 C   0  0  0  0  0  0  0  0  0  0  0  0
   10.5281    7.4276   19.5649 C   0  0  0  0  0  0  0  0  0  0  0  0
   10.0256    7.2907   20.8484 C   0  0  0  0  0  0  0  0  0  0  0  0
    9.3113    5.3049   14.4911 C   0  0  0  0  0  0  0  0  0  0  0  0
    9.4607    7.5646   16.0139 C   0  0  0  0  0  0  0  0  0  0  0  0
   10.4192    7.3157   15.0955 C   0  0  0  0  0  0  0  0  0  0  0  0
   10.2489    6.4227   23.0218 N   0  0  0  0  0  0  0  0  0  0  0  0
    7.2472    8.0746   23.5050 C   0  0  0  0  0  0  0  0  0  0  0  0
    9.2051    6.9101   23.4604 C   0  0  0  0  0  0  0  0  0  0  0  0
   11.9646    6.0299   21.4251 C   0  0  0  0  0  0  0  0  0  0  0  0
  1  5  1  0
  1 13  1  0
  2 20  2  0
  2 28  1  0
  2 29  1  0
  3 19  4  0
  3 25  4  0
  4 23  4  0
  4 27  1  0
  4 30  4  0
  5 17  1  0
  6  8  1  0
  6 29  1  0
  7 24  4  0
  7 26  4  0
  8 28  1  0
  9 13  2  0
 10 18  1  0
 10 21  4  0
 10 30  4  0
 11 17  2  0
 12 18  1  0
 13 15  1  0
 14 24  1  0
 15 25  1  0
 16 28  2  0
 17 20  1  0
 19 24  4  0
 20 23  1  0
 21 22  4  0
 22 23  4  0
 25 26  4  0
 27 29  2  0
M  END
$$$$

 Created by Python create_sdf_string function

 30 33  0  0  0  0  0  0  0  0999 V2000
    8.3036    9.8571   18.4133 C   0  0  0  0  0  0  0  0  0  0  0  0
    8.3694    7.6612   22.6703 C   0  0  0  0  0  0  0  0  0  0  0  0
    8.4143    6.6863   16.2273 C   0  0  0  0  0  0  0  0  0  0  0  0
   10.7581    6.5674   21.7636 C   0  0  0  0  0  0  0  0  0  0  0  0
    8.4452    8.7960   19.2958 O   0  0  0  0  0  0  0  0  0  0  0  0
    8.7122    6.7842   24.8569 C   0  0  0  0  0  0  0  0  0  0  0  0
   10.3400    6.1726   14.3081 C   0  0  0  0  0  0  0  0  0  0  0  0
    7.4297    7.5873   24.8962 C   0  0  0  0  0  0  0  0  0  0  0  0
    8.1566   10.0536   16.0516 O   0  0  0  0  0  0  0  0  0  0  0  0
   12.4989    6.2074   20.1776 C   0  0  0  0  0  0  0  0  0  0  0  0
    6.9192    9.1053   20.9073 O   0  0  0  0  0  0  0  0  0  0  0  0
   14.3979    6.0729   18.7784 C   0  0  0  0  0  0  0  0  0  0  0  0
    8.6811    9.5354   16.9998 C   0  0  0  0  0  0  0  0  0  0  0  0
    9.2512    4.2713   13.7653 O   0  0  0  0  0  0  0  0  0  0  0  0
    9.6495    8.6317   16.8332 N   0  0  0  0  0  0  0  0  0  0  0  0
    6.2934    8.6988   23.1988 O   0  0  0  0  0  0  0  0  0  0  0  0
    7.9806    8.6543   20.5437 C   0  0  0  0  0  0  0  0  0  0  0  0
   13.7270    5.7144   19.8610 O   0  0  0  0  0  0  0  0  0  0  0  0
    8.3351    5.5235   15.4478 C   0  0  0  0  0  0  0  0  0  0  0  0
    8.7700    7.8434   21.3915 C   0  0  0  0  0  0  0  0  0  0  0  0
   11.7856    6.8851   19.2401 C   0  0  0  0  0  0  0  0  0  0  0  0
   10.5281    7.4276   19.5649 C   0  0  0  0  0  0  0  0  0  0  0  0
   10.0256    7.2907   20.8484 C   0  0  0  0  0  0  0  0  0  0  0  0
    9.3113    5.3049   14.4911 C   0  0  0  0  0  0  0  0  0  0  0  0
    9.4607    7.5646   16.0139 C   0  0  0  0  0  0  0  0  0  0  0  0
   10.4192    7.3157   15.0955 C   0  0  0  0  0  0  0  0  0  0  0  0
   10.2489    6.4227   23.0218 N   0  0  0  0  0  0  0  0  0  0  0  0
    7.2472    8.0746   23.5050 C   0  0  0  0  0  0  0  0  0  0  0  0
    9.2051    6.9101   23.4604 C   0  0  0  0  0  0  0  0  0  0  0  0
   11.9646    6.0299   21.4251 C   0  0  0  0  0  0  0  0  0  0  0  0
  1  5  1  0
  1 13  1  0
  2 20  2  0
  2 28  1  0
  2 29  1  0
  3 19  4  0
  3 25  4  0
  4 23  4  0
  4 27  1  0
  4 30  4  0
  5 17  1  0
  6  8  1  0
  6 29  1  0
  7 24  4  0
  7 26  4  0
  8 28  1  0
  9 13  2  0
 10 18  1  0
 10 21  4  0
 10 30  4  0
 11 17  2  0
 12 18  1  0
 13 15  1  0
 14 24  1  0
 15 25  1  0
 16 28  2  0
 17 20  1  0
 19 24  4  0
 20 23  1  0
 21 22  4  0
 22 23  4  0
 25 26  4  0
 27 29  2  0
M  END
$$$$

 Created by Python create_sdf_string function

 30 33  0  0  0  0  0  0  0  0999 V2000
    8.3036    9.8571   18.4133 C   0  0  0  0  0  0  0  0  0  0  0  0
    8.3694    7.6612   22.6703 C   0  0  0  0  0  0  0  0  0  0  0  0
    8.4143    6.6863   16.2273 C   0  0  0  0  0  0  0  0  0  0  0  0
   10.7581    6.5674   21.7636 C   0  0  0  0  0  0  0  0  0  0  0  0
    8.4452    8.7960   19.2958 O   0  0  0  0  0  0  0  0  0  0  0  0
    8.7122    6.7842   24.8569 C   0  0  0  0  0  0  0  0  0  0  0  0
   10.3400    6.1726   14.3081 C   0  0  0  0  0  0  0  0  0  0  0  0
    7.4297    7.5873   24.8962 C   0  0  0  0  0  0  0  0  0  0  0  0
    8.1566   10.0536   16.0516 O   0  0  0  0  0  0  0  0  0  0  0  0
   12.4989    6.2074   20.1776 C   0  0  0  0  0  0  0  0  0  0  0  0
    6.9192    9.1053   20.9073 O   0  0  0  0  0  0  0  0  0  0  0  0
   14.3979    6.0729   18.7784 C   0  0  0  0  0  0  0  0  0  0  0  0
    8.6811    9.5354   16.9998 C   0  0  0  0  0  0  0  0  0  0  0  0
    9.2512    4.2713   13.7653 O   0  0  0  0  0  0  0  0  0  0  0  0
    9.6495    8.6317   16.8332 N   0  0  0  0  0  0  0  0  0  0  0  0
    6.2934    8.6988   23.1988 O   0  0  0  0  0  0  0  0  0  0  0  0
    7.9806    8.6543   20.5437 C   0  0  0  0  0  0  0  0  0  0  0  0
   13.7270    5.7144   19.8610 O   0  0  0  0  0  0  0  0  0  0  0  0
    8.3351    5.5235   15.4478 C   0  0  0  0  0  0  0  0  0  0  0  0
    8.7700    7.8434   21.3915 C   0  0  0  0  0  0  0  0  0  0  0  0
   11.7856    6.8851   19.2401 C   0  0  0  0  0  0  0  0  0  0  0  0
   10.5281    7.4276   19.5649 C   0  0  0  0  0  0  0  0  0  0  0  0
   10.0256    7.2907   20.8484 C   0  0  0  0  0  0  0  0  0  0  0  0
    9.3113    5.3049   14.4911 C   0  0  0  0  0  0  0  0  0  0  0  0
    9.4607    7.5646   16.0139 C   0  0  0  0  0  0  0  0  0  0  0  0
   10.4192    7.3157   15.0955 C   0  0  0  0  0  0  0  0  0  0  0  0
   10.2489    6.4227   23.0218 N   0  0  0  0  0  0  0  0  0  0  0  0
    7.2472    8.0746   23.5050 C   0  0  0  0  0  0  0  0  0  0  0  0
    9.2051    6.9101   23.4604 C   0  0  0  0  0  0  0  0  0  0  0  0
   11.9646    6.0299   21.4251 C   0  0  0  0  0  0  0  0  0  0  0  0
  1  5  1  0
  1 13  1  0
  2 20  2  0
  2 28  1  0
  2 29  1  0
  3 19  4  0
  3 25  4  0
  4 23  4  0
  4 27  1  0
  4 30  4  0
  5 17  1  0
  6  8  1  0
  6 29  1  0
  7 24  4  0
  7 26  4  0
  8 28  1  0
  9 13  2  0
 10 18  1  0
 10 21  4  0
 10 30  4  0
 11 17  2  0
 12 18  1  0
 13 15  1  0
 14 24  1  0
 15 25  1  0
 16 28  2  0
 17 20  1  0
 19 24  4  0
 20 23  1  0
 21 22  4  0
 22 23  4  0
 25 26  4  0
 27 29  2  0
M  END
$$$$

 Created by Python create_sdf_string function

 30 33  0  0  0  0  0  0  0  0999 V2000
    8.3036    9.8571   18.4133 C   0  0  0  0  0  0  0  0  0  0  0  0
    8.3694    7.6612   22.6703 C   0  0  0  0  0  0  0  0  0  0  0  0
    8.4143    6.6863   16.2273 C   0  0  0  0  0  0  0  0  0  0  0  0
   10.7581    6.5674   21.7636 C   0  0  0  0  0  0  0  0  0  0  0  0
    8.4452    8.7960   19.2958 O   0  0  0  0  0  0  0  0  0  0  0  0
    8.7122    6.7842   24.8569 C   0  0  0  0  0  0  0  0  0  0  0  0
   10.3400    6.1726   14.3081 C   0  0  0  0  0  0  0  0  0  0  0  0
    7.4297    7.5873   24.8962 C   0  0  0  0  0  0  0  0  0  0  0  0
    8.1566   10.0536   16.0516 O   0  0  0  0  0  0  0  0  0  0  0  0
   12.4989    6.2074   20.1776 C   0  0  0  0  0  0  0  0  0  0  0  0
    6.9192    9.1053   20.9073 O   0  0  0  0  0  0  0  0  0  0  0  0
   14.3979    6.0729   18.7784 C   0  0  0  0  0  0  0  0  0  0  0  0
    8.6811    9.5354   16.9998 C   0  0  0  0  0  0  0  0  0  0  0  0
    9.2512    4.2713   13.7653 O   0  0  0  0  0  0  0  0  0  0  0  0
    9.6495    8.6317   16.8332 N   0  0  0  0  0  0  0  0  0  0  0  0
    6.2934    8.6988   23.1988 O   0  0  0  0  0  0  0  0  0  0  0  0
    7.9806    8.6543   20.5437 C   0  0  0  0  0  0  0  0  0  0  0  0
   13.7270    5.7144   19.8610 O   0  0  0  0  0  0  0  0  0  0  0  0
    8.3351    5.5235   15.4478 C   0  0  0  0  0  0  0  0  0  0  0  0
    8.7700    7.8434   21.3915 C   0  0  0  0  0  0  0  0  0  0  0  0
   11.7856    6.8851   19.2401 C   0  0  0  0  0  0  0  0  0  0  0  0
   10.5281    7.4276   19.5649 C   0  0  0  0  0  0  0  0  0  0  0  0
   10.0256    7.2907   20.8484 C   0  0  0  0  0  0  0  0  0  0  0  0
    9.3113    5.3049   14.4911 C   0  0  0  0  0  0  0  0  0  0  0  0
    9.4607    7.5646   16.0139 C   0  0  0  0  0  0  0  0  0  0  0  0
   10.4192    7.3157   15.0955 C   0  0  0  0  0  0  0  0  0  0  0  0
   10.2489    6.4227   23.0218 N   0  0  0  0  0  0  0  0  0  0  0  0
    7.2472    8.0746   23.5050 C   0  0  0  0  0  0  0  0  0  0  0  0
    9.2051    6.9101   23.4604 C   0  0  0  0  0  0  0  0  0  0  0  0
   11.9646    6.0299   21.4251 C   0  0  0  0  0  0  0  0  0  0  0  0
  1  5  1  0
  1 13  1  0
  2 20  2  0
  2 28  1  0
  2 29  1  0
  3 19  4  0
  3 25  4  0
  4 23  4  0
  4 27  1  0
  4 30  4  0
  5 17  1  0
  6  8  1  0
  6 29  1  0
  7 24  4  0
  7 26  4  0
  8 28  1  0
  9 13  2  0
 10 18  1  0
 10 21  4  0
 10 30  4  0
 11 17  2  0
 12 18  1  0
 13 15  1  0
 14 24  1  0
 15 25  1  0
 16 28  2  0
 17 20  1  0
 19 24  4  0
 20 23  1  0
 21 22  4  0
 22 23  4  0
 25 26  4  0
 27 29  2  0
M  END
$$$$

 Created by Python create_sdf_string function

 30 33  0  0  0  0  0  0  0  0999 V2000
    8.3036    9.8571   18.4133 C   0  0  0  0  0  0  0  0  0  0  0  0
    8.3694    7.6612   22.6703 C   0  0  0  0  0  0  0  0  0  0  0  0
    8.4143    6.6863   16.2273 C   0  0  0  0  0  0  0  0  0  0  0  0
   10.7581    6.5674   21.7636 C   0  0  0  0  0  0  0  0  0  0  0  0
    8.4452    8.7960   19.2958 O   0  0  0  0  0  0  0  0  0  0  0  0
    8.7122    6.7842   24.8569 C   0  0  0  0  0  0  0  0  0  0  0  0
   10.3400    6.1726   14.3081 C   0  0  0  0  0  0  0  0  0  0  0  0
    7.4297    7.5873   24.8962 C   0  0  0  0  0  0  0  0  0  0  0  0
    8.1566   10.0536   16.0516 O   0  0  0  0  0  0  0  0  0  0  0  0
   12.4989    6.2074   20.1776 C   0  0  0  0  0  0  0  0  0  0  0  0
    6.9192    9.1053   20.9073 O   0  0  0  0  0  0  0  0  0  0  0  0
   14.3979    6.0729   18.7784 C   0  0  0  0  0  0  0  0  0  0  0  0
    8.6811    9.5354   16.9998 C   0  0  0  0  0  0  0  0  0  0  0  0
    9.2512    4.2713   13.7653 O   0  0  0  0  0  0  0  0  0  0  0  0
    9.6495    8.6317   16.8332 N   0  0  0  0  0  0  0  0  0  0  0  0
    6.2934    8.6988   23.1988 O   0  0  0  0  0  0  0  0  0  0  0  0
    7.9806    8.6543   20.5437 C   0  0  0  0  0  0  0  0  0  0  0  0
   13.7270    5.7144   19.8610 O   0  0  0  0  0  0  0  0  0  0  0  0
    8.3351    5.5235   15.4478 C   0  0  0  0  0  0  0  0  0  0  0  0
    8.7700    7.8434   21.3915 C   0  0  0  0  0  0  0  0  0  0  0  0
   11.7856    6.8851   19.2401 C   0  0  0  0  0  0  0  0  0  0  0  0
   10.5281    7.4276   19.5649 C   0  0  0  0  0  0  0  0  0  0  0  0
   10.0256    7.2907   20.8484 C   0  0  0  0  0  0  0  0  0  0  0  0
    9.3113    5.3049   14.4911 C   0  0  0  0  0  0  0  0  0  0  0  0
    9.4607    7.5646   16.0139 C   0  0  0  0  0  0  0  0  0  0  0  0
   10.4192    7.3157   15.0955 C   0  0  0  0  0  0  0  0  0  0  0  0
   10.2489    6.4227   23.0218 N   0  0  0  0  0  0  0  0  0  0  0  0
    7.2472    8.0746   23.5050 C   0  0  0  0  0  0  0  0  0  0  0  0
    9.2051    6.9101   23.4604 C   0  0  0  0  0  0  0  0  0  0  0  0
   11.9646    6.0299   21.4251 C   0  0  0  0  0  0  0  0  0  0  0  0
  1  5  1  0
  1 13  1  0
  2 20  2  0
  2 28  1  0
  2 29  1  0
  3 19  4  0
  3 25  4  0
  4 23  4  0
  4 27  1  0
  4 30  4  0
  5 17  1  0
  6  8  1  0
  6 29  1  0
  7 24  4  0
  7 26  4  0
  8 28  1  0
  9 13  2  0
 10 18  1  0
 10 21  4  0
 10 30  4  0
 11 17  2  0
 12 18  1  0
 13 15  1  0
 14 24  1  0
 15 25  1  0
 16 28  2  0
 17 20  1  0
 19 24  4  0
 20 23  1  0
 21 22  4  0
 22 23  4  0
 25 26  4  0
 27 29  2  0
M  END
$$$$

 Created by Python create_sdf_string function

 30 33  0  0  0  0  0  0  0  0999 V2000
    8.3036    9.8571   18.4133 C   0  0  0  0  0  0  0  0  0  0  0  0
    8.3694    7.6612   22.6703 C   0  0  0  0  0  0  0  0  0  0  0  0
    8.4143    6.6863   16.2273 C   0  0  0  0  0  0  0  0  0  0  0  0
   10.7581    6.5674   21.7636 C   0  0  0  0  0  0  0  0  0  0  0  0
    8.4452    8.7960   19.2958 O   0  0  0  0  0  0  0  0  0  0  0  0
    8.7122    6.7842   24.8569 C   0  0  0  0  0  0  0  0  0  0  0  0
   10.3400    6.1726   14.3081 C   0  0  0  0  0  0  0  0  0  0  0  0
    7.4297    7.5873   24.8962 C   0  0  0  0  0  0  0  0  0  0  0  0
    8.1566   10.0536   16.0516 O   0  0  0  0  0  0  0  0  0  0  0  0
   12.4989    6.2074   20.1776 C   0  0  0  0  0  0  0  0  0  0  0  0
    6.9192    9.1053   20.9073 O   0  0  0  0  0  0  0  0  0  0  0  0
   14.3979    6.0729   18.7784 C   0  0  0  0  0  0  0  0  0  0  0  0
    8.6811    9.5354   16.9998 C   0  0  0  0  0  0  0  0  0  0  0  0
    9.2512    4.2713   13.7653 O   0  0  0  0  0  0  0  0  0  0  0  0
    9.6495    8.6317   16.8332 N   0  0  0  0  0  0  0  0  0  0  0  0
    6.2934    8.6988   23.1988 O   0  0  0  0  0  0  0  0  0  0  0  0
    7.9806    8.6543   20.5437 C   0  0  0  0  0  0  0  0  0  0  0  0
   13.7270    5.7144   19.8610 O   0  0  0  0  0  0  0  0  0  0  0  0
    8.3351    5.5235   15.4478 C   0  0  0  0  0  0  0  0  0  0  0  0
    8.7700    7.8434   21.3915 C   0  0  0  0  0  0  0  0  0  0  0  0
   11.7856    6.8851   19.2401 C   0  0  0  0  0  0  0  0  0  0  0  0
   10.5281    7.4276   19.5649 C   0  0  0  0  0  0  0  0  0  0  0  0
   10.0256    7.2907   20.8484 C   0  0  0  0  0  0  0  0  0  0  0  0
    9.3113    5.3049   14.4911 C   0  0  0  0  0  0  0  0  0  0  0  0
    9.4607    7.5646   16.0139 C   0  0  0  0  0  0  0  0  0  0  0  0
   10.4192    7.3157   15.0955 C   0  0  0  0  0  0  0  0  0  0  0  0
   10.2489    6.4227   23.0218 N   0  0  0  0  0  0  0  0  0  0  0  0
    7.2472    8.0746   23.5050 C   0  0  0  0  0  0  0  0  0  0  0  0
    9.2051    6.9101   23.4604 C   0  0  0  0  0  0  0  0  0  0  0  0
   11.9646    6.0299   21.4251 C   0  0  0  0  0  0  0  0  0  0  0  0
  1  5  1  0
  1 13  1  0
  2 20  2  0
  2 28  1  0
  2 29  1  0
  3 19  4  0
  3 25  4  0
  4 23  4  0
  4 27  1  0
  4 30  4  0
  5 17  1  0
  6  8  1  0
  6 29  1  0
  7 24  4  0
  7 26  4  0
  8 28  1  0
  9 13  2  0
 10 18  1  0
 10 21  4  0
 10 30  4  0
 11 17  2  0
 12 18  1  0
 13 15  1  0
 14 24  1  0
 15 25  1  0
 16 28  2  0
 17 20  1  0
 19 24  4  0
 20 23  1  0
 21 22  4  0
 22 23  4  0
 25 26  4  0
 27 29  2  0
M  END
$$$$

 Created by Python create_sdf_string function

 30 33  0  0  0  0  0  0  0  0999 V2000
    8.3036    9.8571   18.4133 C   0  0  0  0  0  0  0  0  0  0  0  0
    8.3694    7.6612   22.6703 C   0  0  0  0  0  0  0  0  0  0  0  0
    8.4143    6.6863   16.2273 C   0  0  0  0  0  0  0  0  0  0  0  0
   10.7581    6.5674   21.7636 C   0  0  0  0  0  0  0  0  0  0  0  0
    8.4452    8.7960   19.2958 O   0  0  0  0  0  0  0  0  0  0  0  0
    8.7122    6.7842   24.8569 C   0  0  0  0  0  0  0  0  0  0  0  0
   10.3400    6.1726   14.3081 C   0  0  0  0  0  0  0  0  0  0  0  0
    7.4297    7.5873   24.8962 C   0  0  0  0  0  0  0  0  0  0  0  0
    8.1566   10.0536   16.0516 O   0  0  0  0  0  0  0  0  0  0  0  0
   12.4989    6.2074   20.1776 C   0  0  0  0  0  0  0  0  0  0  0  0
    6.9192    9.1053   20.9073 O   0  0  0  0  0  0  0  0  0  0  0  0
   14.3979    6.0729   18.7784 C   0  0  0  0  0  0  0  0  0  0  0  0
    8.6811    9.5354   16.9998 C   0  0  0  0  0  0  0  0  0  0  0  0
    9.2512    4.2713   13.7653 O   0  0  0  0  0  0  0  0  0  0  0  0
    9.6495    8.6317   16.8332 N   0  0  0  0  0  0  0  0  0  0  0  0
    6.2934    8.6988   23.1988 O   0  0  0  0  0  0  0  0  0  0  0  0
    7.9806    8.6543   20.5437 C   0  0  0  0  0  0  0  0  0  0  0  0
   13.7270    5.7144   19.8610 O   0  0  0  0  0  0  0  0  0  0  0  0
    8.3351    5.5235   15.4478 C   0  0  0  0  0  0  0  0  0  0  0  0
    8.7700    7.8434   21.3915 C   0  0  0  0  0  0  0  0  0  0  0  0
   11.7856    6.8851   19.2401 C   0  0  0  0  0  0  0  0  0  0  0  0
   10.5281    7.4276   19.5649 C   0  0  0  0  0  0  0  0  0  0  0  0
   10.0256    7.2907   20.8484 C   0  0  0  0  0  0  0  0  0  0  0  0
    9.3113    5.3049   14.4911 C   0  0  0  0  0  0  0  0  0  0  0  0
    9.4607    7.5646   16.0139 C   0  0  0  0  0  0  0  0  0  0  0  0
   10.4192    7.3157   15.0955 C   0  0  0  0  0  0  0  0  0  0  0  0
   10.2489    6.4227   23.0218 N   0  0  0  0  0  0  0  0  0  0  0  0
    7.2472    8.0746   23.5050 C   0  0  0  0  0  0  0  0  0  0  0  0
    9.2051    6.9101   23.4604 C   0  0  0  0  0  0  0  0  0  0  0  0
   11.9646    6.0299   21.4251 C   0  0  0  0  0  0  0  0  0  0  0  0
  1  5  1  0
  1 13  1  0
  2 20  2  0
  2 28  1  0
  2 29  1  0
  3 19  4  0
  3 25  4  0
  4 23  4  0
  4 27  1  0
  4 30  4  0
  5 17  1  0
  6  8  1  0
  6 29  1  0
  7 24  4  0
  7 26  4  0
  8 28  1  0
  9 13  2  0
 10 18  1  0
 10 21  4  0
 10 30  4  0
 11 17  2  0
 12 18  1  0
 13 15  1  0
 14 24  1  0
 15 25  1  0
 16 28  2  0
 17 20  1  0
 19 24  4  0
 20 23  1  0
 21 22  4  0
 22 23  4  0
 25 26  4  0
 27 29  2  0
M  END
$$$$

 Created by Python create_sdf_string function

 30 33  0  0  0  0  0  0  0  0999 V2000
    8.3036    9.8571   18.4133 C   0  0  0  0  0  0  0  0  0  0  0  0
    8.3694    7.6612   22.6703 C   0  0  0  0  0  0  0  0  0  0  0  0
    8.4143    6.6863   16.2273 C   0  0  0  0  0  0  0  0  0  0  0  0
   10.7581    6.5674   21.7636 C   0  0  0  0  0  0  0  0  0  0  0  0
    8.4452    8.7960   19.2958 O   0  0  0  0  0  0  0  0  0  0  0  0
    8.7122    6.7842   24.8569 C   0  0  0  0  0  0  0  0  0  0  0  0
   10.3400    6.1726   14.3081 C   0  0  0  0  0  0  0  0  0  0  0  0
    7.4297    7.5873   24.8962 C   0  0  0  0  0  0  0  0  0  0  0  0
    8.1566   10.0536   16.0516 O   0  0  0  0  0  0  0  0  0  0  0  0
   12.4989    6.2074   20.1776 C   0  0  0  0  0  0  0  0  0  0  0  0
    6.9192    9.1053   20.9073 O   0  0  0  0  0  0  0  0  0  0  0  0
   14.3979    6.0729   18.7784 C   0  0  0  0  0  0  0  0  0  0  0  0
    8.6811    9.5354   16.9998 C   0  0  0  0  0  0  0  0  0  0  0  0
    9.2512    4.2713   13.7653 O   0  0  0  0  0  0  0  0  0  0  0  0
    9.6495    8.6317   16.8332 N   0  0  0  0  0  0  0  0  0  0  0  0
    6.2934    8.6988   23.1988 O   0  0  0  0  0  0  0  0  0  0  0  0
    7.9806    8.6543   20.5437 C   0  0  0  0  0  0  0  0  0  0  0  0
   13.7270    5.7144   19.8610 O   0  0  0  0  0  0  0  0  0  0  0  0
    8.3351    5.5235   15.4478 C   0  0  0  0  0  0  0  0  0  0  0  0
    8.7700    7.8434   21.3915 C   0  0  0  0  0  0  0  0  0  0  0  0
   11.7856    6.8851   19.2401 C   0  0  0  0  0  0  0  0  0  0  0  0
   10.5281    7.4276   19.5649 C   0  0  0  0  0  0  0  0  0  0  0  0
   10.0256    7.2907   20.8484 C   0  0  0  0  0  0  0  0  0  0  0  0
    9.3113    5.3049   14.4911 C   0  0  0  0  0  0  0  0  0  0  0  0
    9.4607    7.5646   16.0139 C   0  0  0  0  0  0  0  0  0  0  0  0
   10.4192    7.3157   15.0955 C   0  0  0  0  0  0  0  0  0  0  0  0
   10.2489    6.4227   23.0218 N   0  0  0  0  0  0  0  0  0  0  0  0
    7.2472    8.0746   23.5050 C   0  0  0  0  0  0  0  0  0  0  0  0
    9.2051    6.9101   23.4604 C   0  0  0  0  0  0  0  0  0  0  0  0
   11.9646    6.0299   21.4251 C   0  0  0  0  0  0  0  0  0  0  0  0
  1  5  1  0
  1 13  1  0
  2 20  2  0
  2 28  1  0
  2 29  1  0
  3 19  4  0
  3 25  4  0
  4 23  4  0
  4 27  1  0
  4 30  4  0
  5 17  1  0
  6  8  1  0
  6 29  1  0
  7 24  4  0
  7 26  4  0
  8 28  1  0
  9 13  2  0
 10 18  1  0
 10 21  4  0
 10 30  4  0
 11 17  2  0
 12 18  1  0
 13 15  1  0
 14 24  1  0
 15 25  1  0
 16 28  2  0
 17 20  1  0
 19 24  4  0
 20 23  1  0
 21 22  4  0
 22 23  4  0
 25 26  4  0
 27 29  2  0
M  END
$$$$

 Created by Python create_sdf_string function

 30 33  0  0  0  0  0  0  0  0999 V2000
    8.3036    9.8571   18.4133 C   0  0  0  0  0  0  0  0  0  0  0  0
    8.3694    7.6612   22.6703 C   0  0  0  0  0  0  0  0  0  0  0  0
    8.4143    6.6863   16.2273 C   0  0  0  0  0  0  0  0  0  0  0  0
   10.7581    6.5674   21.7636 C   0  0  0  0  0  0  0  0  0  0  0  0
    8.4452    8.7960   19.2958 O   0  0  0  0  0  0  0  0  0  0  0  0
    8.7122    6.7842   24.8569 C   0  0  0  0  0  0  0  0  0  0  0  0
   10.3400    6.1726   14.3081 C   0  0  0  0  0  0  0  0  0  0  0  0
    7.4297    7.5873   24.8962 C   0  0  0  0  0  0  0  0  0  0  0  0
    8.1566   10.0536   16.0516 O   0  0  0  0  0  0  0  0  0  0  0  0
   12.4989    6.2074   20.1776 C   0  0  0  0  0  0  0  0  0  0  0  0
    6.9192    9.1053   20.9073 O   0  0  0  0  0  0  0  0  0  0  0  0
   14.3979    6.0729   18.7784 C   0  0  0  0  0  0  0  0  0  0  0  0
    8.6811    9.5354   16.9998 C   0  0  0  0  0  0  0  0  0  0  0  0
    9.2512    4.2713   13.7653 O   0  0  0  0  0  0  0  0  0  0  0  0
    9.6495    8.6317   16.8332 N   0  0  0  0  0  0  0  0  0  0  0  0
    6.2934    8.6988   23.1988 O   0  0  0  0  0  0  0  0  0  0  0  0
    7.9806    8.6543   20.5437 C   0  0  0  0  0  0  0  0  0  0  0  0
   13.7270    5.7144   19.8610 O   0  0  0  0  0  0  0  0  0  0  0  0
    8.3351    5.5235   15.4478 C   0  0  0  0  0  0  0  0  0  0  0  0
    8.7700    7.8434   21.3915 C   0  0  0  0  0  0  0  0  0  0  0  0
   11.7856    6.8851   19.2401 C   0  0  0  0  0  0  0  0  0  0  0  0
   10.5281    7.4276   19.5649 C   0  0  0  0  0  0  0  0  0  0  0  0
   10.0256    7.2907   20.8484 C   0  0  0  0  0  0  0  0  0  0  0  0
    9.3113    5.3049   14.4911 C   0  0  0  0  0  0  0  0  0  0  0  0
    9.4607    7.5646   16.0139 C   0  0  0  0  0  0  0  0  0  0  0  0
   10.4192    7.3157   15.0955 C   0  0  0  0  0  0  0  0  0  0  0  0
   10.2489    6.4227   23.0218 N   0  0  0  0  0  0  0  0  0  0  0  0
    7.2472    8.0746   23.5050 C   0  0  0  0  0  0  0  0  0  0  0  0
    9.2051    6.9101   23.4604 C   0  0  0  0  0  0  0  0  0  0  0  0
   11.9646    6.0299   21.4251 C   0  0  0  0  0  0  0  0  0  0  0  0
  1  5  1  0
  1 13  1  0
  2 20  2  0
  2 28  1  0
  2 29  1  0
  3 19  4  0
  3 25  4  0
  4 23  4  0
  4 27  1  0
  4 30  4  0
  5 17  1  0
  6  8  1  0
  6 29  1  0
  7 24  4  0
  7 26  4  0
  8 28  1  0
  9 13  2  0
 10 18  1  0
 10 21  4  0
 10 30  4  0
 11 17  2  0
 12 18  1  0
 13 15  1  0
 14 24  1  0
 15 25  1  0
 16 28  2  0
 17 20  1  0
 19 24  4  0
 20 23  1  0
 21 22  4  0
 22 23  4  0
 25 26  4  0
 27 29  2  0
M  END
$$$$

 Created by Python create_sdf_string function

 30 33  0  0  0  0  0  0  0  0999 V2000
    8.3036    9.8571   18.4133 C   0  0  0  0  0  0  0  0  0  0  0  0
    8.3694    7.6612   22.6703 C   0  0  0  0  0  0  0  0  0  0  0  0
    8.4143    6.6863   16.2273 C   0  0  0  0  0  0  0  0  0  0  0  0
   10.7581    6.5674   21.7636 C   0  0  0  0  0  0  0  0  0  0  0  0
    8.4452    8.7960   19.2958 O   0  0  0  0  0  0  0  0  0  0  0  0
    8.7122    6.7842   24.8569 C   0  0  0  0  0  0  0  0  0  0  0  0
   10.3400    6.1726   14.3081 C   0  0  0  0  0  0  0  0  0  0  0  0
    7.4297    7.5873   24.8962 C   0  0  0  0  0  0  0  0  0  0  0  0
    8.1566   10.0536   16.0516 O   0  0  0  0  0  0  0  0  0  0  0  0
   12.4989    6.2074   20.1776 C   0  0  0  0  0  0  0  0  0  0  0  0
    6.9192    9.1053   20.9073 O   0  0  0  0  0  0  0  0  0  0  0  0
   14.3979    6.0729   18.7784 C   0  0  0  0  0  0  0  0  0  0  0  0
    8.6811    9.5354   16.9998 C   0  0  0  0  0  0  0  0  0  0  0  0
    9.2512    4.2713   13.7653 O   0  0  0  0  0  0  0  0  0  0  0  0
    9.6495    8.6317   16.8332 N   0  0  0  0  0  0  0  0  0  0  0  0
    6.2934    8.6988   23.1988 O   0  0  0  0  0  0  0  0  0  0  0  0
    7.9806    8.6543   20.5437 C   0  0  0  0  0  0  0  0  0  0  0  0
   13.7270    5.7144   19.8610 O   0  0  0  0  0  0  0  0  0  0  0  0
    8.3351    5.5235   15.4478 C   0  0  0  0  0  0  0  0  0  0  0  0
    8.7700    7.8434   21.3915 C   0  0  0  0  0  0  0  0  0  0  0  0
   11.7856    6.8851   19.2401 C   0  0  0  0  0  0  0  0  0  0  0  0
   10.5281    7.4276   19.5649 C   0  0  0  0  0  0  0  0  0  0  0  0
   10.0256    7.2907   20.8484 C   0  0  0  0  0  0  0  0  0  0  0  0
    9.3113    5.3049   14.4911 C   0  0  0  0  0  0  0  0  0  0  0  0
    9.4607    7.5646   16.0139 C   0  0  0  0  0  0  0  0  0  0  0  0
   10.4192    7.3157   15.0955 C   0  0  0  0  0  0  0  0  0  0  0  0
   10.2489    6.4227   23.0218 N   0  0  0  0  0  0  0  0  0  0  0  0
    7.2472    8.0746   23.5050 C   0  0  0  0  0  0  0  0  0  0  0  0
    9.2051    6.9101   23.4604 C   0  0  0  0  0  0  0  0  0  0  0  0
   11.9646    6.0299   21.4251 C   0  0  0  0  0  0  0  0  0  0  0  0
  1  5  1  0
  1 13  1  0
  2 20  2  0
  2 28  1  0
  2 29  1  0
  3 19  4  0
  3 25  4  0
  4 23  4  0
  4 27  1  0
  4 30  4  0
  5 17  1  0
  6  8  1  0
  6 29  1  0
  7 24  4  0
  7 26  4  0
  8 28  1  0
  9 13  2  0
 10 18  1  0
 10 21  4  0
 10 30  4  0
 11 17  2  0
 12 18  1  0
 13 15  1  0
 14 24  1  0
 15 25  1  0
 16 28  2  0
 17 20  1  0
 19 24  4  0
 20 23  1  0
 21 22  4  0
 22 23  4  0
 25 26  4  0
 27 29  2  0
M  END
$$$$

 Created by Python create_sdf_string function

 30 33  0  0  0  0  0  0  0  0999 V2000
    8.3036    9.8571   18.4133 C   0  0  0  0  0  0  0  0  0  0  0  0
    8.3694    7.6612   22.6703 C   0  0  0  0  0  0  0  0  0  0  0  0
    8.4143    6.6863   16.2273 C   0  0  0  0  0  0  0  0  0  0  0  0
   10.7581    6.5674   21.7636 C   0  0  0  0  0  0  0  0  0  0  0  0
    8.4452    8.7960   19.2958 O   0  0  0  0  0  0  0  0  0  0  0  0
    8.7122    6.7842   24.8569 C   0  0  0  0  0  0  0  0  0  0  0  0
   10.3400    6.1726   14.3081 C   0  0  0  0  0  0  0  0  0  0  0  0
    7.4297    7.5873   24.8962 C   0  0  0  0  0  0  0  0  0  0  0  0
    8.1566   10.0536   16.0516 O   0  0  0  0  0  0  0  0  0  0  0  0
   12.4989    6.2074   20.1776 C   0  0  0  0  0  0  0  0  0  0  0  0
    6.9192    9.1053   20.9073 O   0  0  0  0  0  0  0  0  0  0  0  0
   14.3979    6.0729   18.7784 C   0  0  0  0  0  0  0  0  0  0  0  0
    8.6811    9.5354   16.9998 C   0  0  0  0  0  0  0  0  0  0  0  0
    9.2512    4.2713   13.7653 O   0  0  0  0  0  0  0  0  0  0  0  0
    9.6495    8.6317   16.8332 N   0  0  0  0  0  0  0  0  0  0  0  0
    6.2934    8.6988   23.1988 O   0  0  0  0  0  0  0  0  0  0  0  0
    7.9806    8.6543   20.5437 C   0  0  0  0  0  0  0  0  0  0  0  0
   13.7270    5.7144   19.8610 O   0  0  0  0  0  0  0  0  0  0  0  0
    8.3351    5.5235   15.4478 C   0  0  0  0  0  0  0  0  0  0  0  0
    8.7700    7.8434   21.3915 C   0  0  0  0  0  0  0  0  0  0  0  0
   11.7856    6.8851   19.2401 C   0  0  0  0  0  0  0  0  0  0  0  0
   10.5281    7.4276   19.5649 C   0  0  0  0  0  0  0  0  0  0  0  0
   10.0256    7.2907   20.8484 C   0  0  0  0  0  0  0  0  0  0  0  0
    9.3113    5.3049   14.4911 C   0  0  0  0  0  0  0  0  0  0  0  0
    9.4607    7.5646   16.0139 C   0  0  0  0  0  0  0  0  0  0  0  0
   10.4192    7.3157   15.0955 C   0  0  0  0  0  0  0  0  0  0  0  0
   10.2489    6.4227   23.0218 N   0  0  0  0  0  0  0  0  0  0  0  0
    7.2472    8.0746   23.5050 C   0  0  0  0  0  0  0  0  0  0  0  0
    9.2051    6.9101   23.4604 C   0  0  0  0  0  0  0  0  0  0  0  0
   11.9646    6.0299   21.4251 C   0  0  0  0  0  0  0  0  0  0  0  0
  1  5  1  0
  1 13  1  0
  2 20  2  0
  2 28  1  0
  2 29  1  0
  3 19  4  0
  3 25  4  0
  4 23  4  0
  4 27  1  0
  4 30  4  0
  5 17  1  0
  6  8  1  0
  6 29  1  0
  7 24  4  0
  7 26  4  0
  8 28  1  0
  9 13  2  0
 10 18  1  0
 10 21  4  0
 10 30  4  0
 11 17  2  0
 12 18  1  0
 13 15  1  0
 14 24  1  0
 15 25  1  0
 16 28  2  0
 17 20  1  0
 19 24  4  0
 20 23  1  0
 21 22  4  0
 22 23  4  0
 25 26  4  0
 27 29  2  0
M  END
$$$$

 Created by Python create_sdf_string function

 30 33  0  0  0  0  0  0  0  0999 V2000
    8.3036    9.8571   18.4133 C   0  0  0  0  0  0  0  0  0  0  0  0
    8.3694    7.6612   22.6703 C   0  0  0  0  0  0  0  0  0  0  0  0
    8.4143    6.6863   16.2273 C   0  0  0  0  0  0  0  0  0  0  0  0
   10.7581    6.5674   21.7636 C   0  0  0  0  0  0  0  0  0  0  0  0
    8.4452    8.7960   19.2958 O   0  0  0  0  0  0  0  0  0  0  0  0
    8.7122    6.7842   24.8569 C   0  0  0  0  0  0  0  0  0  0  0  0
   10.3400    6.1726   14.3081 C   0  0  0  0  0  0  0  0  0  0  0  0
    7.4297    7.5873   24.8962 C   0  0  0  0  0  0  0  0  0  0  0  0
    8.1566   10.0536   16.0516 O   0  0  0  0  0  0  0  0  0  0  0  0
   12.4989    6.2074   20.1776 C   0  0  0  0  0  0  0  0  0  0  0  0
    6.9192    9.1053   20.9073 O   0  0  0  0  0  0  0  0  0  0  0  0
   14.3979    6.0729   18.7784 C   0  0  0  0  0  0  0  0  0  0  0  0
    8.6811    9.5354   16.9998 C   0  0  0  0  0  0  0  0  0  0  0  0
    9.2512    4.2713   13.7653 O   0  0  0  0  0  0  0  0  0  0  0  0
    9.6495    8.6317   16.8332 N   0  0  0  0  0  0  0  0  0  0  0  0
    6.2934    8.6988   23.1988 O   0  0  0  0  0  0  0  0  0  0  0  0
    7.9806    8.6543   20.5437 C   0  0  0  0  0  0  0  0  0  0  0  0
   13.7270    5.7144   19.8610 O   0  0  0  0  0  0  0  0  0  0  0  0
    8.3351    5.5235   15.4478 C   0  0  0  0  0  0  0  0  0  0  0  0
    8.7700    7.8434   21.3915 C   0  0  0  0  0  0  0  0  0  0  0  0
   11.7856    6.8851   19.2401 C   0  0  0  0  0  0  0  0  0  0  0  0
   10.5281    7.4276   19.5649 C   0  0  0  0  0  0  0  0  0  0  0  0
   10.0256    7.2907   20.8484 C   0  0  0  0  0  0  0  0  0  0  0  0
    9.3113    5.3049   14.4911 C   0  0  0  0  0  0  0  0  0  0  0  0
    9.4607    7.5646   16.0139 C   0  0  0  0  0  0  0  0  0  0  0  0
   10.4192    7.3157   15.0955 C   0  0  0  0  0  0  0  0  0  0  0  0
   10.2489    6.4227   23.0218 N   0  0  0  0  0  0  0  0  0  0  0  0
    7.2472    8.0746   23.5050 C   0  0  0  0  0  0  0  0  0  0  0  0
    9.2051    6.9101   23.4604 C   0  0  0  0  0  0  0  0  0  0  0  0
   11.9646    6.0299   21.4251 C   0  0  0  0  0  0  0  0  0  0  0  0
  1  5  1  0
  1 13  1  0
  2 20  2  0
  2 28  1  0
  2 29  1  0
  3 19  4  0
  3 25  4  0
  4 23  4  0
  4 27  1  0
  4 30  4  0
  5 17  1  0
  6  8  1  0
  6 29  1  0
  7 24  4  0
  7 26  4  0
  8 28  1  0
  9 13  2  0
 10 18  1  0
 10 21  4  0
 10 30  4  0
 11 17  2  0
 12 18  1  0
 13 15  1  0
 14 24  1  0
 15 25  1  0
 16 28  2  0
 17 20  1  0
 19 24  4  0
 20 23  1  0
 21 22  4  0
 22 23  4  0
 25 26  4  0
 27 29  2  0
M  END
$$$$

 Created by Python create_sdf_string function

 30 33  0  0  0  0  0  0  0  0999 V2000
    8.3036    9.8571   18.4133 C   0  0  0  0  0  0  0  0  0  0  0  0
    8.3694    7.6612   22.6703 C   0  0  0  0  0  0  0  0  0  0  0  0
    8.4143    6.6863   16.2273 C   0  0  0  0  0  0  0  0  0  0  0  0
   10.7581    6.5674   21.7636 C   0  0  0  0  0  0  0  0  0  0  0  0
    8.4452    8.7960   19.2958 O   0  0  0  0  0  0  0  0  0  0  0  0
    8.7122    6.7842   24.8569 C   0  0  0  0  0  0  0  0  0  0  0  0
   10.3400    6.1726   14.3081 C   0  0  0  0  0  0  0  0  0  0  0  0
    7.4297    7.5873   24.8962 C   0  0  0  0  0  0  0  0  0  0  0  0
    8.1566   10.0536   16.0516 O   0  0  0  0  0  0  0  0  0  0  0  0
   12.4989    6.2074   20.1776 C   0  0  0  0  0  0  0  0  0  0  0  0
    6.9192    9.1053   20.9073 O   0  0  0  0  0  0  0  0  0  0  0  0
   14.3979    6.0729   18.7784 C   0  0  0  0  0  0  0  0  0  0  0  0
    8.6811    9.5354   16.9998 C   0  0  0  0  0  0  0  0  0  0  0  0
    9.2512    4.2713   13.7653 O   0  0  0  0  0  0  0  0  0  0  0  0
    9.6495    8.6317   16.8332 N   0  0  0  0  0  0  0  0  0  0  0  0
    6.2934    8.6988   23.1988 O   0  0  0  0  0  0  0  0  0  0  0  0
    7.9806    8.6543   20.5437 C   0  0  0  0  0  0  0  0  0  0  0  0
   13.7270    5.7144   19.8610 O   0  0  0  0  0  0  0  0  0  0  0  0
    8.3351    5.5235   15.4478 C   0  0  0  0  0  0  0  0  0  0  0  0
    8.7700    7.8434   21.3915 C   0  0  0  0  0  0  0  0  0  0  0  0
   11.7856    6.8851   19.2401 C   0  0  0  0  0  0  0  0  0  0  0  0
   10.5281    7.4276   19.5649 C   0  0  0  0  0  0  0  0  0  0  0  0
   10.0256    7.2907   20.8484 C   0  0  0  0  0  0  0  0  0  0  0  0
    9.3113    5.3049   14.4911 C   0  0  0  0  0  0  0  0  0  0  0  0
    9.4607    7.5646   16.0139 C   0  0  0  0  0  0  0  0  0  0  0  0
   10.4192    7.3157   15.0955 C   0  0  0  0  0  0  0  0  0  0  0  0
   10.2489    6.4227   23.0218 N   0  0  0  0  0  0  0  0  0  0  0  0
    7.2472    8.0746   23.5050 C   0  0  0  0  0  0  0  0  0  0  0  0
    9.2051    6.9101   23.4604 C   0  0  0  0  0  0  0  0  0  0  0  0
   11.9646    6.0299   21.4251 C   0  0  0  0  0  0  0  0  0  0  0  0
  1  5  1  0
  1 13  1  0
  2 20  2  0
  2 28  1  0
  2 29  1  0
  3 19  4  0
  3 25  4  0
  4 23  4  0
  4 27  1  0
  4 30  4  0
  5 17  1  0
  6  8  1  0
  6 29  1  0
  7 24  4  0
  7 26  4  0
  8 28  1  0
  9 13  2  0
 10 18  1  0
 10 21  4  0
 10 30  4  0
 11 17  2  0
 12 18  1  0
 13 15  1  0
 14 24  1  0
 15 25  1  0
 16 28  2  0
 17 20  1  0
 19 24  4  0
 20 23  1  0
 21 22  4  0
 22 23  4  0
 25 26  4  0
 27 29  2  0
M  END
$$$$

 Created by Python create_sdf_string function

 30 33  0  0  0  0  0  0  0  0999 V2000
    8.3036    9.8571   18.4133 C   0  0  0  0  0  0  0  0  0  0  0  0
    8.3694    7.6612   22.6703 C   0  0  0  0  0  0  0  0  0  0  0  0
    8.4143    6.6863   16.2273 C   0  0  0  0  0  0  0  0  0  0  0  0
   10.7581    6.5674   21.7636 C   0  0  0  0  0  0  0  0  0  0  0  0
    8.4452    8.7960   19.2958 O   0  0  0  0  0  0  0  0  0  0  0  0
    8.7122    6.7842   24.8569 C   0  0  0  0  0  0  0  0  0  0  0  0
   10.3400    6.1726   14.3081 C   0  0  0  0  0  0  0  0  0  0  0  0
    7.4297    7.5873   24.8962 C   0  0  0  0  0  0  0  0  0  0  0  0
    8.1566   10.0536   16.0516 O   0  0  0  0  0  0  0  0  0  0  0  0
   12.4989    6.2074   20.1776 C   0  0  0  0  0  0  0  0  0  0  0  0
    6.9192    9.1053   20.9073 O   0  0  0  0  0  0  0  0  0  0  0  0
   14.3979    6.0729   18.7784 C   0  0  0  0  0  0  0  0  0  0  0  0
    8.6811    9.5354   16.9998 C   0  0  0  0  0  0  0  0  0  0  0  0
    9.2512    4.2713   13.7653 O   0  0  0  0  0  0  0  0  0  0  0  0
    9.6495    8.6317   16.8332 N   0  0  0  0  0  0  0  0  0  0  0  0
    6.2934    8.6988   23.1988 O   0  0  0  0  0  0  0  0  0  0  0  0
    7.9806    8.6543   20.5437 C   0  0  0  0  0  0  0  0  0  0  0  0
   13.7270    5.7144   19.8610 O   0  0  0  0  0  0  0  0  0  0  0  0
    8.3351    5.5235   15.4478 C   0  0  0  0  0  0  0  0  0  0  0  0
    8.7700    7.8434   21.3915 C   0  0  0  0  0  0  0  0  0  0  0  0
   11.7856    6.8851   19.2401 C   0  0  0  0  0  0  0  0  0  0  0  0
   10.5281    7.4276   19.5649 C   0  0  0  0  0  0  0  0  0  0  0  0
   10.0256    7.2907   20.8484 C   0  0  0  0  0  0  0  0  0  0  0  0
    9.3113    5.3049   14.4911 C   0  0  0  0  0  0  0  0  0  0  0  0
    9.4607    7.5646   16.0139 C   0  0  0  0  0  0  0  0  0  0  0  0
   10.4192    7.3157   15.0955 C   0  0  0  0  0  0  0  0  0  0  0  0
   10.2489    6.4227   23.0218 N   0  0  0  0  0  0  0  0  0  0  0  0
    7.2472    8.0746   23.5050 C   0  0  0  0  0  0  0  0  0  0  0  0
    9.2051    6.9101   23.4604 C   0  0  0  0  0  0  0  0  0  0  0  0
   11.9646    6.0299   21.4251 C   0  0  0  0  0  0  0  0  0  0  0  0
  1  5  1  0
  1 13  1  0
  2 20  2  0
  2 28  1  0
  2 29  1  0
  3 19  4  0
  3 25  4  0
  4 23  4  0
  4 27  1  0
  4 30  4  0
  5 17  1  0
  6  8  1  0
  6 29  1  0
  7 24  4  0
  7 26  4  0
  8 28  1  0
  9 13  2  0
 10 18  1  0
 10 21  4  0
 10 30  4  0
 11 17  2  0
 12 18  1  0
 13 15  1  0
 14 24  1  0
 15 25  1  0
 16 28  2  0
 17 20  1  0
 19 24  4  0
 20 23  1  0
 21 22  4  0
 22 23  4  0
 25 26  4  0
 27 29  2  0
M  END
$$$$

 Created by Python create_sdf_string function

 30 33  0  0  0  0  0  0  0  0999 V2000
    8.3036    9.8571   18.4133 C   0  0  0  0  0  0  0  0  0  0  0  0
    8.3694    7.6612   22.6703 C   0  0  0  0  0  0  0  0  0  0  0  0
    8.4143    6.6863   16.2273 C   0  0  0  0  0  0  0  0  0  0  0  0
   10.7581    6.5674   21.7636 C   0  0  0  0  0  0  0  0  0  0  0  0
    8.4452    8.7960   19.2958 O   0  0  0  0  0  0  0  0  0  0  0  0
    8.7122    6.7842   24.8569 C   0  0  0  0  0  0  0  0  0  0  0  0
   10.3400    6.1726   14.3081 C   0  0  0  0  0  0  0  0  0  0  0  0
    7.4297    7.5873   24.8962 C   0  0  0  0  0  0  0  0  0  0  0  0
    8.1566   10.0536   16.0516 O   0  0  0  0  0  0  0  0  0  0  0  0
   12.4989    6.2074   20.1776 C   0  0  0  0  0  0  0  0  0  0  0  0
    6.9192    9.1053   20.9073 O   0  0  0  0  0  0  0  0  0  0  0  0
   14.3979    6.0729   18.7784 C   0  0  0  0  0  0  0  0  0  0  0  0
    8.6811    9.5354   16.9998 C   0  0  0  0  0  0  0  0  0  0  0  0
    9.2512    4.2713   13.7653 O   0  0  0  0  0  0  0  0  0  0  0  0
    9.6495    8.6317   16.8332 N   0  0  0  0  0  0  0  0  0  0  0  0
    6.2934    8.6988   23.1988 O   0  0  0  0  0  0  0  0  0  0  0  0
    7.9806    8.6543   20.5437 C   0  0  0  0  0  0  0  0  0  0  0  0
   13.7270    5.7144   19.8610 O   0  0  0  0  0  0  0  0  0  0  0  0
    8.3351    5.5235   15.4478 C   0  0  0  0  0  0  0  0  0  0  0  0
    8.7700    7.8434   21.3915 C   0  0  0  0  0  0  0  0  0  0  0  0
   11.7856    6.8851   19.2401 C   0  0  0  0  0  0  0  0  0  0  0  0
   10.5281    7.4276   19.5649 C   0  0  0  0  0  0  0  0  0  0  0  0
   10.0256    7.2907   20.8484 C   0  0  0  0  0  0  0  0  0  0  0  0
    9.3113    5.3049   14.4911 C   0  0  0  0  0  0  0  0  0  0  0  0
    9.4607    7.5646   16.0139 C   0  0  0  0  0  0  0  0  0  0  0  0
   10.4192    7.3157   15.0955 C   0  0  0  0  0  0  0  0  0  0  0  0
   10.2489    6.4227   23.0218 N   0  0  0  0  0  0  0  0  0  0  0  0
    7.2472    8.0746   23.5050 C   0  0  0  0  0  0  0  0  0  0  0  0
    9.2051    6.9101   23.4604 C   0  0  0  0  0  0  0  0  0  0  0  0
   11.9646    6.0299   21.4251 C   0  0  0  0  0  0  0  0  0  0  0  0
  1  5  1  0
  1 13  1  0
  2 20  2  0
  2 28  1  0
  2 29  1  0
  3 19  4  0
  3 25  4  0
  4 23  4  0
  4 27  1  0
  4 30  4  0
  5 17  1  0
  6  8  1  0
  6 29  1  0
  7 24  4  0
  7 26  4  0
  8 28  1  0
  9 13  2  0
 10 18  1  0
 10 21  4  0
 10 30  4  0
 11 17  2  0
 12 18  1  0
 13 15  1  0
 14 24  1  0
 15 25  1  0
 16 28  2  0
 17 20  1  0
 19 24  4  0
 20 23  1  0
 21 22  4  0
 22 23  4  0
 25 26  4  0
 27 29  2  0
M  END
$$$$

 Created by Python create_sdf_string function

 30 33  0  0  0  0  0  0  0  0999 V2000
    8.3036    9.8571   18.4133 C   0  0  0  0  0  0  0  0  0  0  0  0
    8.3694    7.6612   22.6703 C   0  0  0  0  0  0  0  0  0  0  0  0
    8.4143    6.6863   16.2273 C   0  0  0  0  0  0  0  0  0  0  0  0
   10.7581    6.5674   21.7636 C   0  0  0  0  0  0  0  0  0  0  0  0
    8.4452    8.7960   19.2958 O   0  0  0  0  0  0  0  0  0  0  0  0
    8.7122    6.7842   24.8569 C   0  0  0  0  0  0  0  0  0  0  0  0
   10.3400    6.1726   14.3081 C   0  0  0  0  0  0  0  0  0  0  0  0
    7.4297    7.5873   24.8962 C   0  0  0  0  0  0  0  0  0  0  0  0
    8.1566   10.0536   16.0516 O   0  0  0  0  0  0  0  0  0  0  0  0
   12.4989    6.2074   20.1776 C   0  0  0  0  0  0  0  0  0  0  0  0
    6.9192    9.1053   20.9073 O   0  0  0  0  0  0  0  0  0  0  0  0
   14.3979    6.0729   18.7784 C   0  0  0  0  0  0  0  0  0  0  0  0
    8.6811    9.5354   16.9998 C   0  0  0  0  0  0  0  0  0  0  0  0
    9.2512    4.2713   13.7653 O   0  0  0  0  0  0  0  0  0  0  0  0
    9.6495    8.6317   16.8332 N   0  0  0  0  0  0  0  0  0  0  0  0
    6.2934    8.6988   23.1988 O   0  0  0  0  0  0  0  0  0  0  0  0
    7.9806    8.6543   20.5437 C   0  0  0  0  0  0  0  0  0  0  0  0
   13.7270    5.7144   19.8610 O   0  0  0  0  0  0  0  0  0  0  0  0
    8.3351    5.5235   15.4478 C   0  0  0  0  0  0  0  0  0  0  0  0
    8.7700    7.8434   21.3915 C   0  0  0  0  0  0  0  0  0  0  0  0
   11.7856    6.8851   19.2401 C   0  0  0  0  0  0  0  0  0  0  0  0
   10.5281    7.4276   19.5649 C   0  0  0  0  0  0  0  0  0  0  0  0
   10.0256    7.2907   20.8484 C   0  0  0  0  0  0  0  0  0  0  0  0
    9.3113    5.3049   14.4911 C   0  0  0  0  0  0  0  0  0  0  0  0
    9.4607    7.5646   16.0139 C   0  0  0  0  0  0  0  0  0  0  0  0
   10.4192    7.3157   15.0955 C   0  0  0  0  0  0  0  0  0  0  0  0
   10.2489    6.4227   23.0218 N   0  0  0  0  0  0  0  0  0  0  0  0
    7.2472    8.0746   23.5050 C   0  0  0  0  0  0  0  0  0  0  0  0
    9.2051    6.9101   23.4604 C   0  0  0  0  0  0  0  0  0  0  0  0
   11.9646    6.0299   21.4251 C   0  0  0  0  0  0  0  0  0  0  0  0
  1  5  1  0
  1 13  1  0
  2 20  2  0
  2 28  1  0
  2 29  1  0
  3 19  4  0
  3 25  4  0
  4 23  4  0
  4 27  1  0
  4 30  4  0
  5 17  1  0
  6  8  1  0
  6 29  1  0
  7 24  4  0
  7 26  4  0
  8 28  1  0
  9 13  2  0
 10 18  1  0
 10 21  4  0
 10 30  4  0
 11 17  2  0
 12 18  1  0
 13 15  1  0
 14 24  1  0
 15 25  1  0
 16 28  2  0
 17 20  1  0
 19 24  4  0
 20 23  1  0
 21 22  4  0
 22 23  4  0
 25 26  4  0
 27 29  2  0
M  END
$$$$

 Created by Python create_sdf_string function

 30 33  0  0  0  0  0  0  0  0999 V2000
    8.3036    9.8571   18.4133 C   0  0  0  0  0  0  0  0  0  0  0  0
    8.3694    7.6612   22.6703 C   0  0  0  0  0  0  0  0  0  0  0  0
    8.4143    6.6863   16.2273 C   0  0  0  0  0  0  0  0  0  0  0  0
   10.7581    6.5674   21.7636 C   0  0  0  0  0  0  0  0  0  0  0  0
    8.4452    8.7960   19.2958 O   0  0  0  0  0  0  0  0  0  0  0  0
    8.7122    6.7842   24.8569 C   0  0  0  0  0  0  0  0  0  0  0  0
   10.3400    6.1726   14.3081 C   0  0  0  0  0  0  0  0  0  0  0  0
    7.4297    7.5873   24.8962 C   0  0  0  0  0  0  0  0  0  0  0  0
    8.1566   10.0536   16.0516 O   0  0  0  0  0  0  0  0  0  0  0  0
   12.4989    6.2074   20.1776 C   0  0  0  0  0  0  0  0  0  0  0  0
    6.9192    9.1053   20.9073 O   0  0  0  0  0  0  0  0  0  0  0  0
   14.3979    6.0729   18.7784 C   0  0  0  0  0  0  0  0  0  0  0  0
    8.6811    9.5354   16.9998 C   0  0  0  0  0  0  0  0  0  0  0  0
    9.2512    4.2713   13.7653 O   0  0  0  0  0  0  0  0  0  0  0  0
    9.6495    8.6317   16.8332 N   0  0  0  0  0  0  0  0  0  0  0  0
    6.2934    8.6988   23.1988 O   0  0  0  0  0  0  0  0  0  0  0  0
    7.9806    8.6543   20.5437 C   0  0  0  0  0  0  0  0  0  0  0  0
   13.7270    5.7144   19.8610 O   0  0  0  0  0  0  0  0  0  0  0  0
    8.3351    5.5235   15.4478 C   0  0  0  0  0  0  0  0  0  0  0  0
    8.7700    7.8434   21.3915 C   0  0  0  0  0  0  0  0  0  0  0  0
   11.7856    6.8851   19.2401 C   0  0  0  0  0  0  0  0  0  0  0  0
   10.5281    7.4276   19.5649 C   0  0  0  0  0  0  0  0  0  0  0  0
   10.0256    7.2907   20.8484 C   0  0  0  0  0  0  0  0  0  0  0  0
    9.3113    5.3049   14.4911 C   0  0  0  0  0  0  0  0  0  0  0  0
    9.4607    7.5646   16.0139 C   0  0  0  0  0  0  0  0  0  0  0  0
   10.4192    7.3157   15.0955 C   0  0  0  0  0  0  0  0  0  0  0  0
   10.2489    6.4227   23.0218 N   0  0  0  0  0  0  0  0  0  0  0  0
    7.2472    8.0746   23.5050 C   0  0  0  0  0  0  0  0  0  0  0  0
    9.2051    6.9101   23.4604 C   0  0  0  0  0  0  0  0  0  0  0  0
   11.9646    6.0299   21.4251 C   0  0  0  0  0  0  0  0  0  0  0  0
  1  5  1  0
  1 13  1  0
  2 20  2  0
  2 28  1  0
  2 29  1  0
  3 19  4  0
  3 25  4  0
  4 23  4  0
  4 27  1  0
  4 30  4  0
  5 17  1  0
  6  8  1  0
  6 29  1  0
  7 24  4  0
  7 26  4  0
  8 28  1  0
  9 13  2  0
 10 18  1  0
 10 21  4  0
 10 30  4  0
 11 17  2  0
 12 18  1  0
 13 15  1  0
 14 24  1  0
 15 25  1  0
 16 28  2  0
 17 20  1  0
 19 24  4  0
 20 23  1  0
 21 22  4  0
 22 23  4  0
 25 26  4  0
 27 29  2  0
M  END
$$$$

 Created by Python create_sdf_string function

 30 33  0  0  0  0  0  0  0  0999 V2000
    8.3036    9.8571   18.4133 C   0  0  0  0  0  0  0  0  0  0  0  0
    8.3694    7.6612   22.6703 C   0  0  0  0  0  0  0  0  0  0  0  0
    8.4143    6.6863   16.2273 C   0  0  0  0  0  0  0  0  0  0  0  0
   10.7581    6.5674   21.7636 C   0  0  0  0  0  0  0  0  0  0  0  0
    8.4452    8.7960   19.2958 O   0  0  0  0  0  0  0  0  0  0  0  0
    8.7122    6.7842   24.8569 C   0  0  0  0  0  0  0  0  0  0  0  0
   10.3400    6.1726   14.3081 C   0  0  0  0  0  0  0  0  0  0  0  0
    7.4297    7.5873   24.8962 C   0  0  0  0  0  0  0  0  0  0  0  0
    8.1566   10.0536   16.0516 O   0  0  0  0  0  0  0  0  0  0  0  0
   12.4989    6.2074   20.1776 C   0  0  0  0  0  0  0  0  0  0  0  0
    6.9192    9.1053   20.9073 O   0  0  0  0  0  0  0  0  0  0  0  0
   14.3979    6.0729   18.7784 C   0  0  0  0  0  0  0  0  0  0  0  0
    8.6811    9.5354   16.9998 C   0  0  0  0  0  0  0  0  0  0  0  0
    9.2512    4.2713   13.7653 O   0  0  0  0  0  0  0  0  0  0  0  0
    9.6495    8.6317   16.8332 N   0  0  0  0  0  0  0  0  0  0  0  0
    6.2934    8.6988   23.1988 O   0  0  0  0  0  0  0  0  0  0  0  0
    7.9806    8.6543   20.5437 C   0  0  0  0  0  0  0  0  0  0  0  0
   13.7270    5.7144   19.8610 O   0  0  0  0  0  0  0  0  0  0  0  0
    8.3351    5.5235   15.4478 C   0  0  0  0  0  0  0  0  0  0  0  0
    8.7700    7.8434   21.3915 C   0  0  0  0  0  0  0  0  0  0  0  0
   11.7856    6.8851   19.2401 C   0  0  0  0  0  0  0  0  0  0  0  0
   10.5281    7.4276   19.5649 C   0  0  0  0  0  0  0  0  0  0  0  0
   10.0256    7.2907   20.8484 C   0  0  0  0  0  0  0  0  0  0  0  0
    9.3113    5.3049   14.4911 C   0  0  0  0  0  0  0  0  0  0  0  0
    9.4607    7.5646   16.0139 C   0  0  0  0  0  0  0  0  0  0  0  0
   10.4192    7.3157   15.0955 C   0  0  0  0  0  0  0  0  0  0  0  0
   10.2489    6.4227   23.0218 N   0  0  0  0  0  0  0  0  0  0  0  0
    7.2472    8.0746   23.5050 C   0  0  0  0  0  0  0  0  0  0  0  0
    9.2051    6.9101   23.4604 C   0  0  0  0  0  0  0  0  0  0  0  0
   11.9646    6.0299   21.4251 C   0  0  0  0  0  0  0  0  0  0  0  0
  1  5  1  0
  1 13  1  0
  2 20  2  0
  2 28  1  0
  2 29  1  0
  3 19  4  0
  3 25  4  0
  4 23  4  0
  4 27  1  0
  4 30  4  0
  5 17  1  0
  6  8  1  0
  6 29  1  0
  7 24  4  0
  7 26  4  0
  8 28  1  0
  9 13  2  0
 10 18  1  0
 10 21  4  0
 10 30  4  0
 11 17  2  0
 12 18  1  0
 13 15  1  0
 14 24  1  0
 15 25  1  0
 16 28  2  0
 17 20  1  0
 19 24  4  0
 20 23  1  0
 21 22  4  0
 22 23  4  0
 25 26  4  0
 27 29  2  0
M  END
$$$$

 Created by Python create_sdf_string function

 30 33  0  0  0  0  0  0  0  0999 V2000
    8.3036    9.8571   18.4133 C   0  0  0  0  0  0  0  0  0  0  0  0
    8.3694    7.6612   22.6703 C   0  0  0  0  0  0  0  0  0  0  0  0
    8.4143    6.6863   16.2273 C   0  0  0  0  0  0  0  0  0  0  0  0
   10.7581    6.5674   21.7636 C   0  0  0  0  0  0  0  0  0  0  0  0
    8.4452    8.7960   19.2958 O   0  0  0  0  0  0  0  0  0  0  0  0
    8.7122    6.7842   24.8569 C   0  0  0  0  0  0  0  0  0  0  0  0
   10.3400    6.1726   14.3081 C   0  0  0  0  0  0  0  0  0  0  0  0
    7.4297    7.5873   24.8962 C   0  0  0  0  0  0  0  0  0  0  0  0
    8.1566   10.0536   16.0516 O   0  0  0  0  0  0  0  0  0  0  0  0
   12.4989    6.2074   20.1776 C   0  0  0  0  0  0  0  0  0  0  0  0
    6.9192    9.1053   20.9073 O   0  0  0  0  0  0  0  0  0  0  0  0
   14.3979    6.0729   18.7784 C   0  0  0  0  0  0  0  0  0  0  0  0
    8.6811    9.5354   16.9998 C   0  0  0  0  0  0  0  0  0  0  0  0
    9.2512    4.2713   13.7653 O   0  0  0  0  0  0  0  0  0  0  0  0
    9.6495    8.6317   16.8332 N   0  0  0  0  0  0  0  0  0  0  0  0
    6.2934    8.6988   23.1988 O   0  0  0  0  0  0  0  0  0  0  0  0
    7.9806    8.6543   20.5437 C   0  0  0  0  0  0  0  0  0  0  0  0
   13.7270    5.7144   19.8610 O   0  0  0  0  0  0  0  0  0  0  0  0
    8.3351    5.5235   15.4478 C   0  0  0  0  0  0  0  0  0  0  0  0
    8.7700    7.8434   21.3915 C   0  0  0  0  0  0  0  0  0  0  0  0
   11.7856    6.8851   19.2401 C   0  0  0  0  0  0  0  0  0  0  0  0
   10.5281    7.4276   19.5649 C   0  0  0  0  0  0  0  0  0  0  0  0
   10.0256    7.2907   20.8484 C   0  0  0  0  0  0  0  0  0  0  0  0
    9.3113    5.3049   14.4911 C   0  0  0  0  0  0  0  0  0  0  0  0
    9.4607    7.5646   16.0139 C   0  0  0  0  0  0  0  0  0  0  0  0
   10.4192    7.3157   15.0955 C   0  0  0  0  0  0  0  0  0  0  0  0
   10.2489    6.4227   23.0218 N   0  0  0  0  0  0  0  0  0  0  0  0
    7.2472    8.0746   23.5050 C   0  0  0  0  0  0  0  0  0  0  0  0
    9.2051    6.9101   23.4604 C   0  0  0  0  0  0  0  0  0  0  0  0
   11.9646    6.0299   21.4251 C   0  0  0  0  0  0  0  0  0  0  0  0
  1  5  1  0
  1 13  1  0
  2 20  2  0
  2 28  1  0
  2 29  1  0
  3 19  4  0
  3 25  4  0
  4 23  4  0
  4 27  1  0
  4 30  4  0
  5 17  1  0
  6  8  1  0
  6 29  1  0
  7 24  4  0
  7 26  4  0
  8 28  1  0
  9 13  2  0
 10 18  1  0
 10 21  4  0
 10 30  4  0
 11 17  2  0
 12 18  1  0
 13 15  1  0
 14 24  1  0
 15 25  1  0
 16 28  2  0
 17 20  1  0
 19 24  4  0
 20 23  1  0
 21 22  4  0
 22 23  4  0
 25 26  4  0
 27 29  2  0
M  END
$$$$

 Created by Python create_sdf_string function

 30 33  0  0  0  0  0  0  0  0999 V2000
    8.3036    9.8571   18.4133 C   0  0  0  0  0  0  0  0  0  0  0  0
    8.3694    7.6612   22.6703 C   0  0  0  0  0  0  0  0  0  0  0  0
    8.4143    6.6863   16.2273 C   0  0  0  0  0  0  0  0  0  0  0  0
   10.7581    6.5674   21.7636 C   0  0  0  0  0  0  0  0  0  0  0  0
    8.4452    8.7960   19.2958 O   0  0  0  0  0  0  0  0  0  0  0  0
    8.7122    6.7842   24.8569 C   0  0  0  0  0  0  0  0  0  0  0  0
   10.3400    6.1726   14.3081 C   0  0  0  0  0  0  0  0  0  0  0  0
    7.4297    7.5873   24.8962 C   0  0  0  0  0  0  0  0  0  0  0  0
    8.1566   10.0536   16.0516 O   0  0  0  0  0  0  0  0  0  0  0  0
   12.4989    6.2074   20.1776 C   0  0  0  0  0  0  0  0  0  0  0  0
    6.9192    9.1053   20.9073 O   0  0  0  0  0  0  0  0  0  0  0  0
   14.3979    6.0729   18.7784 C   0  0  0  0  0  0  0  0  0  0  0  0
    8.6811    9.5354   16.9998 C   0  0  0  0  0  0  0  0  0  0  0  0
    9.2512    4.2713   13.7653 O   0  0  0  0  0  0  0  0  0  0  0  0
    9.6495    8.6317   16.8332 N   0  0  0  0  0  0  0  0  0  0  0  0
    6.2934    8.6988   23.1988 O   0  0  0  0  0  0  0  0  0  0  0  0
    7.9806    8.6543   20.5437 C   0  0  0  0  0  0  0  0  0  0  0  0
   13.7270    5.7144   19.8610 O   0  0  0  0  0  0  0  0  0  0  0  0
    8.3351    5.5235   15.4478 C   0  0  0  0  0  0  0  0  0  0  0  0
    8.7700    7.8434   21.3915 C   0  0  0  0  0  0  0  0  0  0  0  0
   11.7856    6.8851   19.2401 C   0  0  0  0  0  0  0  0  0  0  0  0
   10.5281    7.4276   19.5649 C   0  0  0  0  0  0  0  0  0  0  0  0
   10.0256    7.2907   20.8484 C   0  0  0  0  0  0  0  0  0  0  0  0
    9.3113    5.3049   14.4911 C   0  0  0  0  0  0  0  0  0  0  0  0
    9.4607    7.5646   16.0139 C   0  0  0  0  0  0  0  0  0  0  0  0
   10.4192    7.3157   15.0955 C   0  0  0  0  0  0  0  0  0  0  0  0
   10.2489    6.4227   23.0218 N   0  0  0  0  0  0  0  0  0  0  0  0
    7.2472    8.0746   23.5050 C   0  0  0  0  0  0  0  0  0  0  0  0
    9.2051    6.9101   23.4604 C   0  0  0  0  0  0  0  0  0  0  0  0
   11.9646    6.0299   21.4251 C   0  0  0  0  0  0  0  0  0  0  0  0
  1  5  1  0
  1 13  1  0
  2 20  2  0
  2 28  1  0
  2 29  1  0
  3 19  4  0
  3 25  4  0
  4 23  4  0
  4 27  1  0
  4 30  4  0
  5 17  1  0
  6  8  1  0
  6 29  1  0
  7 24  4  0
  7 26  4  0
  8 28  1  0
  9 13  2  0
 10 18  1  0
 10 21  4  0
 10 30  4  0
 11 17  2  0
 12 18  1  0
 13 15  1  0
 14 24  1  0
 15 25  1  0
 16 28  2  0
 17 20  1  0
 19 24  4  0
 20 23  1  0
 21 22  4  0
 22 23  4  0
 25 26  4  0
 27 29  2  0
M  END
$$$$

 Created by Python create_sdf_string function

 30 33  0  0  0  0  0  0  0  0999 V2000
    8.3036    9.8571   18.4133 C   0  0  0  0  0  0  0  0  0  0  0  0
    8.3694    7.6612   22.6703 C   0  0  0  0  0  0  0  0  0  0  0  0
    8.4143    6.6863   16.2273 C   0  0  0  0  0  0  0  0  0  0  0  0
   10.7581    6.5674   21.7636 C   0  0  0  0  0  0  0  0  0  0  0  0
    8.4452    8.7960   19.2958 O   0  0  0  0  0  0  0  0  0  0  0  0
    8.7122    6.7842   24.8569 C   0  0  0  0  0  0  0  0  0  0  0  0
   10.3400    6.1726   14.3081 C   0  0  0  0  0  0  0  0  0  0  0  0
    7.4297    7.5873   24.8962 C   0  0  0  0  0  0  0  0  0  0  0  0
    8.1566   10.0536   16.0516 O   0  0  0  0  0  0  0  0  0  0  0  0
   12.4989    6.2074   20.1776 C   0  0  0  0  0  0  0  0  0  0  0  0
    6.9192    9.1053   20.9073 O   0  0  0  0  0  0  0  0  0  0  0  0
   14.3979    6.0729   18.7784 C   0  0  0  0  0  0  0  0  0  0  0  0
    8.6811    9.5354   16.9998 C   0  0  0  0  0  0  0  0  0  0  0  0
    9.2512    4.2713   13.7653 O   0  0  0  0  0  0  0  0  0  0  0  0
    9.6495    8.6317   16.8332 N   0  0  0  0  0  0  0  0  0  0  0  0
    6.2934    8.6988   23.1988 O   0  0  0  0  0  0  0  0  0  0  0  0
    7.9806    8.6543   20.5437 C   0  0  0  0  0  0  0  0  0  0  0  0
   13.7270    5.7144   19.8610 O   0  0  0  0  0  0  0  0  0  0  0  0
    8.3351    5.5235   15.4478 C   0  0  0  0  0  0  0  0  0  0  0  0
    8.7700    7.8434   21.3915 C   0  0  0  0  0  0  0  0  0  0  0  0
   11.7856    6.8851   19.2401 C   0  0  0  0  0  0  0  0  0  0  0  0
   10.5281    7.4276   19.5649 C   0  0  0  0  0  0  0  0  0  0  0  0
   10.0256    7.2907   20.8484 C   0  0  0  0  0  0  0  0  0  0  0  0
    9.3113    5.3049   14.4911 C   0  0  0  0  0  0  0  0  0  0  0  0
    9.4607    7.5646   16.0139 C   0  0  0  0  0  0  0  0  0  0  0  0
   10.4192    7.3157   15.0955 C   0  0  0  0  0  0  0  0  0  0  0  0
   10.2489    6.4227   23.0218 N   0  0  0  0  0  0  0  0  0  0  0  0
    7.2472    8.0746   23.5050 C   0  0  0  0  0  0  0  0  0  0  0  0
    9.2051    6.9101   23.4604 C   0  0  0  0  0  0  0  0  0  0  0  0
   11.9646    6.0299   21.4251 C   0  0  0  0  0  0  0  0  0  0  0  0
  1  5  1  0
  1 13  1  0
  2 20  2  0
  2 28  1  0
  2 29  1  0
  3 19  4  0
  3 25  4  0
  4 23  4  0
  4 27  1  0
  4 30  4  0
  5 17  1  0
  6  8  1  0
  6 29  1  0
  7 24  4  0
  7 26  4  0
  8 28  1  0
  9 13  2  0
 10 18  1  0
 10 21  4  0
 10 30  4  0
 11 17  2  0
 12 18  1  0
 13 15  1  0
 14 24  1  0
 15 25  1  0
 16 28  2  0
 17 20  1  0
 19 24  4  0
 20 23  1  0
 21 22  4  0
 22 23  4  0
 25 26  4  0
 27 29  2  0
M  END
$$$$

 Created by Python create_sdf_string function

 30 33  0  0  0  0  0  0  0  0999 V2000
    8.3036    9.8571   18.4133 C   0  0  0  0  0  0  0  0  0  0  0  0
    8.3694    7.6612   22.6703 C   0  0  0  0  0  0  0  0  0  0  0  0
    8.4143    6.6863   16.2273 C   0  0  0  0  0  0  0  0  0  0  0  0
   10.7581    6.5674   21.7636 C   0  0  0  0  0  0  0  0  0  0  0  0
    8.4452    8.7960   19.2958 O   0  0  0  0  0  0  0  0  0  0  0  0
    8.7122    6.7842   24.8569 C   0  0  0  0  0  0  0  0  0  0  0  0
   10.3400    6.1726   14.3081 C   0  0  0  0  0  0  0  0  0  0  0  0
    7.4297    7.5873   24.8962 C   0  0  0  0  0  0  0  0  0  0  0  0
    8.1566   10.0536   16.0516 O   0  0  0  0  0  0  0  0  0  0  0  0
   12.4989    6.2074   20.1776 C   0  0  0  0  0  0  0  0  0  0  0  0
    6.9192    9.1053   20.9073 O   0  0  0  0  0  0  0  0  0  0  0  0
   14.3979    6.0729   18.7784 C   0  0  0  0  0  0  0  0  0  0  0  0
    8.6811    9.5354   16.9998 C   0  0  0  0  0  0  0  0  0  0  0  0
    9.2512    4.2713   13.7653 O   0  0  0  0  0  0  0  0  0  0  0  0
    9.6495    8.6317   16.8332 N   0  0  0  0  0  0  0  0  0  0  0  0
    6.2934    8.6988   23.1988 O   0  0  0  0  0  0  0  0  0  0  0  0
    7.9806    8.6543   20.5437 C   0  0  0  0  0  0  0  0  0  0  0  0
   13.7270    5.7144   19.8610 O   0  0  0  0  0  0  0  0  0  0  0  0
    8.3351    5.5235   15.4478 C   0  0  0  0  0  0  0  0  0  0  0  0
    8.7700    7.8434   21.3915 C   0  0  0  0  0  0  0  0  0  0  0  0
   11.7856    6.8851   19.2401 C   0  0  0  0  0  0  0  0  0  0  0  0
   10.5281    7.4276   19.5649 C   0  0  0  0  0  0  0  0  0  0  0  0
   10.0256    7.2907   20.8484 C   0  0  0  0  0  0  0  0  0  0  0  0
    9.3113    5.3049   14.4911 C   0  0  0  0  0  0  0  0  0  0  0  0
    9.4607    7.5646   16.0139 C   0  0  0  0  0  0  0  0  0  0  0  0
   10.4192    7.3157   15.0955 C   0  0  0  0  0  0  0  0  0  0  0  0
   10.2489    6.4227   23.0218 N   0  0  0  0  0  0  0  0  0  0  0  0
    7.2472    8.0746   23.5050 C   0  0  0  0  0  0  0  0  0  0  0  0
    9.2051    6.9101   23.4604 C   0  0  0  0  0  0  0  0  0  0  0  0
   11.9646    6.0299   21.4251 C   0  0  0  0  0  0  0  0  0  0  0  0
  1  5  1  0
  1 13  1  0
  2 20  2  0
  2 28  1  0
  2 29  1  0
  3 19  4  0
  3 25  4  0
  4 23  4  0
  4 27  1  0
  4 30  4  0
  5 17  1  0
  6  8  1  0
  6 29  1  0
  7 24  4  0
  7 26  4  0
  8 28  1  0
  9 13  2  0
 10 18  1  0
 10 21  4  0
 10 30  4  0
 11 17  2  0
 12 18  1  0
 13 15  1  0
 14 24  1  0
 15 25  1  0
 16 28  2  0
 17 20  1  0
 19 24  4  0
 20 23  1  0
 21 22  4  0
 22 23  4  0
 25 26  4  0
 27 29  2  0
M  END
$$$$

 Created by Python create_sdf_string function

 30 33  0  0  0  0  0  0  0  0999 V2000
    8.3036    9.8571   18.4133 C   0  0  0  0  0  0  0  0  0  0  0  0
    8.3694    7.6612   22.6703 C   0  0  0  0  0  0  0  0  0  0  0  0
    8.4143    6.6863   16.2273 C   0  0  0  0  0  0  0  0  0  0  0  0
   10.7581    6.5674   21.7636 C   0  0  0  0  0  0  0  0  0  0  0  0
    8.4452    8.7960   19.2958 O   0  0  0  0  0  0  0  0  0  0  0  0
    8.7122    6.7842   24.8569 C   0  0  0  0  0  0  0  0  0  0  0  0
   10.3400    6.1726   14.3081 C   0  0  0  0  0  0  0  0  0  0  0  0
    7.4297    7.5873   24.8962 C   0  0  0  0  0  0  0  0  0  0  0  0
    8.1566   10.0536   16.0516 O   0  0  0  0  0  0  0  0  0  0  0  0
   12.4989    6.2074   20.1776 C   0  0  0  0  0  0  0  0  0  0  0  0
    6.9192    9.1053   20.9073 O   0  0  0  0  0  0  0  0  0  0  0  0
   14.3979    6.0729   18.7784 C   0  0  0  0  0  0  0  0  0  0  0  0
    8.6811    9.5354   16.9998 C   0  0  0  0  0  0  0  0  0  0  0  0
    9.2512    4.2713   13.7653 O   0  0  0  0  0  0  0  0  0  0  0  0
    9.6495    8.6317   16.8332 N   0  0  0  0  0  0  0  0  0  0  0  0
    6.2934    8.6988   23.1988 O   0  0  0  0  0  0  0  0  0  0  0  0
    7.9806    8.6543   20.5437 C   0  0  0  0  0  0  0  0  0  0  0  0
   13.7270    5.7144   19.8610 O   0  0  0  0  0  0  0  0  0  0  0  0
    8.3351    5.5235   15.4478 C   0  0  0  0  0  0  0  0  0  0  0  0
    8.7700    7.8434   21.3915 C   0  0  0  0  0  0  0  0  0  0  0  0
   11.7856    6.8851   19.2401 C   0  0  0  0  0  0  0  0  0  0  0  0
   10.5281    7.4276   19.5649 C   0  0  0  0  0  0  0  0  0  0  0  0
   10.0256    7.2907   20.8484 C   0  0  0  0  0  0  0  0  0  0  0  0
    9.3113    5.3049   14.4911 C   0  0  0  0  0  0  0  0  0  0  0  0
    9.4607    7.5646   16.0139 C   0  0  0  0  0  0  0  0  0  0  0  0
   10.4192    7.3157   15.0955 C   0  0  0  0  0  0  0  0  0  0  0  0
   10.2489    6.4227   23.0218 N   0  0  0  0  0  0  0  0  0  0  0  0
    7.2472    8.0746   23.5050 C   0  0  0  0  0  0  0  0  0  0  0  0
    9.2051    6.9101   23.4604 C   0  0  0  0  0  0  0  0  0  0  0  0
   11.9646    6.0299   21.4251 C   0  0  0  0  0  0  0  0  0  0  0  0
  1  5  1  0
  1 13  1  0
  2 20  2  0
  2 28  1  0
  2 29  1  0
  3 19  4  0
  3 25  4  0
  4 23  4  0
  4 27  1  0
  4 30  4  0
  5 17  1  0
  6  8  1  0
  6 29  1  0
  7 24  4  0
  7 26  4  0
  8 28  1  0
  9 13  2  0
 10 18  1  0
 10 21  4  0
 10 30  4  0
 11 17  2  0
 12 18  1  0
 13 15  1  0
 14 24  1  0
 15 25  1  0
 16 28  2  0
 17 20  1  0
 19 24  4  0
 20 23  1  0
 21 22  4  0
 22 23  4  0
 25 26  4  0
 27 29  2  0
M  END
$$$$

 Created by Python create_sdf_string function

 30 33  0  0  0  0  0  0  0  0999 V2000
    8.3036    9.8571   18.4133 C   0  0  0  0  0  0  0  0  0  0  0  0
    8.3694    7.6612   22.6703 C   0  0  0  0  0  0  0  0  0  0  0  0
    8.4143    6.6863   16.2273 C   0  0  0  0  0  0  0  0  0  0  0  0
   10.7581    6.5674   21.7636 C   0  0  0  0  0  0  0  0  0  0  0  0
    8.4452    8.7960   19.2958 O   0  0  0  0  0  0  0  0  0  0  0  0
    8.7122    6.7842   24.8569 C   0  0  0  0  0  0  0  0  0  0  0  0
   10.3400    6.1726   14.3081 C   0  0  0  0  0  0  0  0  0  0  0  0
    7.4297    7.5873   24.8962 C   0  0  0  0  0  0  0  0  0  0  0  0
    8.1566   10.0536   16.0516 O   0  0  0  0  0  0  0  0  0  0  0  0
   12.4989    6.2074   20.1776 C   0  0  0  0  0  0  0  0  0  0  0  0
    6.9192    9.1053   20.9073 O   0  0  0  0  0  0  0  0  0  0  0  0
   14.3979    6.0729   18.7784 C   0  0  0  0  0  0  0  0  0  0  0  0
    8.6811    9.5354   16.9998 C   0  0  0  0  0  0  0  0  0  0  0  0
    9.2512    4.2713   13.7653 O   0  0  0  0  0  0  0  0  0  0  0  0
    9.6495    8.6317   16.8332 N   0  0  0  0  0  0  0  0  0  0  0  0
    6.2934    8.6988   23.1988 O   0  0  0  0  0  0  0  0  0  0  0  0
    7.9806    8.6543   20.5437 C   0  0  0  0  0  0  0  0  0  0  0  0
   13.7270    5.7144   19.8610 O   0  0  0  0  0  0  0  0  0  0  0  0
    8.3351    5.5235   15.4478 C   0  0  0  0  0  0  0  0  0  0  0  0
    8.7700    7.8434   21.3915 C   0  0  0  0  0  0  0  0  0  0  0  0
   11.7856    6.8851   19.2401 C   0  0  0  0  0  0  0  0  0  0  0  0
   10.5281    7.4276   19.5649 C   0  0  0  0  0  0  0  0  0  0  0  0
   10.0256    7.2907   20.8484 C   0  0  0  0  0  0  0  0  0  0  0  0
    9.3113    5.3049   14.4911 C   0  0  0  0  0  0  0  0  0  0  0  0
    9.4607    7.5646   16.0139 C   0  0  0  0  0  0  0  0  0  0  0  0
   10.4192    7.3157   15.0955 C   0  0  0  0  0  0  0  0  0  0  0  0
   10.2489    6.4227   23.0218 N   0  0  0  0  0  0  0  0  0  0  0  0
    7.2472    8.0746   23.5050 C   0  0  0  0  0  0  0  0  0  0  0  0
    9.2051    6.9101   23.4604 C   0  0  0  0  0  0  0  0  0  0  0  0
   11.9646    6.0299   21.4251 C   0  0  0  0  0  0  0  0  0  0  0  0
  1  5  1  0
  1 13  1  0
  2 20  2  0
  2 28  1  0
  2 29  1  0
  3 19  4  0
  3 25  4  0
  4 23  4  0
  4 27  1  0
  4 30  4  0
  5 17  1  0
  6  8  1  0
  6 29  1  0
  7 24  4  0
  7 26  4  0
  8 28  1  0
  9 13  2  0
 10 18  1  0
 10 21  4  0
 10 30  4  0
 11 17  2  0
 12 18  1  0
 13 15  1  0
 14 24  1  0
 15 25  1  0
 16 28  2  0
 17 20  1  0
 19 24  4  0
 20 23  1  0
 21 22  4  0
 22 23  4  0
 25 26  4  0
 27 29  2  0
M  END
$$$$

 Created by Python create_sdf_string function

 30 33  0  0  0  0  0  0  0  0999 V2000
    8.3036    9.8571   18.4133 C   0  0  0  0  0  0  0  0  0  0  0  0
    8.3694    7.6612   22.6703 C   0  0  0  0  0  0  0  0  0  0  0  0
    8.4143    6.6863   16.2273 C   0  0  0  0  0  0  0  0  0  0  0  0
   10.7581    6.5674   21.7636 C   0  0  0  0  0  0  0  0  0  0  0  0
    8.4452    8.7960   19.2958 O   0  0  0  0  0  0  0  0  0  0  0  0
    8.7122    6.7842   24.8569 C   0  0  0  0  0  0  0  0  0  0  0  0
   10.3400    6.1726   14.3081 C   0  0  0  0  0  0  0  0  0  0  0  0
    7.4297    7.5873   24.8962 C   0  0  0  0  0  0  0  0  0  0  0  0
    8.1566   10.0536   16.0516 O   0  0  0  0  0  0  0  0  0  0  0  0
   12.4989    6.2074   20.1776 C   0  0  0  0  0  0  0  0  0  0  0  0
    6.9192    9.1053   20.9073 O   0  0  0  0  0  0  0  0  0  0  0  0
   14.3979    6.0729   18.7784 C   0  0  0  0  0  0  0  0  0  0  0  0
    8.6811    9.5354   16.9998 C   0  0  0  0  0  0  0  0  0  0  0  0
    9.2512    4.2713   13.7653 O   0  0  0  0  0  0  0  0  0  0  0  0
    9.6495    8.6317   16.8332 N   0  0  0  0  0  0  0  0  0  0  0  0
    6.2934    8.6988   23.1988 O   0  0  0  0  0  0  0  0  0  0  0  0
    7.9806    8.6543   20.5437 C   0  0  0  0  0  0  0  0  0  0  0  0
   13.7270    5.7144   19.8610 O   0  0  0  0  0  0  0  0  0  0  0  0
    8.3351    5.5235   15.4478 C   0  0  0  0  0  0  0  0  0  0  0  0
    8.7700    7.8434   21.3915 C   0  0  0  0  0  0  0  0  0  0  0  0
   11.7856    6.8851   19.2401 C   0  0  0  0  0  0  0  0  0  0  0  0
   10.5281    7.4276   19.5649 C   0  0  0  0  0  0  0  0  0  0  0  0
   10.0256    7.2907   20.8484 C   0  0  0  0  0  0  0  0  0  0  0  0
    9.3113    5.3049   14.4911 C   0  0  0  0  0  0  0  0  0  0  0  0
    9.4607    7.5646   16.0139 C   0  0  0  0  0  0  0  0  0  0  0  0
   10.4192    7.3157   15.0955 C   0  0  0  0  0  0  0  0  0  0  0  0
   10.2489    6.4227   23.0218 N   0  0  0  0  0  0  0  0  0  0  0  0
    7.2472    8.0746   23.5050 C   0  0  0  0  0  0  0  0  0  0  0  0
    9.2051    6.9101   23.4604 C   0  0  0  0  0  0  0  0  0  0  0  0
   11.9646    6.0299   21.4251 C   0  0  0  0  0  0  0  0  0  0  0  0
  1  5  1  0
  1 13  1  0
  2 20  2  0
  2 28  1  0
  2 29  1  0
  3 19  4  0
  3 25  4  0
  4 23  4  0
  4 27  1  0
  4 30  4  0
  5 17  1  0
  6  8  1  0
  6 29  1  0
  7 24  4  0
  7 26  4  0
  8 28  1  0
  9 13  2  0
 10 18  1  0
 10 21  4  0
 10 30  4  0
 11 17  2  0
 12 18  1  0
 13 15  1  0
 14 24  1  0
 15 25  1  0
 16 28  2  0
 17 20  1  0
 19 24  4  0
 20 23  1  0
 21 22  4  0
 22 23  4  0
 25 26  4  0
 27 29  2  0
M  END
$$$$

 Created by Python create_sdf_string function

 30 33  0  0  0  0  0  0  0  0999 V2000
    8.3036    9.8571   18.4133 C   0  0  0  0  0  0  0  0  0  0  0  0
    8.3694    7.6612   22.6703 C   0  0  0  0  0  0  0  0  0  0  0  0
    8.4143    6.6863   16.2273 C   0  0  0  0  0  0  0  0  0  0  0  0
   10.7581    6.5674   21.7636 C   0  0  0  0  0  0  0  0  0  0  0  0
    8.4452    8.7960   19.2958 O   0  0  0  0  0  0  0  0  0  0  0  0
    8.7122    6.7842   24.8569 C   0  0  0  0  0  0  0  0  0  0  0  0
   10.3400    6.1726   14.3081 C   0  0  0  0  0  0  0  0  0  0  0  0
    7.4297    7.5873   24.8962 C   0  0  0  0  0  0  0  0  0  0  0  0
    8.1566   10.0536   16.0516 O   0  0  0  0  0  0  0  0  0  0  0  0
   12.4989    6.2074   20.1776 C   0  0  0  0  0  0  0  0  0  0  0  0
    6.9192    9.1053   20.9073 O   0  0  0  0  0  0  0  0  0  0  0  0
   14.3979    6.0729   18.7784 C   0  0  0  0  0  0  0  0  0  0  0  0
    8.6811    9.5354   16.9998 C   0  0  0  0  0  0  0  0  0  0  0  0
    9.2512    4.2713   13.7653 O   0  0  0  0  0  0  0  0  0  0  0  0
    9.6495    8.6317   16.8332 N   0  0  0  0  0  0  0  0  0  0  0  0
    6.2934    8.6988   23.1988 O   0  0  0  0  0  0  0  0  0  0  0  0
    7.9806    8.6543   20.5437 C   0  0  0  0  0  0  0  0  0  0  0  0
   13.7270    5.7144   19.8610 O   0  0  0  0  0  0  0  0  0  0  0  0
    8.3351    5.5235   15.4478 C   0  0  0  0  0  0  0  0  0  0  0  0
    8.7700    7.8434   21.3915 C   0  0  0  0  0  0  0  0  0  0  0  0
   11.7856    6.8851   19.2401 C   0  0  0  0  0  0  0  0  0  0  0  0
   10.5281    7.4276   19.5649 C   0  0  0  0  0  0  0  0  0  0  0  0
   10.0256    7.2907   20.8484 C   0  0  0  0  0  0  0  0  0  0  0  0
    9.3113    5.3049   14.4911 C   0  0  0  0  0  0  0  0  0  0  0  0
    9.4607    7.5646   16.0139 C   0  0  0  0  0  0  0  0  0  0  0  0
   10.4192    7.3157   15.0955 C   0  0  0  0  0  0  0  0  0  0  0  0
   10.2489    6.4227   23.0218 N   0  0  0  0  0  0  0  0  0  0  0  0
    7.2472    8.0746   23.5050 C   0  0  0  0  0  0  0  0  0  0  0  0
    9.2051    6.9101   23.4604 C   0  0  0  0  0  0  0  0  0  0  0  0
   11.9646    6.0299   21.4251 C   0  0  0  0  0  0  0  0  0  0  0  0
  1  5  1  0
  1 13  1  0
  2 20  2  0
  2 28  1  0
  2 29  1  0
  3 19  4  0
  3 25  4  0
  4 23  4  0
  4 27  1  0
  4 30  4  0
  5 17  1  0
  6  8  1  0
  6 29  1  0
  7 24  4  0
  7 26  4  0
  8 28  1  0
  9 13  2  0
 10 18  1  0
 10 21  4  0
 10 30  4  0
 11 17  2  0
 12 18  1  0
 13 15  1  0
 14 24  1  0
 15 25  1  0
 16 28  2  0
 17 20  1  0
 19 24  4  0
 20 23  1  0
 21 22  4  0
 22 23  4  0
 25 26  4  0
 27 29  2  0
M  END
$$$$

 Created by Python create_sdf_string function

 30 33  0  0  0  0  0  0  0  0999 V2000
    8.3036    9.8571   18.4133 C   0  0  0  0  0  0  0  0  0  0  0  0
    8.3694    7.6612   22.6703 C   0  0  0  0  0  0  0  0  0  0  0  0
    8.4143    6.6863   16.2273 C   0  0  0  0  0  0  0  0  0  0  0  0
   10.7581    6.5674   21.7636 C   0  0  0  0  0  0  0  0  0  0  0  0
    8.4452    8.7960   19.2958 O   0  0  0  0  0  0  0  0  0  0  0  0
    8.7122    6.7842   24.8569 C   0  0  0  0  0  0  0  0  0  0  0  0
   10.3400    6.1726   14.3081 C   0  0  0  0  0  0  0  0  0  0  0  0
    7.4297    7.5873   24.8962 C   0  0  0  0  0  0  0  0  0  0  0  0
    8.1566   10.0536   16.0516 O   0  0  0  0  0  0  0  0  0  0  0  0
   12.4989    6.2074   20.1776 C   0  0  0  0  0  0  0  0  0  0  0  0
    6.9192    9.1053   20.9073 O   0  0  0  0  0  0  0  0  0  0  0  0
   14.3979    6.0729   18.7784 C   0  0  0  0  0  0  0  0  0  0  0  0
    8.6811    9.5354   16.9998 C   0  0  0  0  0  0  0  0  0  0  0  0
    9.2512    4.2713   13.7653 O   0  0  0  0  0  0  0  0  0  0  0  0
    9.6495    8.6317   16.8332 N   0  0  0  0  0  0  0  0  0  0  0  0
    6.2934    8.6988   23.1988 O   0  0  0  0  0  0  0  0  0  0  0  0
    7.9806    8.6543   20.5437 C   0  0  0  0  0  0  0  0  0  0  0  0
   13.7270    5.7144   19.8610 O   0  0  0  0  0  0  0  0  0  0  0  0
    8.3351    5.5235   15.4478 C   0  0  0  0  0  0  0  0  0  0  0  0
    8.7700    7.8434   21.3915 C   0  0  0  0  0  0  0  0  0  0  0  0
   11.7856    6.8851   19.2401 C   0  0  0  0  0  0  0  0  0  0  0  0
   10.5281    7.4276   19.5649 C   0  0  0  0  0  0  0  0  0  0  0  0
   10.0256    7.2907   20.8484 C   0  0  0  0  0  0  0  0  0  0  0  0
    9.3113    5.3049   14.4911 C   0  0  0  0  0  0  0  0  0  0  0  0
    9.4607    7.5646   16.0139 C   0  0  0  0  0  0  0  0  0  0  0  0
   10.4192    7.3157   15.0955 C   0  0  0  0  0  0  0  0  0  0  0  0
   10.2489    6.4227   23.0218 N   0  0  0  0  0  0  0  0  0  0  0  0
    7.2472    8.0746   23.5050 C   0  0  0  0  0  0  0  0  0  0  0  0
    9.2051    6.9101   23.4604 C   0  0  0  0  0  0  0  0  0  0  0  0
   11.9646    6.0299   21.4251 C   0  0  0  0  0  0  0  0  0  0  0  0
  1  5  1  0
  1 13  1  0
  2 20  2  0
  2 28  1  0
  2 29  1  0
  3 19  4  0
  3 25  4  0
  4 23  4  0
  4 27  1  0
  4 30  4  0
  5 17  1  0
  6  8  1  0
  6 29  1  0
  7 24  4  0
  7 26  4  0
  8 28  1  0
  9 13  2  0
 10 18  1  0
 10 21  4  0
 10 30  4  0
 11 17  2  0
 12 18  1  0
 13 15  1  0
 14 24  1  0
 15 25  1  0
 16 28  2  0
 17 20  1  0
 19 24  4  0
 20 23  1  0
 21 22  4  0
 22 23  4  0
 25 26  4  0
 27 29  2  0
M  END
$$$$

 Created by Python create_sdf_string function

 30 33  0  0  0  0  0  0  0  0999 V2000
    8.3036    9.8571   18.4133 C   0  0  0  0  0  0  0  0  0  0  0  0
    8.3694    7.6612   22.6703 C   0  0  0  0  0  0  0  0  0  0  0  0
    8.4143    6.6863   16.2273 C   0  0  0  0  0  0  0  0  0  0  0  0
   10.7581    6.5674   21.7636 C   0  0  0  0  0  0  0  0  0  0  0  0
    8.4452    8.7960   19.2958 O   0  0  0  0  0  0  0  0  0  0  0  0
    8.7122    6.7842   24.8569 C   0  0  0  0  0  0  0  0  0  0  0  0
   10.3400    6.1726   14.3081 C   0  0  0  0  0  0  0  0  0  0  0  0
    7.4297    7.5873   24.8962 C   0  0  0  0  0  0  0  0  0  0  0  0
    8.1566   10.0536   16.0516 O   0  0  0  0  0  0  0  0  0  0  0  0
   12.4989    6.2074   20.1776 C   0  0  0  0  0  0  0  0  0  0  0  0
    6.9192    9.1053   20.9073 O   0  0  0  0  0  0  0  0  0  0  0  0
   14.3979    6.0729   18.7784 C   0  0  0  0  0  0  0  0  0  0  0  0
    8.6811    9.5354   16.9998 C   0  0  0  0  0  0  0  0  0  0  0  0
    9.2512    4.2713   13.7653 O   0  0  0  0  0  0  0  0  0  0  0  0
    9.6495    8.6317   16.8332 N   0  0  0  0  0  0  0  0  0  0  0  0
    6.2934    8.6988   23.1988 O   0  0  0  0  0  0  0  0  0  0  0  0
    7.9806    8.6543   20.5437 C   0  0  0  0  0  0  0  0  0  0  0  0
   13.7270    5.7144   19.8610 O   0  0  0  0  0  0  0  0  0  0  0  0
    8.3351    5.5235   15.4478 C   0  0  0  0  0  0  0  0  0  0  0  0
    8.7700    7.8434   21.3915 C   0  0  0  0  0  0  0  0  0  0  0  0
   11.7856    6.8851   19.2401 C   0  0  0  0  0  0  0  0  0  0  0  0
   10.5281    7.4276   19.5649 C   0  0  0  0  0  0  0  0  0  0  0  0
   10.0256    7.2907   20.8484 C   0  0  0  0  0  0  0  0  0  0  0  0
    9.3113    5.3049   14.4911 C   0  0  0  0  0  0  0  0  0  0  0  0
    9.4607    7.5646   16.0139 C   0  0  0  0  0  0  0  0  0  0  0  0
   10.4192    7.3157   15.0955 C   0  0  0  0  0  0  0  0  0  0  0  0
   10.2489    6.4227   23.0218 N   0  0  0  0  0  0  0  0  0  0  0  0
    7.2472    8.0746   23.5050 C   0  0  0  0  0  0  0  0  0  0  0  0
    9.2051    6.9101   23.4604 C   0  0  0  0  0  0  0  0  0  0  0  0
   11.9646    6.0299   21.4251 C   0  0  0  0  0  0  0  0  0  0  0  0
  1  5  1  0
  1 13  1  0
  2 20  2  0
  2 28  1  0
  2 29  1  0
  3 19  4  0
  3 25  4  0
  4 23  4  0
  4 27  1  0
  4 30  4  0
  5 17  1  0
  6  8  1  0
  6 29  1  0
  7 24  4  0
  7 26  4  0
  8 28  1  0
  9 13  2  0
 10 18  1  0
 10 21  4  0
 10 30  4  0
 11 17  2  0
 12 18  1  0
 13 15  1  0
 14 24  1  0
 15 25  1  0
 16 28  2  0
 17 20  1  0
 19 24  4  0
 20 23  1  0
 21 22  4  0
 22 23  4  0
 25 26  4  0
 27 29  2  0
M  END
$$$$

 Created by Python create_sdf_string function

 30 33  0  0  0  0  0  0  0  0999 V2000
    8.3036    9.8571   18.4133 C   0  0  0  0  0  0  0  0  0  0  0  0
    8.3694    7.6612   22.6703 C   0  0  0  0  0  0  0  0  0  0  0  0
    8.4143    6.6863   16.2273 C   0  0  0  0  0  0  0  0  0  0  0  0
   10.7581    6.5674   21.7636 C   0  0  0  0  0  0  0  0  0  0  0  0
    8.4452    8.7960   19.2958 O   0  0  0  0  0  0  0  0  0  0  0  0
    8.7122    6.7842   24.8569 C   0  0  0  0  0  0  0  0  0  0  0  0
   10.3400    6.1726   14.3081 C   0  0  0  0  0  0  0  0  0  0  0  0
    7.4297    7.5873   24.8962 C   0  0  0  0  0  0  0  0  0  0  0  0
    8.1566   10.0536   16.0516 O   0  0  0  0  0  0  0  0  0  0  0  0
   12.4989    6.2074   20.1776 C   0  0  0  0  0  0  0  0  0  0  0  0
    6.9192    9.1053   20.9073 O   0  0  0  0  0  0  0  0  0  0  0  0
   14.3979    6.0729   18.7784 C   0  0  0  0  0  0  0  0  0  0  0  0
    8.6811    9.5354   16.9998 C   0  0  0  0  0  0  0  0  0  0  0  0
    9.2512    4.2713   13.7653 O   0  0  0  0  0  0  0  0  0  0  0  0
    9.6495    8.6317   16.8332 N   0  0  0  0  0  0  0  0  0  0  0  0
    6.2934    8.6988   23.1988 O   0  0  0  0  0  0  0  0  0  0  0  0
    7.9806    8.6543   20.5437 C   0  0  0  0  0  0  0  0  0  0  0  0
   13.7270    5.7144   19.8610 O   0  0  0  0  0  0  0  0  0  0  0  0
    8.3351    5.5235   15.4478 C   0  0  0  0  0  0  0  0  0  0  0  0
    8.7700    7.8434   21.3915 C   0  0  0  0  0  0  0  0  0  0  0  0
   11.7856    6.8851   19.2401 C   0  0  0  0  0  0  0  0  0  0  0  0
   10.5281    7.4276   19.5649 C   0  0  0  0  0  0  0  0  0  0  0  0
   10.0256    7.2907   20.8484 C   0  0  0  0  0  0  0  0  0  0  0  0
    9.3113    5.3049   14.4911 C   0  0  0  0  0  0  0  0  0  0  0  0
    9.4607    7.5646   16.0139 C   0  0  0  0  0  0  0  0  0  0  0  0
   10.4192    7.3157   15.0955 C   0  0  0  0  0  0  0  0  0  0  0  0
   10.2489    6.4227   23.0218 N   0  0  0  0  0  0  0  0  0  0  0  0
    7.2472    8.0746   23.5050 C   0  0  0  0  0  0  0  0  0  0  0  0
    9.2051    6.9101   23.4604 C   0  0  0  0  0  0  0  0  0  0  0  0
   11.9646    6.0299   21.4251 C   0  0  0  0  0  0  0  0  0  0  0  0
  1  5  1  0
  1 13  1  0
  2 20  2  0
  2 28  1  0
  2 29  1  0
  3 19  4  0
  3 25  4  0
  4 23  4  0
  4 27  1  0
  4 30  4  0
  5 17  1  0
  6  8  1  0
  6 29  1  0
  7 24  4  0
  7 26  4  0
  8 28  1  0
  9 13  2  0
 10 18  1  0
 10 21  4  0
 10 30  4  0
 11 17  2  0
 12 18  1  0
 13 15  1  0
 14 24  1  0
 15 25  1  0
 16 28  2  0
 17 20  1  0
 19 24  4  0
 20 23  1  0
 21 22  4  0
 22 23  4  0
 25 26  4  0
 27 29  2  0
M  END
$$$$

 Created by Python create_sdf_string function

 30 33  0  0  0  0  0  0  0  0999 V2000
    8.3036    9.8571   18.4133 C   0  0  0  0  0  0  0  0  0  0  0  0
    8.3694    7.6612   22.6703 C   0  0  0  0  0  0  0  0  0  0  0  0
    8.4143    6.6863   16.2273 C   0  0  0  0  0  0  0  0  0  0  0  0
   10.7581    6.5674   21.7636 C   0  0  0  0  0  0  0  0  0  0  0  0
    8.4452    8.7960   19.2958 O   0  0  0  0  0  0  0  0  0  0  0  0
    8.7122    6.7842   24.8569 C   0  0  0  0  0  0  0  0  0  0  0  0
   10.3400    6.1726   14.3081 C   0  0  0  0  0  0  0  0  0  0  0  0
    7.4297    7.5873   24.8962 C   0  0  0  0  0  0  0  0  0  0  0  0
    8.1566   10.0536   16.0516 O   0  0  0  0  0  0  0  0  0  0  0  0
   12.4989    6.2074   20.1776 C   0  0  0  0  0  0  0  0  0  0  0  0
    6.9192    9.1053   20.9073 O   0  0  0  0  0  0  0  0  0  0  0  0
   14.3979    6.0729   18.7784 C   0  0  0  0  0  0  0  0  0  0  0  0
    8.6811    9.5354   16.9998 C   0  0  0  0  0  0  0  0  0  0  0  0
    9.2512    4.2713   13.7653 O   0  0  0  0  0  0  0  0  0  0  0  0
    9.6495    8.6317   16.8332 N   0  0  0  0  0  0  0  0  0  0  0  0
    6.2934    8.6988   23.1988 O   0  0  0  0  0  0  0  0  0  0  0  0
    7.9806    8.6543   20.5437 C   0  0  0  0  0  0  0  0  0  0  0  0
   13.7270    5.7144   19.8610 O   0  0  0  0  0  0  0  0  0  0  0  0
    8.3351    5.5235   15.4478 C   0  0  0  0  0  0  0  0  0  0  0  0
    8.7700    7.8434   21.3915 C   0  0  0  0  0  0  0  0  0  0  0  0
   11.7856    6.8851   19.2401 C   0  0  0  0  0  0  0  0  0  0  0  0
   10.5281    7.4276   19.5649 C   0  0  0  0  0  0  0  0  0  0  0  0
   10.0256    7.2907   20.8484 C   0  0  0  0  0  0  0  0  0  0  0  0
    9.3113    5.3049   14.4911 C   0  0  0  0  0  0  0  0  0  0  0  0
    9.4607    7.5646   16.0139 C   0  0  0  0  0  0  0  0  0  0  0  0
   10.4192    7.3157   15.0955 C   0  0  0  0  0  0  0  0  0  0  0  0
   10.2489    6.4227   23.0218 N   0  0  0  0  0  0  0  0  0  0  0  0
    7.2472    8.0746   23.5050 C   0  0  0  0  0  0  0  0  0  0  0  0
    9.2051    6.9101   23.4604 C   0  0  0  0  0  0  0  0  0  0  0  0
   11.9646    6.0299   21.4251 C   0  0  0  0  0  0  0  0  0  0  0  0
  1  5  1  0
  1 13  1  0
  2 20  2  0
  2 28  1  0
  2 29  1  0
  3 19  4  0
  3 25  4  0
  4 23  4  0
  4 27  1  0
  4 30  4  0
  5 17  1  0
  6  8  1  0
  6 29  1  0
  7 24  4  0
  7 26  4  0
  8 28  1  0
  9 13  2  0
 10 18  1  0
 10 21  4  0
 10 30  4  0
 11 17  2  0
 12 18  1  0
 13 15  1  0
 14 24  1  0
 15 25  1  0
 16 28  2  0
 17 20  1  0
 19 24  4  0
 20 23  1  0
 21 22  4  0
 22 23  4  0
 25 26  4  0
 27 29  2  0
M  END
$$$$

 Created by Python create_sdf_string function

 30 33  0  0  0  0  0  0  0  0999 V2000
    8.3036    9.8571   18.4133 C   0  0  0  0  0  0  0  0  0  0  0  0
    8.3694    7.6612   22.6703 C   0  0  0  0  0  0  0  0  0  0  0  0
    8.4143    6.6863   16.2273 C   0  0  0  0  0  0  0  0  0  0  0  0
   10.7581    6.5674   21.7636 C   0  0  0  0  0  0  0  0  0  0  0  0
    8.4452    8.7960   19.2958 O   0  0  0  0  0  0  0  0  0  0  0  0
    8.7122    6.7842   24.8569 C   0  0  0  0  0  0  0  0  0  0  0  0
   10.3400    6.1726   14.3081 C   0  0  0  0  0  0  0  0  0  0  0  0
    7.4297    7.5873   24.8962 C   0  0  0  0  0  0  0  0  0  0  0  0
    8.1566   10.0536   16.0516 O   0  0  0  0  0  0  0  0  0  0  0  0
   12.4989    6.2074   20.1776 C   0  0  0  0  0  0  0  0  0  0  0  0
    6.9192    9.1053   20.9073 O   0  0  0  0  0  0  0  0  0  0  0  0
   14.3979    6.0729   18.7784 C   0  0  0  0  0  0  0  0  0  0  0  0
    8.6811    9.5354   16.9998 C   0  0  0  0  0  0  0  0  0  0  0  0
    9.2512    4.2713   13.7653 O   0  0  0  0  0  0  0  0  0  0  0  0
    9.6495    8.6317   16.8332 N   0  0  0  0  0  0  0  0  0  0  0  0
    6.2934    8.6988   23.1988 O   0  0  0  0  0  0  0  0  0  0  0  0
    7.9806    8.6543   20.5437 C   0  0  0  0  0  0  0  0  0  0  0  0
   13.7270    5.7144   19.8610 O   0  0  0  0  0  0  0  0  0  0  0  0
    8.3351    5.5235   15.4478 C   0  0  0  0  0  0  0  0  0  0  0  0
    8.7700    7.8434   21.3915 C   0  0  0  0  0  0  0  0  0  0  0  0
   11.7856    6.8851   19.2401 C   0  0  0  0  0  0  0  0  0  0  0  0
   10.5281    7.4276   19.5649 C   0  0  0  0  0  0  0  0  0  0  0  0
   10.0256    7.2907   20.8484 C   0  0  0  0  0  0  0  0  0  0  0  0
    9.3113    5.3049   14.4911 C   0  0  0  0  0  0  0  0  0  0  0  0
    9.4607    7.5646   16.0139 C   0  0  0  0  0  0  0  0  0  0  0  0
   10.4192    7.3157   15.0955 C   0  0  0  0  0  0  0  0  0  0  0  0
   10.2489    6.4227   23.0218 N   0  0  0  0  0  0  0  0  0  0  0  0
    7.2472    8.0746   23.5050 C   0  0  0  0  0  0  0  0  0  0  0  0
    9.2051    6.9101   23.4604 C   0  0  0  0  0  0  0  0  0  0  0  0
   11.9646    6.0299   21.4251 C   0  0  0  0  0  0  0  0  0  0  0  0
  1  5  1  0
  1 13  1  0
  2 20  2  0
  2 28  1  0
  2 29  1  0
  3 19  4  0
  3 25  4  0
  4 23  4  0
  4 27  1  0
  4 30  4  0
  5 17  1  0
  6  8  1  0
  6 29  1  0
  7 24  4  0
  7 26  4  0
  8 28  1  0
  9 13  2  0
 10 18  1  0
 10 21  4  0
 10 30  4  0
 11 17  2  0
 12 18  1  0
 13 15  1  0
 14 24  1  0
 15 25  1  0
 16 28  2  0
 17 20  1  0
 19 24  4  0
 20 23  1  0
 21 22  4  0
 22 23  4  0
 25 26  4  0
 27 29  2  0
M  END
$$$$

 Created by Python create_sdf_string function

 30 33  0  0  0  0  0  0  0  0999 V2000
    8.3036    9.8571   18.4133 C   0  0  0  0  0  0  0  0  0  0  0  0
    8.3694    7.6612   22.6703 C   0  0  0  0  0  0  0  0  0  0  0  0
    8.4143    6.6863   16.2273 C   0  0  0  0  0  0  0  0  0  0  0  0
   10.7581    6.5674   21.7636 C   0  0  0  0  0  0  0  0  0  0  0  0
    8.4452    8.7960   19.2958 O   0  0  0  0  0  0  0  0  0  0  0  0
    8.7122    6.7842   24.8569 C   0  0  0  0  0  0  0  0  0  0  0  0
   10.3400    6.1726   14.3081 C   0  0  0  0  0  0  0  0  0  0  0  0
    7.4297    7.5873   24.8962 C   0  0  0  0  0  0  0  0  0  0  0  0
    8.1566   10.0536   16.0516 O   0  0  0  0  0  0  0  0  0  0  0  0
   12.4989    6.2074   20.1776 C   0  0  0  0  0  0  0  0  0  0  0  0
    6.9192    9.1053   20.9073 O   0  0  0  0  0  0  0  0  0  0  0  0
   14.3979    6.0729   18.7784 C   0  0  0  0  0  0  0  0  0  0  0  0
    8.6811    9.5354   16.9998 C   0  0  0  0  0  0  0  0  0  0  0  0
    9.2512    4.2713   13.7653 O   0  0  0  0  0  0  0  0  0  0  0  0
    9.6495    8.6317   16.8332 N   0  0  0  0  0  0  0  0  0  0  0  0
    6.2934    8.6988   23.1988 O   0  0  0  0  0  0  0  0  0  0  0  0
    7.9806    8.6543   20.5437 C   0  0  0  0  0  0  0  0  0  0  0  0
   13.7270    5.7144   19.8610 O   0  0  0  0  0  0  0  0  0  0  0  0
    8.3351    5.5235   15.4478 C   0  0  0  0  0  0  0  0  0  0  0  0
    8.7700    7.8434   21.3915 C   0  0  0  0  0  0  0  0  0  0  0  0
   11.7856    6.8851   19.2401 C   0  0  0  0  0  0  0  0  0  0  0  0
   10.5281    7.4276   19.5649 C   0  0  0  0  0  0  0  0  0  0  0  0
   10.0256    7.2907   20.8484 C   0  0  0  0  0  0  0  0  0  0  0  0
    9.3113    5.3049   14.4911 C   0  0  0  0  0  0  0  0  0  0  0  0
    9.4607    7.5646   16.0139 C   0  0  0  0  0  0  0  0  0  0  0  0
   10.4192    7.3157   15.0955 C   0  0  0  0  0  0  0  0  0  0  0  0
   10.2489    6.4227   23.0218 N   0  0  0  0  0  0  0  0  0  0  0  0
    7.2472    8.0746   23.5050 C   0  0  0  0  0  0  0  0  0  0  0  0
    9.2051    6.9101   23.4604 C   0  0  0  0  0  0  0  0  0  0  0  0
   11.9646    6.0299   21.4251 C   0  0  0  0  0  0  0  0  0  0  0  0
  1  5  1  0
  1 13  1  0
  2 20  2  0
  2 28  1  0
  2 29  1  0
  3 19  4  0
  3 25  4  0
  4 23  4  0
  4 27  1  0
  4 30  4  0
  5 17  1  0
  6  8  1  0
  6 29  1  0
  7 24  4  0
  7 26  4  0
  8 28  1  0
  9 13  2  0
 10 18  1  0
 10 21  4  0
 10 30  4  0
 11 17  2  0
 12 18  1  0
 13 15  1  0
 14 24  1  0
 15 25  1  0
 16 28  2  0
 17 20  1  0
 19 24  4  0
 20 23  1  0
 21 22  4  0
 22 23  4  0
 25 26  4  0
 27 29  2  0
M  END
$$$$

 Created by Python create_sdf_string function

 30 33  0  0  0  0  0  0  0  0999 V2000
    8.3036    9.8571   18.4133 C   0  0  0  0  0  0  0  0  0  0  0  0
    8.3694    7.6612   22.6703 C   0  0  0  0  0  0  0  0  0  0  0  0
    8.4143    6.6863   16.2273 C   0  0  0  0  0  0  0  0  0  0  0  0
   10.7581    6.5674   21.7636 C   0  0  0  0  0  0  0  0  0  0  0  0
    8.4452    8.7960   19.2958 O   0  0  0  0  0  0  0  0  0  0  0  0
    8.7122    6.7842   24.8569 C   0  0  0  0  0  0  0  0  0  0  0  0
   10.3400    6.1726   14.3081 C   0  0  0  0  0  0  0  0  0  0  0  0
    7.4297    7.5873   24.8962 C   0  0  0  0  0  0  0  0  0  0  0  0
    8.1566   10.0536   16.0516 O   0  0  0  0  0  0  0  0  0  0  0  0
   12.4989    6.2074   20.1776 C   0  0  0  0  0  0  0  0  0  0  0  0
    6.9192    9.1053   20.9073 O   0  0  0  0  0  0  0  0  0  0  0  0
   14.3979    6.0729   18.7784 C   0  0  0  0  0  0  0  0  0  0  0  0
    8.6811    9.5354   16.9998 C   0  0  0  0  0  0  0  0  0  0  0  0
    9.2512    4.2713   13.7653 O   0  0  0  0  0  0  0  0  0  0  0  0
    9.6495    8.6317   16.8332 N   0  0  0  0  0  0  0  0  0  0  0  0
    6.2934    8.6988   23.1988 O   0  0  0  0  0  0  0  0  0  0  0  0
    7.9806    8.6543   20.5437 C   0  0  0  0  0  0  0  0  0  0  0  0
   13.7270    5.7144   19.8610 O   0  0  0  0  0  0  0  0  0  0  0  0
    8.3351    5.5235   15.4478 C   0  0  0  0  0  0  0  0  0  0  0  0
    8.7700    7.8434   21.3915 C   0  0  0  0  0  0  0  0  0  0  0  0
   11.7856    6.8851   19.2401 C   0  0  0  0  0  0  0  0  0  0  0  0
   10.5281    7.4276   19.5649 C   0  0  0  0  0  0  0  0  0  0  0  0
   10.0256    7.2907   20.8484 C   0  0  0  0  0  0  0  0  0  0  0  0
    9.3113    5.3049   14.4911 C   0  0  0  0  0  0  0  0  0  0  0  0
    9.4607    7.5646   16.0139 C   0  0  0  0  0  0  0  0  0  0  0  0
   10.4192    7.3157   15.0955 C   0  0  0  0  0  0  0  0  0  0  0  0
   10.2489    6.4227   23.0218 N   0  0  0  0  0  0  0  0  0  0  0  0
    7.2472    8.0746   23.5050 C   0  0  0  0  0  0  0  0  0  0  0  0
    9.2051    6.9101   23.4604 C   0  0  0  0  0  0  0  0  0  0  0  0
   11.9646    6.0299   21.4251 C   0  0  0  0  0  0  0  0  0  0  0  0
  1  5  1  0
  1 13  1  0
  2 20  2  0
  2 28  1  0
  2 29  1  0
  3 19  4  0
  3 25  4  0
  4 23  4  0
  4 27  1  0
  4 30  4  0
  5 17  1  0
  6  8  1  0
  6 29  1  0
  7 24  4  0
  7 26  4  0
  8 28  1  0
  9 13  2  0
 10 18  1  0
 10 21  4  0
 10 30  4  0
 11 17  2  0
 12 18  1  0
 13 15  1  0
 14 24  1  0
 15 25  1  0
 16 28  2  0
 17 20  1  0
 19 24  4  0
 20 23  1  0
 21 22  4  0
 22 23  4  0
 25 26  4  0
 27 29  2  0
M  END
$$$$

 Created by Python create_sdf_string function

 30 33  0  0  0  0  0  0  0  0999 V2000
    8.3036    9.8571   18.4133 C   0  0  0  0  0  0  0  0  0  0  0  0
    8.3694    7.6612   22.6703 C   0  0  0  0  0  0  0  0  0  0  0  0
    8.4143    6.6863   16.2273 C   0  0  0  0  0  0  0  0  0  0  0  0
   10.7581    6.5674   21.7636 C   0  0  0  0  0  0  0  0  0  0  0  0
    8.4452    8.7960   19.2958 O   0  0  0  0  0  0  0  0  0  0  0  0
    8.7122    6.7842   24.8569 C   0  0  0  0  0  0  0  0  0  0  0  0
   10.3400    6.1726   14.3081 C   0  0  0  0  0  0  0  0  0  0  0  0
    7.4297    7.5873   24.8962 C   0  0  0  0  0  0  0  0  0  0  0  0
    8.1566   10.0536   16.0516 O   0  0  0  0  0  0  0  0  0  0  0  0
   12.4989    6.2074   20.1776 C   0  0  0  0  0  0  0  0  0  0  0  0
    6.9192    9.1053   20.9073 O   0  0  0  0  0  0  0  0  0  0  0  0
   14.3979    6.0729   18.7784 C   0  0  0  0  0  0  0  0  0  0  0  0
    8.6811    9.5354   16.9998 C   0  0  0  0  0  0  0  0  0  0  0  0
    9.2512    4.2713   13.7653 O   0  0  0  0  0  0  0  0  0  0  0  0
    9.6495    8.6317   16.8332 N   0  0  0  0  0  0  0  0  0  0  0  0
    6.2934    8.6988   23.1988 O   0  0  0  0  0  0  0  0  0  0  0  0
    7.9806    8.6543   20.5437 C   0  0  0  0  0  0  0  0  0  0  0  0
   13.7270    5.7144   19.8610 O   0  0  0  0  0  0  0  0  0  0  0  0
    8.3351    5.5235   15.4478 C   0  0  0  0  0  0  0  0  0  0  0  0
    8.7700    7.8434   21.3915 C   0  0  0  0  0  0  0  0  0  0  0  0
   11.7856    6.8851   19.2401 C   0  0  0  0  0  0  0  0  0  0  0  0
   10.5281    7.4276   19.5649 C   0  0  0  0  0  0  0  0  0  0  0  0
   10.0256    7.2907   20.8484 C   0  0  0  0  0  0  0  0  0  0  0  0
    9.3113    5.3049   14.4911 C   0  0  0  0  0  0  0  0  0  0  0  0
    9.4607    7.5646   16.0139 C   0  0  0  0  0  0  0  0  0  0  0  0
   10.4192    7.3157   15.0955 C   0  0  0  0  0  0  0  0  0  0  0  0
   10.2489    6.4227   23.0218 N   0  0  0  0  0  0  0  0  0  0  0  0
    7.2472    8.0746   23.5050 C   0  0  0  0  0  0  0  0  0  0  0  0
    9.2051    6.9101   23.4604 C   0  0  0  0  0  0  0  0  0  0  0  0
   11.9646    6.0299   21.4251 C   0  0  0  0  0  0  0  0  0  0  0  0
  1  5  1  0
  1 13  1  0
  2 20  2  0
  2 28  1  0
  2 29  1  0
  3 19  4  0
  3 25  4  0
  4 23  4  0
  4 27  1  0
  4 30  4  0
  5 17  1  0
  6  8  1  0
  6 29  1  0
  7 24  4  0
  7 26  4  0
  8 28  1  0
  9 13  2  0
 10 18  1  0
 10 21  4  0
 10 30  4  0
 11 17  2  0
 12 18  1  0
 13 15  1  0
 14 24  1  0
 15 25  1  0
 16 28  2  0
 17 20  1  0
 19 24  4  0
 20 23  1  0
 21 22  4  0
 22 23  4  0
 25 26  4  0
 27 29  2  0
M  END
$$$$

 Created by Python create_sdf_string function

 30 33  0  0  0  0  0  0  0  0999 V2000
    8.3036    9.8571   18.4133 C   0  0  0  0  0  0  0  0  0  0  0  0
    8.3694    7.6612   22.6703 C   0  0  0  0  0  0  0  0  0  0  0  0
    8.4143    6.6863   16.2273 C   0  0  0  0  0  0  0  0  0  0  0  0
   10.7581    6.5674   21.7636 C   0  0  0  0  0  0  0  0  0  0  0  0
    8.4452    8.7960   19.2958 O   0  0  0  0  0  0  0  0  0  0  0  0
    8.7122    6.7842   24.8569 C   0  0  0  0  0  0  0  0  0  0  0  0
   10.3400    6.1726   14.3081 C   0  0  0  0  0  0  0  0  0  0  0  0
    7.4297    7.5873   24.8962 C   0  0  0  0  0  0  0  0  0  0  0  0
    8.1566   10.0536   16.0516 O   0  0  0  0  0  0  0  0  0  0  0  0
   12.4989    6.2074   20.1776 C   0  0  0  0  0  0  0  0  0  0  0  0
    6.9192    9.1053   20.9073 O   0  0  0  0  0  0  0  0  0  0  0  0
   14.3979    6.0729   18.7784 C   0  0  0  0  0  0  0  0  0  0  0  0
    8.6811    9.5354   16.9998 C   0  0  0  0  0  0  0  0  0  0  0  0
    9.2512    4.2713   13.7653 O   0  0  0  0  0  0  0  0  0  0  0  0
    9.6495    8.6317   16.8332 N   0  0  0  0  0  0  0  0  0  0  0  0
    6.2934    8.6988   23.1988 O   0  0  0  0  0  0  0  0  0  0  0  0
    7.9806    8.6543   20.5437 C   0  0  0  0  0  0  0  0  0  0  0  0
   13.7270    5.7144   19.8610 O   0  0  0  0  0  0  0  0  0  0  0  0
    8.3351    5.5235   15.4478 C   0  0  0  0  0  0  0  0  0  0  0  0
    8.7700    7.8434   21.3915 C   0  0  0  0  0  0  0  0  0  0  0  0
   11.7856    6.8851   19.2401 C   0  0  0  0  0  0  0  0  0  0  0  0
   10.5281    7.4276   19.5649 C   0  0  0  0  0  0  0  0  0  0  0  0
   10.0256    7.2907   20.8484 C   0  0  0  0  0  0  0  0  0  0  0  0
    9.3113    5.3049   14.4911 C   0  0  0  0  0  0  0  0  0  0  0  0
    9.4607    7.5646   16.0139 C   0  0  0  0  0  0  0  0  0  0  0  0
   10.4192    7.3157   15.0955 C   0  0  0  0  0  0  0  0  0  0  0  0
   10.2489    6.4227   23.0218 N   0  0  0  0  0  0  0  0  0  0  0  0
    7.2472    8.0746   23.5050 C   0  0  0  0  0  0  0  0  0  0  0  0
    9.2051    6.9101   23.4604 C   0  0  0  0  0  0  0  0  0  0  0  0
   11.9646    6.0299   21.4251 C   0  0  0  0  0  0  0  0  0  0  0  0
  1  5  1  0
  1 13  1  0
  2 20  2  0
  2 28  1  0
  2 29  1  0
  3 19  4  0
  3 25  4  0
  4 23  4  0
  4 27  1  0
  4 30  4  0
  5 17  1  0
  6  8  1  0
  6 29  1  0
  7 24  4  0
  7 26  4  0
  8 28  1  0
  9 13  2  0
 10 18  1  0
 10 21  4  0
 10 30  4  0
 11 17  2  0
 12 18  1  0
 13 15  1  0
 14 24  1  0
 15 25  1  0
 16 28  2  0
 17 20  1  0
 19 24  4  0
 20 23  1  0
 21 22  4  0
 22 23  4  0
 25 26  4  0
 27 29  2  0
M  END
$$$$

 Created by Python create_sdf_string function

 30 33  0  0  0  0  0  0  0  0999 V2000
    8.3036    9.8571   18.4133 C   0  0  0  0  0  0  0  0  0  0  0  0
    8.3694    7.6612   22.6703 C   0  0  0  0  0  0  0  0  0  0  0  0
    8.4143    6.6863   16.2273 C   0  0  0  0  0  0  0  0  0  0  0  0
   10.7581    6.5674   21.7636 C   0  0  0  0  0  0  0  0  0  0  0  0
    8.4452    8.7960   19.2958 O   0  0  0  0  0  0  0  0  0  0  0  0
    8.7122    6.7842   24.8569 C   0  0  0  0  0  0  0  0  0  0  0  0
   10.3400    6.1726   14.3081 C   0  0  0  0  0  0  0  0  0  0  0  0
    7.4297    7.5873   24.8962 C   0  0  0  0  0  0  0  0  0  0  0  0
    8.1566   10.0536   16.0516 O   0  0  0  0  0  0  0  0  0  0  0  0
   12.4989    6.2074   20.1776 C   0  0  0  0  0  0  0  0  0  0  0  0
    6.9192    9.1053   20.9073 O   0  0  0  0  0  0  0  0  0  0  0  0
   14.3979    6.0729   18.7784 C   0  0  0  0  0  0  0  0  0  0  0  0
    8.6811    9.5354   16.9998 C   0  0  0  0  0  0  0  0  0  0  0  0
    9.2512    4.2713   13.7653 O   0  0  0  0  0  0  0  0  0  0  0  0
    9.6495    8.6317   16.8332 N   0  0  0  0  0  0  0  0  0  0  0  0
    6.2934    8.6988   23.1988 O   0  0  0  0  0  0  0  0  0  0  0  0
    7.9806    8.6543   20.5437 C   0  0  0  0  0  0  0  0  0  0  0  0
   13.7270    5.7144   19.8610 O   0  0  0  0  0  0  0  0  0  0  0  0
    8.3351    5.5235   15.4478 C   0  0  0  0  0  0  0  0  0  0  0  0
    8.7700    7.8434   21.3915 C   0  0  0  0  0  0  0  0  0  0  0  0
   11.7856    6.8851   19.2401 C   0  0  0  0  0  0  0  0  0  0  0  0
   10.5281    7.4276   19.5649 C   0  0  0  0  0  0  0  0  0  0  0  0
   10.0256    7.2907   20.8484 C   0  0  0  0  0  0  0  0  0  0  0  0
    9.3113    5.3049   14.4911 C   0  0  0  0  0  0  0  0  0  0  0  0
    9.4607    7.5646   16.0139 C   0  0  0  0  0  0  0  0  0  0  0  0
   10.4192    7.3157   15.0955 C   0  0  0  0  0  0  0  0  0  0  0  0
   10.2489    6.4227   23.0218 N   0  0  0  0  0  0  0  0  0  0  0  0
    7.2472    8.0746   23.5050 C   0  0  0  0  0  0  0  0  0  0  0  0
    9.2051    6.9101   23.4604 C   0  0  0  0  0  0  0  0  0  0  0  0
   11.9646    6.0299   21.4251 C   0  0  0  0  0  0  0  0  0  0  0  0
  1  5  1  0
  1 13  1  0
  2 20  2  0
  2 28  1  0
  2 29  1  0
  3 19  4  0
  3 25  4  0
  4 23  4  0
  4 27  1  0
  4 30  4  0
  5 17  1  0
  6  8  1  0
  6 29  1  0
  7 24  4  0
  7 26  4  0
  8 28  1  0
  9 13  2  0
 10 18  1  0
 10 21  4  0
 10 30  4  0
 11 17  2  0
 12 18  1  0
 13 15  1  0
 14 24  1  0
 15 25  1  0
 16 28  2  0
 17 20  1  0
 19 24  4  0
 20 23  1  0
 21 22  4  0
 22 23  4  0
 25 26  4  0
 27 29  2  0
M  END
$$$$

 Created by Python create_sdf_string function

 30 33  0  0  0  0  0  0  0  0999 V2000
    8.3036    9.8571   18.4133 C   0  0  0  0  0  0  0  0  0  0  0  0
    8.3694    7.6612   22.6703 C   0  0  0  0  0  0  0  0  0  0  0  0
    8.4143    6.6863   16.2273 C   0  0  0  0  0  0  0  0  0  0  0  0
   10.7581    6.5674   21.7636 C   0  0  0  0  0  0  0  0  0  0  0  0
    8.4452    8.7960   19.2958 O   0  0  0  0  0  0  0  0  0  0  0  0
    8.7122    6.7842   24.8569 C   0  0  0  0  0  0  0  0  0  0  0  0
   10.3400    6.1726   14.3081 C   0  0  0  0  0  0  0  0  0  0  0  0
    7.4297    7.5873   24.8962 C   0  0  0  0  0  0  0  0  0  0  0  0
    8.1566   10.0536   16.0516 O   0  0  0  0  0  0  0  0  0  0  0  0
   12.4989    6.2074   20.1776 C   0  0  0  0  0  0  0  0  0  0  0  0
    6.9192    9.1053   20.9073 O   0  0  0  0  0  0  0  0  0  0  0  0
   14.3979    6.0729   18.7784 C   0  0  0  0  0  0  0  0  0  0  0  0
    8.6811    9.5354   16.9998 C   0  0  0  0  0  0  0  0  0  0  0  0
    9.2512    4.2713   13.7653 O   0  0  0  0  0  0  0  0  0  0  0  0
    9.6495    8.6317   16.8332 N   0  0  0  0  0  0  0  0  0  0  0  0
    6.2934    8.6988   23.1988 O   0  0  0  0  0  0  0  0  0  0  0  0
    7.9806    8.6543   20.5437 C   0  0  0  0  0  0  0  0  0  0  0  0
   13.7270    5.7144   19.8610 O   0  0  0  0  0  0  0  0  0  0  0  0
    8.3351    5.5235   15.4478 C   0  0  0  0  0  0  0  0  0  0  0  0
    8.7700    7.8434   21.3915 C   0  0  0  0  0  0  0  0  0  0  0  0
   11.7856    6.8851   19.2401 C   0  0  0  0  0  0  0  0  0  0  0  0
   10.5281    7.4276   19.5649 C   0  0  0  0  0  0  0  0  0  0  0  0
   10.0256    7.2907   20.8484 C   0  0  0  0  0  0  0  0  0  0  0  0
    9.3113    5.3049   14.4911 C   0  0  0  0  0  0  0  0  0  0  0  0
    9.4607    7.5646   16.0139 C   0  0  0  0  0  0  0  0  0  0  0  0
   10.4192    7.3157   15.0955 C   0  0  0  0  0  0  0  0  0  0  0  0
   10.2489    6.4227   23.0218 N   0  0  0  0  0  0  0  0  0  0  0  0
    7.2472    8.0746   23.5050 C   0  0  0  0  0  0  0  0  0  0  0  0
    9.2051    6.9101   23.4604 C   0  0  0  0  0  0  0  0  0  0  0  0
   11.9646    6.0299   21.4251 C   0  0  0  0  0  0  0  0  0  0  0  0
  1  5  1  0
  1 13  1  0
  2 20  2  0
  2 28  1  0
  2 29  1  0
  3 19  4  0
  3 25  4  0
  4 23  4  0
  4 27  1  0
  4 30  4  0
  5 17  1  0
  6  8  1  0
  6 29  1  0
  7 24  4  0
  7 26  4  0
  8 28  1  0
  9 13  2  0
 10 18  1  0
 10 21  4  0
 10 30  4  0
 11 17  2  0
 12 18  1  0
 13 15  1  0
 14 24  1  0
 15 25  1  0
 16 28  2  0
 17 20  1  0
 19 24  4  0
 20 23  1  0
 21 22  4  0
 22 23  4  0
 25 26  4  0
 27 29  2  0
M  END
$$$$

 Created by Python create_sdf_string function

 30 33  0  0  0  0  0  0  0  0999 V2000
    8.3036    9.8571   18.4133 C   0  0  0  0  0  0  0  0  0  0  0  0
    8.3694    7.6612   22.6703 C   0  0  0  0  0  0  0  0  0  0  0  0
    8.4143    6.6863   16.2273 C   0  0  0  0  0  0  0  0  0  0  0  0
   10.7581    6.5674   21.7636 C   0  0  0  0  0  0  0  0  0  0  0  0
    8.4452    8.7960   19.2958 O   0  0  0  0  0  0  0  0  0  0  0  0
    8.7122    6.7842   24.8569 C   0  0  0  0  0  0  0  0  0  0  0  0
   10.3400    6.1726   14.3081 C   0  0  0  0  0  0  0  0  0  0  0  0
    7.4297    7.5873   24.8962 C   0  0  0  0  0  0  0  0  0  0  0  0
    8.1566   10.0536   16.0516 O   0  0  0  0  0  0  0  0  0  0  0  0
   12.4989    6.2074   20.1776 C   0  0  0  0  0  0  0  0  0  0  0  0
    6.9192    9.1053   20.9073 O   0  0  0  0  0  0  0  0  0  0  0  0
   14.3979    6.0729   18.7784 C   0  0  0  0  0  0  0  0  0  0  0  0
    8.6811    9.5354   16.9998 C   0  0  0  0  0  0  0  0  0  0  0  0
    9.2512    4.2713   13.7653 O   0  0  0  0  0  0  0  0  0  0  0  0
    9.6495    8.6317   16.8332 N   0  0  0  0  0  0  0  0  0  0  0  0
    6.2934    8.6988   23.1988 O   0  0  0  0  0  0  0  0  0  0  0  0
    7.9806    8.6543   20.5437 C   0  0  0  0  0  0  0  0  0  0  0  0
   13.7270    5.7144   19.8610 O   0  0  0  0  0  0  0  0  0  0  0  0
    8.3351    5.5235   15.4478 C   0  0  0  0  0  0  0  0  0  0  0  0
    8.7700    7.8434   21.3915 C   0  0  0  0  0  0  0  0  0  0  0  0
   11.7856    6.8851   19.2401 C   0  0  0  0  0  0  0  0  0  0  0  0
   10.5281    7.4276   19.5649 C   0  0  0  0  0  0  0  0  0  0  0  0
   10.0256    7.2907   20.8484 C   0  0  0  0  0  0  0  0  0  0  0  0
    9.3113    5.3049   14.4911 C   0  0  0  0  0  0  0  0  0  0  0  0
    9.4607    7.5646   16.0139 C   0  0  0  0  0  0  0  0  0  0  0  0
   10.4192    7.3157   15.0955 C   0  0  0  0  0  0  0  0  0  0  0  0
   10.2489    6.4227   23.0218 N   0  0  0  0  0  0  0  0  0  0  0  0
    7.2472    8.0746   23.5050 C   0  0  0  0  0  0  0  0  0  0  0  0
    9.2051    6.9101   23.4604 C   0  0  0  0  0  0  0  0  0  0  0  0
   11.9646    6.0299   21.4251 C   0  0  0  0  0  0  0  0  0  0  0  0
  1  5  1  0
  1 13  1  0
  2 20  2  0
  2 28  1  0
  2 29  1  0
  3 19  4  0
  3 25  4  0
  4 23  4  0
  4 27  1  0
  4 30  4  0
  5 17  1  0
  6  8  1  0
  6 29  1  0
  7 24  4  0
  7 26  4  0
  8 28  1  0
  9 13  2  0
 10 18  1  0
 10 21  4  0
 10 30  4  0
 11 17  2  0
 12 18  1  0
 13 15  1  0
 14 24  1  0
 15 25  1  0
 16 28  2  0
 17 20  1  0
 19 24  4  0
 20 23  1  0
 21 22  4  0
 22 23  4  0
 25 26  4  0
 27 29  2  0
M  END
$$$$

 Created by Python create_sdf_string function

 30 33  0  0  0  0  0  0  0  0999 V2000
    8.3036    9.8571   18.4133 C   0  0  0  0  0  0  0  0  0  0  0  0
    8.3694    7.6612   22.6703 C   0  0  0  0  0  0  0  0  0  0  0  0
    8.4143    6.6863   16.2273 C   0  0  0  0  0  0  0  0  0  0  0  0
   10.7581    6.5674   21.7636 C   0  0  0  0  0  0  0  0  0  0  0  0
    8.4452    8.7960   19.2958 O   0  0  0  0  0  0  0  0  0  0  0  0
    8.7122    6.7842   24.8569 C   0  0  0  0  0  0  0  0  0  0  0  0
   10.3400    6.1726   14.3081 C   0  0  0  0  0  0  0  0  0  0  0  0
    7.4297    7.5873   24.8962 C   0  0  0  0  0  0  0  0  0  0  0  0
    8.1566   10.0536   16.0516 O   0  0  0  0  0  0  0  0  0  0  0  0
   12.4989    6.2074   20.1776 C   0  0  0  0  0  0  0  0  0  0  0  0
    6.9192    9.1053   20.9073 O   0  0  0  0  0  0  0  0  0  0  0  0
   14.3979    6.0729   18.7784 C   0  0  0  0  0  0  0  0  0  0  0  0
    8.6811    9.5354   16.9998 C   0  0  0  0  0  0  0  0  0  0  0  0
    9.2512    4.2713   13.7653 O   0  0  0  0  0  0  0  0  0  0  0  0
    9.6495    8.6317   16.8332 N   0  0  0  0  0  0  0  0  0  0  0  0
    6.2934    8.6988   23.1988 O   0  0  0  0  0  0  0  0  0  0  0  0
    7.9806    8.6543   20.5437 C   0  0  0  0  0  0  0  0  0  0  0  0
   13.7270    5.7144   19.8610 O   0  0  0  0  0  0  0  0  0  0  0  0
    8.3351    5.5235   15.4478 C   0  0  0  0  0  0  0  0  0  0  0  0
    8.7700    7.8434   21.3915 C   0  0  0  0  0  0  0  0  0  0  0  0
   11.7856    6.8851   19.2401 C   0  0  0  0  0  0  0  0  0  0  0  0
   10.5281    7.4276   19.5649 C   0  0  0  0  0  0  0  0  0  0  0  0
   10.0256    7.2907   20.8484 C   0  0  0  0  0  0  0  0  0  0  0  0
    9.3113    5.3049   14.4911 C   0  0  0  0  0  0  0  0  0  0  0  0
    9.4607    7.5646   16.0139 C   0  0  0  0  0  0  0  0  0  0  0  0
   10.4192    7.3157   15.0955 C   0  0  0  0  0  0  0  0  0  0  0  0
   10.2489    6.4227   23.0218 N   0  0  0  0  0  0  0  0  0  0  0  0
    7.2472    8.0746   23.5050 C   0  0  0  0  0  0  0  0  0  0  0  0
    9.2051    6.9101   23.4604 C   0  0  0  0  0  0  0  0  0  0  0  0
   11.9646    6.0299   21.4251 C   0  0  0  0  0  0  0  0  0  0  0  0
  1  5  1  0
  1 13  1  0
  2 20  2  0
  2 28  1  0
  2 29  1  0
  3 19  4  0
  3 25  4  0
  4 23  4  0
  4 27  1  0
  4 30  4  0
  5 17  1  0
  6  8  1  0
  6 29  1  0
  7 24  4  0
  7 26  4  0
  8 28  1  0
  9 13  2  0
 10 18  1  0
 10 21  4  0
 10 30  4  0
 11 17  2  0
 12 18  1  0
 13 15  1  0
 14 24  1  0
 15 25  1  0
 16 28  2  0
 17 20  1  0
 19 24  4  0
 20 23  1  0
 21 22  4  0
 22 23  4  0
 25 26  4  0
 27 29  2  0
M  END
$$$$

 Created by Python create_sdf_string function

 30 33  0  0  0  0  0  0  0  0999 V2000
    8.3036    9.8571   18.4133 C   0  0  0  0  0  0  0  0  0  0  0  0
    8.3694    7.6612   22.6703 C   0  0  0  0  0  0  0  0  0  0  0  0
    8.4143    6.6863   16.2273 C   0  0  0  0  0  0  0  0  0  0  0  0
   10.7581    6.5674   21.7636 C   0  0  0  0  0  0  0  0  0  0  0  0
    8.4452    8.7960   19.2958 O   0  0  0  0  0  0  0  0  0  0  0  0
    8.7122    6.7842   24.8569 C   0  0  0  0  0  0  0  0  0  0  0  0
   10.3400    6.1726   14.3081 C   0  0  0  0  0  0  0  0  0  0  0  0
    7.4297    7.5873   24.8962 C   0  0  0  0  0  0  0  0  0  0  0  0
    8.1566   10.0536   16.0516 O   0  0  0  0  0  0  0  0  0  0  0  0
   12.4989    6.2074   20.1776 C   0  0  0  0  0  0  0  0  0  0  0  0
    6.9192    9.1053   20.9073 O   0  0  0  0  0  0  0  0  0  0  0  0
   14.3979    6.0729   18.7784 C   0  0  0  0  0  0  0  0  0  0  0  0
    8.6811    9.5354   16.9998 C   0  0  0  0  0  0  0  0  0  0  0  0
    9.2512    4.2713   13.7653 O   0  0  0  0  0  0  0  0  0  0  0  0
    9.6495    8.6317   16.8332 N   0  0  0  0  0  0  0  0  0  0  0  0
    6.2934    8.6988   23.1988 O   0  0  0  0  0  0  0  0  0  0  0  0
    7.9806    8.6543   20.5437 C   0  0  0  0  0  0  0  0  0  0  0  0
   13.7270    5.7144   19.8610 O   0  0  0  0  0  0  0  0  0  0  0  0
    8.3351    5.5235   15.4478 C   0  0  0  0  0  0  0  0  0  0  0  0
    8.7700    7.8434   21.3915 C   0  0  0  0  0  0  0  0  0  0  0  0
   11.7856    6.8851   19.2401 C   0  0  0  0  0  0  0  0  0  0  0  0
   10.5281    7.4276   19.5649 C   0  0  0  0  0  0  0  0  0  0  0  0
   10.0256    7.2907   20.8484 C   0  0  0  0  0  0  0  0  0  0  0  0
    9.3113    5.3049   14.4911 C   0  0  0  0  0  0  0  0  0  0  0  0
    9.4607    7.5646   16.0139 C   0  0  0  0  0  0  0  0  0  0  0  0
   10.4192    7.3157   15.0955 C   0  0  0  0  0  0  0  0  0  0  0  0
   10.2489    6.4227   23.0218 N   0  0  0  0  0  0  0  0  0  0  0  0
    7.2472    8.0746   23.5050 C   0  0  0  0  0  0  0  0  0  0  0  0
    9.2051    6.9101   23.4604 C   0  0  0  0  0  0  0  0  0  0  0  0
   11.9646    6.0299   21.4251 C   0  0  0  0  0  0  0  0  0  0  0  0
  1  5  1  0
  1 13  1  0
  2 20  2  0
  2 28  1  0
  2 29  1  0
  3 19  4  0
  3 25  4  0
  4 23  4  0
  4 27  1  0
  4 30  4  0
  5 17  1  0
  6  8  1  0
  6 29  1  0
  7 24  4  0
  7 26  4  0
  8 28  1  0
  9 13  2  0
 10 18  1  0
 10 21  4  0
 10 30  4  0
 11 17  2  0
 12 18  1  0
 13 15  1  0
 14 24  1  0
 15 25  1  0
 16 28  2  0
 17 20  1  0
 19 24  4  0
 20 23  1  0
 21 22  4  0
 22 23  4  0
 25 26  4  0
 27 29  2  0
M  END
$$$$

 Created by Python create_sdf_string function

 30 33  0  0  0  0  0  0  0  0999 V2000
    8.3036    9.8571   18.4133 C   0  0  0  0  0  0  0  0  0  0  0  0
    8.3694    7.6612   22.6703 C   0  0  0  0  0  0  0  0  0  0  0  0
    8.4143    6.6863   16.2273 C   0  0  0  0  0  0  0  0  0  0  0  0
   10.7581    6.5674   21.7636 C   0  0  0  0  0  0  0  0  0  0  0  0
    8.4452    8.7960   19.2958 O   0  0  0  0  0  0  0  0  0  0  0  0
    8.7122    6.7842   24.8569 C   0  0  0  0  0  0  0  0  0  0  0  0
   10.3400    6.1726   14.3081 C   0  0  0  0  0  0  0  0  0  0  0  0
    7.4297    7.5873   24.8962 C   0  0  0  0  0  0  0  0  0  0  0  0
    8.1566   10.0536   16.0516 O   0  0  0  0  0  0  0  0  0  0  0  0
   12.4989    6.2074   20.1776 C   0  0  0  0  0  0  0  0  0  0  0  0
    6.9192    9.1053   20.9073 O   0  0  0  0  0  0  0  0  0  0  0  0
   14.3979    6.0729   18.7784 C   0  0  0  0  0  0  0  0  0  0  0  0
    8.6811    9.5354   16.9998 C   0  0  0  0  0  0  0  0  0  0  0  0
    9.2512    4.2713   13.7653 O   0  0  0  0  0  0  0  0  0  0  0  0
    9.6495    8.6317   16.8332 N   0  0  0  0  0  0  0  0  0  0  0  0
    6.2934    8.6988   23.1988 O   0  0  0  0  0  0  0  0  0  0  0  0
    7.9806    8.6543   20.5437 C   0  0  0  0  0  0  0  0  0  0  0  0
   13.7270    5.7144   19.8610 O   0  0  0  0  0  0  0  0  0  0  0  0
    8.3351    5.5235   15.4478 C   0  0  0  0  0  0  0  0  0  0  0  0
    8.7700    7.8434   21.3915 C   0  0  0  0  0  0  0  0  0  0  0  0
   11.7856    6.8851   19.2401 C   0  0  0  0  0  0  0  0  0  0  0  0
   10.5281    7.4276   19.5649 C   0  0  0  0  0  0  0  0  0  0  0  0
   10.0256    7.2907   20.8484 C   0  0  0  0  0  0  0  0  0  0  0  0
    9.3113    5.3049   14.4911 C   0  0  0  0  0  0  0  0  0  0  0  0
    9.4607    7.5646   16.0139 C   0  0  0  0  0  0  0  0  0  0  0  0
   10.4192    7.3157   15.0955 C   0  0  0  0  0  0  0  0  0  0  0  0
   10.2489    6.4227   23.0218 N   0  0  0  0  0  0  0  0  0  0  0  0
    7.2472    8.0746   23.5050 C   0  0  0  0  0  0  0  0  0  0  0  0
    9.2051    6.9101   23.4604 C   0  0  0  0  0  0  0  0  0  0  0  0
   11.9646    6.0299   21.4251 C   0  0  0  0  0  0  0  0  0  0  0  0
  1  5  1  0
  1 13  1  0
  2 20  2  0
  2 28  1  0
  2 29  1  0
  3 19  4  0
  3 25  4  0
  4 23  4  0
  4 27  1  0
  4 30  4  0
  5 17  1  0
  6  8  1  0
  6 29  1  0
  7 24  4  0
  7 26  4  0
  8 28  1  0
  9 13  2  0
 10 18  1  0
 10 21  4  0
 10 30  4  0
 11 17  2  0
 12 18  1  0
 13 15  1  0
 14 24  1  0
 15 25  1  0
 16 28  2  0
 17 20  1  0
 19 24  4  0
 20 23  1  0
 21 22  4  0
 22 23  4  0
 25 26  4  0
 27 29  2  0
M  END
$$$$

 Created by Python create_sdf_string function

 30 33  0  0  0  0  0  0  0  0999 V2000
    8.3036    9.8571   18.4133 C   0  0  0  0  0  0  0  0  0  0  0  0
    8.3694    7.6612   22.6703 C   0  0  0  0  0  0  0  0  0  0  0  0
    8.4143    6.6863   16.2273 C   0  0  0  0  0  0  0  0  0  0  0  0
   10.7581    6.5674   21.7636 C   0  0  0  0  0  0  0  0  0  0  0  0
    8.4452    8.7960   19.2958 O   0  0  0  0  0  0  0  0  0  0  0  0
    8.7122    6.7842   24.8569 C   0  0  0  0  0  0  0  0  0  0  0  0
   10.3400    6.1726   14.3081 C   0  0  0  0  0  0  0  0  0  0  0  0
    7.4297    7.5873   24.8962 C   0  0  0  0  0  0  0  0  0  0  0  0
    8.1566   10.0536   16.0516 O   0  0  0  0  0  0  0  0  0  0  0  0
   12.4989    6.2074   20.1776 C   0  0  0  0  0  0  0  0  0  0  0  0
    6.9192    9.1053   20.9073 O   0  0  0  0  0  0  0  0  0  0  0  0
   14.3979    6.0729   18.7784 C   0  0  0  0  0  0  0  0  0  0  0  0
    8.6811    9.5354   16.9998 C   0  0  0  0  0  0  0  0  0  0  0  0
    9.2512    4.2713   13.7653 O   0  0  0  0  0  0  0  0  0  0  0  0
    9.6495    8.6317   16.8332 N   0  0  0  0  0  0  0  0  0  0  0  0
    6.2934    8.6988   23.1988 O   0  0  0  0  0  0  0  0  0  0  0  0
    7.9806    8.6543   20.5437 C   0  0  0  0  0  0  0  0  0  0  0  0
   13.7270    5.7144   19.8610 O   0  0  0  0  0  0  0  0  0  0  0  0
    8.3351    5.5235   15.4478 C   0  0  0  0  0  0  0  0  0  0  0  0
    8.7700    7.8434   21.3915 C   0  0  0  0  0  0  0  0  0  0  0  0
   11.7856    6.8851   19.2401 C   0  0  0  0  0  0  0  0  0  0  0  0
   10.5281    7.4276   19.5649 C   0  0  0  0  0  0  0  0  0  0  0  0
   10.0256    7.2907   20.8484 C   0  0  0  0  0  0  0  0  0  0  0  0
    9.3113    5.3049   14.4911 C   0  0  0  0  0  0  0  0  0  0  0  0
    9.4607    7.5646   16.0139 C   0  0  0  0  0  0  0  0  0  0  0  0
   10.4192    7.3157   15.0955 C   0  0  0  0  0  0  0  0  0  0  0  0
   10.2489    6.4227   23.0218 N   0  0  0  0  0  0  0  0  0  0  0  0
    7.2472    8.0746   23.5050 C   0  0  0  0  0  0  0  0  0  0  0  0
    9.2051    6.9101   23.4604 C   0  0  0  0  0  0  0  0  0  0  0  0
   11.9646    6.0299   21.4251 C   0  0  0  0  0  0  0  0  0  0  0  0
  1  5  1  0
  1 13  1  0
  2 20  2  0
  2 28  1  0
  2 29  1  0
  3 19  4  0
  3 25  4  0
  4 23  4  0
  4 27  1  0
  4 30  4  0
  5 17  1  0
  6  8  1  0
  6 29  1  0
  7 24  4  0
  7 26  4  0
  8 28  1  0
  9 13  2  0
 10 18  1  0
 10 21  4  0
 10 30  4  0
 11 17  2  0
 12 18  1  0
 13 15  1  0
 14 24  1  0
 15 25  1  0
 16 28  2  0
 17 20  1  0
 19 24  4  0
 20 23  1  0
 21 22  4  0
 22 23  4  0
 25 26  4  0
 27 29  2  0
M  END
$$$$

 Created by Python create_sdf_string function

 30 33  0  0  0  0  0  0  0  0999 V2000
    8.3036    9.8571   18.4133 C   0  0  0  0  0  0  0  0  0  0  0  0
    8.3694    7.6612   22.6703 C   0  0  0  0  0  0  0  0  0  0  0  0
    8.4143    6.6863   16.2273 C   0  0  0  0  0  0  0  0  0  0  0  0
   10.7581    6.5674   21.7636 C   0  0  0  0  0  0  0  0  0  0  0  0
    8.4452    8.7960   19.2958 O   0  0  0  0  0  0  0  0  0  0  0  0
    8.7122    6.7842   24.8569 C   0  0  0  0  0  0  0  0  0  0  0  0
   10.3400    6.1726   14.3081 C   0  0  0  0  0  0  0  0  0  0  0  0
    7.4297    7.5873   24.8962 C   0  0  0  0  0  0  0  0  0  0  0  0
    8.1566   10.0536   16.0516 O   0  0  0  0  0  0  0  0  0  0  0  0
   12.4989    6.2074   20.1776 C   0  0  0  0  0  0  0  0  0  0  0  0
    6.9192    9.1053   20.9073 O   0  0  0  0  0  0  0  0  0  0  0  0
   14.3979    6.0729   18.7784 C   0  0  0  0  0  0  0  0  0  0  0  0
    8.6811    9.5354   16.9998 C   0  0  0  0  0  0  0  0  0  0  0  0
    9.2512    4.2713   13.7653 O   0  0  0  0  0  0  0  0  0  0  0  0
    9.6495    8.6317   16.8332 N   0  0  0  0  0  0  0  0  0  0  0  0
    6.2934    8.6988   23.1988 O   0  0  0  0  0  0  0  0  0  0  0  0
    7.9806    8.6543   20.5437 C   0  0  0  0  0  0  0  0  0  0  0  0
   13.7270    5.7144   19.8610 O   0  0  0  0  0  0  0  0  0  0  0  0
    8.3351    5.5235   15.4478 C   0  0  0  0  0  0  0  0  0  0  0  0
    8.7700    7.8434   21.3915 C   0  0  0  0  0  0  0  0  0  0  0  0
   11.7856    6.8851   19.2401 C   0  0  0  0  0  0  0  0  0  0  0  0
   10.5281    7.4276   19.5649 C   0  0  0  0  0  0  0  0  0  0  0  0
   10.0256    7.2907   20.8484 C   0  0  0  0  0  0  0  0  0  0  0  0
    9.3113    5.3049   14.4911 C   0  0  0  0  0  0  0  0  0  0  0  0
    9.4607    7.5646   16.0139 C   0  0  0  0  0  0  0  0  0  0  0  0
   10.4192    7.3157   15.0955 C   0  0  0  0  0  0  0  0  0  0  0  0
   10.2489    6.4227   23.0218 N   0  0  0  0  0  0  0  0  0  0  0  0
    7.2472    8.0746   23.5050 C   0  0  0  0  0  0  0  0  0  0  0  0
    9.2051    6.9101   23.4604 C   0  0  0  0  0  0  0  0  0  0  0  0
   11.9646    6.0299   21.4251 C   0  0  0  0  0  0  0  0  0  0  0  0
  1  5  1  0
  1 13  1  0
  2 20  2  0
  2 28  1  0
  2 29  1  0
  3 19  4  0
  3 25  4  0
  4 23  4  0
  4 27  1  0
  4 30  4  0
  5 17  1  0
  6  8  1  0
  6 29  1  0
  7 24  4  0
  7 26  4  0
  8 28  1  0
  9 13  2  0
 10 18  1  0
 10 21  4  0
 10 30  4  0
 11 17  2  0
 12 18  1  0
 13 15  1  0
 14 24  1  0
 15 25  1  0
 16 28  2  0
 17 20  1  0
 19 24  4  0
 20 23  1  0
 21 22  4  0
 22 23  4  0
 25 26  4  0
 27 29  2  0
M  END
$$$$

 Created by Python create_sdf_string function

 30 33  0  0  0  0  0  0  0  0999 V2000
    8.3036    9.8571   18.4133 C   0  0  0  0  0  0  0  0  0  0  0  0
    8.3694    7.6612   22.6703 C   0  0  0  0  0  0  0  0  0  0  0  0
    8.4143    6.6863   16.2273 C   0  0  0  0  0  0  0  0  0  0  0  0
   10.7581    6.5674   21.7636 C   0  0  0  0  0  0  0  0  0  0  0  0
    8.4452    8.7960   19.2958 O   0  0  0  0  0  0  0  0  0  0  0  0
    8.7122    6.7842   24.8569 C   0  0  0  0  0  0  0  0  0  0  0  0
   10.3400    6.1726   14.3081 C   0  0  0  0  0  0  0  0  0  0  0  0
    7.4297    7.5873   24.8962 C   0  0  0  0  0  0  0  0  0  0  0  0
    8.1566   10.0536   16.0516 O   0  0  0  0  0  0  0  0  0  0  0  0
   12.4989    6.2074   20.1776 C   0  0  0  0  0  0  0  0  0  0  0  0
    6.9192    9.1053   20.9073 O   0  0  0  0  0  0  0  0  0  0  0  0
   14.3979    6.0729   18.7784 C   0  0  0  0  0  0  0  0  0  0  0  0
    8.6811    9.5354   16.9998 C   0  0  0  0  0  0  0  0  0  0  0  0
    9.2512    4.2713   13.7653 O   0  0  0  0  0  0  0  0  0  0  0  0
    9.6495    8.6317   16.8332 N   0  0  0  0  0  0  0  0  0  0  0  0
    6.2934    8.6988   23.1988 O   0  0  0  0  0  0  0  0  0  0  0  0
    7.9806    8.6543   20.5437 C   0  0  0  0  0  0  0  0  0  0  0  0
   13.7270    5.7144   19.8610 O   0  0  0  0  0  0  0  0  0  0  0  0
    8.3351    5.5235   15.4478 C   0  0  0  0  0  0  0  0  0  0  0  0
    8.7700    7.8434   21.3915 C   0  0  0  0  0  0  0  0  0  0  0  0
   11.7856    6.8851   19.2401 C   0  0  0  0  0  0  0  0  0  0  0  0
   10.5281    7.4276   19.5649 C   0  0  0  0  0  0  0  0  0  0  0  0
   10.0256    7.2907   20.8484 C   0  0  0  0  0  0  0  0  0  0  0  0
    9.3113    5.3049   14.4911 C   0  0  0  0  0  0  0  0  0  0  0  0
    9.4607    7.5646   16.0139 C   0  0  0  0  0  0  0  0  0  0  0  0
   10.4192    7.3157   15.0955 C   0  0  0  0  0  0  0  0  0  0  0  0
   10.2489    6.4227   23.0218 N   0  0  0  0  0  0  0  0  0  0  0  0
    7.2472    8.0746   23.5050 C   0  0  0  0  0  0  0  0  0  0  0  0
    9.2051    6.9101   23.4604 C   0  0  0  0  0  0  0  0  0  0  0  0
   11.9646    6.0299   21.4251 C   0  0  0  0  0  0  0  0  0  0  0  0
  1  5  1  0
  1 13  1  0
  2 20  2  0
  2 28  1  0
  2 29  1  0
  3 19  4  0
  3 25  4  0
  4 23  4  0
  4 27  1  0
  4 30  4  0
  5 17  1  0
  6  8  1  0
  6 29  1  0
  7 24  4  0
  7 26  4  0
  8 28  1  0
  9 13  2  0
 10 18  1  0
 10 21  4  0
 10 30  4  0
 11 17  2  0
 12 18  1  0
 13 15  1  0
 14 24  1  0
 15 25  1  0
 16 28  2  0
 17 20  1  0
 19 24  4  0
 20 23  1  0
 21 22  4  0
 22 23  4  0
 25 26  4  0
 27 29  2  0
M  END
$$$$

 Created by Python create_sdf_string function

 30 33  0  0  0  0  0  0  0  0999 V2000
    8.3036    9.8571   18.4133 C   0  0  0  0  0  0  0  0  0  0  0  0
    8.3694    7.6612   22.6703 C   0  0  0  0  0  0  0  0  0  0  0  0
    8.4143    6.6863   16.2273 C   0  0  0  0  0  0  0  0  0  0  0  0
   10.7581    6.5674   21.7636 C   0  0  0  0  0  0  0  0  0  0  0  0
    8.4452    8.7960   19.2958 O   0  0  0  0  0  0  0  0  0  0  0  0
    8.7122    6.7842   24.8569 C   0  0  0  0  0  0  0  0  0  0  0  0
   10.3400    6.1726   14.3081 C   0  0  0  0  0  0  0  0  0  0  0  0
    7.4297    7.5873   24.8962 C   0  0  0  0  0  0  0  0  0  0  0  0
    8.1566   10.0536   16.0516 O   0  0  0  0  0  0  0  0  0  0  0  0
   12.4989    6.2074   20.1776 C   0  0  0  0  0  0  0  0  0  0  0  0
    6.9192    9.1053   20.9073 O   0  0  0  0  0  0  0  0  0  0  0  0
   14.3979    6.0729   18.7784 C   0  0  0  0  0  0  0  0  0  0  0  0
    8.6811    9.5354   16.9998 C   0  0  0  0  0  0  0  0  0  0  0  0
    9.2512    4.2713   13.7653 O   0  0  0  0  0  0  0  0  0  0  0  0
    9.6495    8.6317   16.8332 N   0  0  0  0  0  0  0  0  0  0  0  0
    6.2934    8.6988   23.1988 O   0  0  0  0  0  0  0  0  0  0  0  0
    7.9806    8.6543   20.5437 C   0  0  0  0  0  0  0  0  0  0  0  0
   13.7270    5.7144   19.8610 O   0  0  0  0  0  0  0  0  0  0  0  0
    8.3351    5.5235   15.4478 C   0  0  0  0  0  0  0  0  0  0  0  0
    8.7700    7.8434   21.3915 C   0  0  0  0  0  0  0  0  0  0  0  0
   11.7856    6.8851   19.2401 C   0  0  0  0  0  0  0  0  0  0  0  0
   10.5281    7.4276   19.5649 C   0  0  0  0  0  0  0  0  0  0  0  0
   10.0256    7.2907   20.8484 C   0  0  0  0  0  0  0  0  0  0  0  0
    9.3113    5.3049   14.4911 C   0  0  0  0  0  0  0  0  0  0  0  0
    9.4607    7.5646   16.0139 C   0  0  0  0  0  0  0  0  0  0  0  0
   10.4192    7.3157   15.0955 C   0  0  0  0  0  0  0  0  0  0  0  0
   10.2489    6.4227   23.0218 N   0  0  0  0  0  0  0  0  0  0  0  0
    7.2472    8.0746   23.5050 C   0  0  0  0  0  0  0  0  0  0  0  0
    9.2051    6.9101   23.4604 C   0  0  0  0  0  0  0  0  0  0  0  0
   11.9646    6.0299   21.4251 C   0  0  0  0  0  0  0  0  0  0  0  0
  1  5  1  0
  1 13  1  0
  2 20  2  0
  2 28  1  0
  2 29  1  0
  3 19  4  0
  3 25  4  0
  4 23  4  0
  4 27  1  0
  4 30  4  0
  5 17  1  0
  6  8  1  0
  6 29  1  0
  7 24  4  0
  7 26  4  0
  8 28  1  0
  9 13  2  0
 10 18  1  0
 10 21  4  0
 10 30  4  0
 11 17  2  0
 12 18  1  0
 13 15  1  0
 14 24  1  0
 15 25  1  0
 16 28  2  0
 17 20  1  0
 19 24  4  0
 20 23  1  0
 21 22  4  0
 22 23  4  0
 25 26  4  0
 27 29  2  0
M  END
$$$$

 Created by Python create_sdf_string function

 30 33  0  0  0  0  0  0  0  0999 V2000
    8.3036    9.8571   18.4133 C   0  0  0  0  0  0  0  0  0  0  0  0
    8.3694    7.6612   22.6703 C   0  0  0  0  0  0  0  0  0  0  0  0
    8.4143    6.6863   16.2273 C   0  0  0  0  0  0  0  0  0  0  0  0
   10.7581    6.5674   21.7636 C   0  0  0  0  0  0  0  0  0  0  0  0
    8.4452    8.7960   19.2958 O   0  0  0  0  0  0  0  0  0  0  0  0
    8.7122    6.7842   24.8569 C   0  0  0  0  0  0  0  0  0  0  0  0
   10.3400    6.1726   14.3081 C   0  0  0  0  0  0  0  0  0  0  0  0
    7.4297    7.5873   24.8962 C   0  0  0  0  0  0  0  0  0  0  0  0
    8.1566   10.0536   16.0516 O   0  0  0  0  0  0  0  0  0  0  0  0
   12.4989    6.2074   20.1776 C   0  0  0  0  0  0  0  0  0  0  0  0
    6.9192    9.1053   20.9073 O   0  0  0  0  0  0  0  0  0  0  0  0
   14.3979    6.0729   18.7784 C   0  0  0  0  0  0  0  0  0  0  0  0
    8.6811    9.5354   16.9998 C   0  0  0  0  0  0  0  0  0  0  0  0
    9.2512    4.2713   13.7653 O   0  0  0  0  0  0  0  0  0  0  0  0
    9.6495    8.6317   16.8332 N   0  0  0  0  0  0  0  0  0  0  0  0
    6.2934    8.6988   23.1988 O   0  0  0  0  0  0  0  0  0  0  0  0
    7.9806    8.6543   20.5437 C   0  0  0  0  0  0  0  0  0  0  0  0
   13.7270    5.7144   19.8610 O   0  0  0  0  0  0  0  0  0  0  0  0
    8.3351    5.5235   15.4478 C   0  0  0  0  0  0  0  0  0  0  0  0
    8.7700    7.8434   21.3915 C   0  0  0  0  0  0  0  0  0  0  0  0
   11.7856    6.8851   19.2401 C   0  0  0  0  0  0  0  0  0  0  0  0
   10.5281    7.4276   19.5649 C   0  0  0  0  0  0  0  0  0  0  0  0
   10.0256    7.2907   20.8484 C   0  0  0  0  0  0  0  0  0  0  0  0
    9.3113    5.3049   14.4911 C   0  0  0  0  0  0  0  0  0  0  0  0
    9.4607    7.5646   16.0139 C   0  0  0  0  0  0  0  0  0  0  0  0
   10.4192    7.3157   15.0955 C   0  0  0  0  0  0  0  0  0  0  0  0
   10.2489    6.4227   23.0218 N   0  0  0  0  0  0  0  0  0  0  0  0
    7.2472    8.0746   23.5050 C   0  0  0  0  0  0  0  0  0  0  0  0
    9.2051    6.9101   23.4604 C   0  0  0  0  0  0  0  0  0  0  0  0
   11.9646    6.0299   21.4251 C   0  0  0  0  0  0  0  0  0  0  0  0
  1  5  1  0
  1 13  1  0
  2 20  2  0
  2 28  1  0
  2 29  1  0
  3 19  4  0
  3 25  4  0
  4 23  4  0
  4 27  1  0
  4 30  4  0
  5 17  1  0
  6  8  1  0
  6 29  1  0
  7 24  4  0
  7 26  4  0
  8 28  1  0
  9 13  2  0
 10 18  1  0
 10 21  4  0
 10 30  4  0
 11 17  2  0
 12 18  1  0
 13 15  1  0
 14 24  1  0
 15 25  1  0
 16 28  2  0
 17 20  1  0
 19 24  4  0
 20 23  1  0
 21 22  4  0
 22 23  4  0
 25 26  4  0
 27 29  2  0
M  END
$$$$

 Created by Python create_sdf_string function

 30 33  0  0  0  0  0  0  0  0999 V2000
    8.3036    9.8571   18.4133 C   0  0  0  0  0  0  0  0  0  0  0  0
    8.3694    7.6612   22.6703 C   0  0  0  0  0  0  0  0  0  0  0  0
    8.4143    6.6863   16.2273 C   0  0  0  0  0  0  0  0  0  0  0  0
   10.7581    6.5674   21.7636 C   0  0  0  0  0  0  0  0  0  0  0  0
    8.4452    8.7960   19.2958 O   0  0  0  0  0  0  0  0  0  0  0  0
    8.7122    6.7842   24.8569 C   0  0  0  0  0  0  0  0  0  0  0  0
   10.3400    6.1726   14.3081 C   0  0  0  0  0  0  0  0  0  0  0  0
    7.4297    7.5873   24.8962 C   0  0  0  0  0  0  0  0  0  0  0  0
    8.1566   10.0536   16.0516 O   0  0  0  0  0  0  0  0  0  0  0  0
   12.4989    6.2074   20.1776 C   0  0  0  0  0  0  0  0  0  0  0  0
    6.9192    9.1053   20.9073 O   0  0  0  0  0  0  0  0  0  0  0  0
   14.3979    6.0729   18.7784 C   0  0  0  0  0  0  0  0  0  0  0  0
    8.6811    9.5354   16.9998 C   0  0  0  0  0  0  0  0  0  0  0  0
    9.2512    4.2713   13.7653 O   0  0  0  0  0  0  0  0  0  0  0  0
    9.6495    8.6317   16.8332 N   0  0  0  0  0  0  0  0  0  0  0  0
    6.2934    8.6988   23.1988 O   0  0  0  0  0  0  0  0  0  0  0  0
    7.9806    8.6543   20.5437 C   0  0  0  0  0  0  0  0  0  0  0  0
   13.7270    5.7144   19.8610 O   0  0  0  0  0  0  0  0  0  0  0  0
    8.3351    5.5235   15.4478 C   0  0  0  0  0  0  0  0  0  0  0  0
    8.7700    7.8434   21.3915 C   0  0  0  0  0  0  0  0  0  0  0  0
   11.7856    6.8851   19.2401 C   0  0  0  0  0  0  0  0  0  0  0  0
   10.5281    7.4276   19.5649 C   0  0  0  0  0  0  0  0  0  0  0  0
   10.0256    7.2907   20.8484 C   0  0  0  0  0  0  0  0  0  0  0  0
    9.3113    5.3049   14.4911 C   0  0  0  0  0  0  0  0  0  0  0  0
    9.4607    7.5646   16.0139 C   0  0  0  0  0  0  0  0  0  0  0  0
   10.4192    7.3157   15.0955 C   0  0  0  0  0  0  0  0  0  0  0  0
   10.2489    6.4227   23.0218 N   0  0  0  0  0  0  0  0  0  0  0  0
    7.2472    8.0746   23.5050 C   0  0  0  0  0  0  0  0  0  0  0  0
    9.2051    6.9101   23.4604 C   0  0  0  0  0  0  0  0  0  0  0  0
   11.9646    6.0299   21.4251 C   0  0  0  0  0  0  0  0  0  0  0  0
  1  5  1  0
  1 13  1  0
  2 20  2  0
  2 28  1  0
  2 29  1  0
  3 19  4  0
  3 25  4  0
  4 23  4  0
  4 27  1  0
  4 30  4  0
  5 17  1  0
  6  8  1  0
  6 29  1  0
  7 24  4  0
  7 26  4  0
  8 28  1  0
  9 13  2  0
 10 18  1  0
 10 21  4  0
 10 30  4  0
 11 17  2  0
 12 18  1  0
 13 15  1  0
 14 24  1  0
 15 25  1  0
 16 28  2  0
 17 20  1  0
 19 24  4  0
 20 23  1  0
 21 22  4  0
 22 23  4  0
 25 26  4  0
 27 29  2  0
M  END
$$$$

 Created by Python create_sdf_string function

 30 33  0  0  0  0  0  0  0  0999 V2000
    8.3036    9.8571   18.4133 C   0  0  0  0  0  0  0  0  0  0  0  0
    8.3694    7.6612   22.6703 C   0  0  0  0  0  0  0  0  0  0  0  0
    8.4143    6.6863   16.2273 C   0  0  0  0  0  0  0  0  0  0  0  0
   10.7581    6.5674   21.7636 C   0  0  0  0  0  0  0  0  0  0  0  0
    8.4452    8.7960   19.2958 O   0  0  0  0  0  0  0  0  0  0  0  0
    8.7122    6.7842   24.8569 C   0  0  0  0  0  0  0  0  0  0  0  0
   10.3400    6.1726   14.3081 C   0  0  0  0  0  0  0  0  0  0  0  0
    7.4297    7.5873   24.8962 C   0  0  0  0  0  0  0  0  0  0  0  0
    8.1566   10.0536   16.0516 O   0  0  0  0  0  0  0  0  0  0  0  0
   12.4989    6.2074   20.1776 C   0  0  0  0  0  0  0  0  0  0  0  0
    6.9192    9.1053   20.9073 O   0  0  0  0  0  0  0  0  0  0  0  0
   14.3979    6.0729   18.7784 C   0  0  0  0  0  0  0  0  0  0  0  0
    8.6811    9.5354   16.9998 C   0  0  0  0  0  0  0  0  0  0  0  0
    9.2512    4.2713   13.7653 O   0  0  0  0  0  0  0  0  0  0  0  0
    9.6495    8.6317   16.8332 N   0  0  0  0  0  0  0  0  0  0  0  0
    6.2934    8.6988   23.1988 O   0  0  0  0  0  0  0  0  0  0  0  0
    7.9806    8.6543   20.5437 C   0  0  0  0  0  0  0  0  0  0  0  0
   13.7270    5.7144   19.8610 O   0  0  0  0  0  0  0  0  0  0  0  0
    8.3351    5.5235   15.4478 C   0  0  0  0  0  0  0  0  0  0  0  0
    8.7700    7.8434   21.3915 C   0  0  0  0  0  0  0  0  0  0  0  0
   11.7856    6.8851   19.2401 C   0  0  0  0  0  0  0  0  0  0  0  0
   10.5281    7.4276   19.5649 C   0  0  0  0  0  0  0  0  0  0  0  0
   10.0256    7.2907   20.8484 C   0  0  0  0  0  0  0  0  0  0  0  0
    9.3113    5.3049   14.4911 C   0  0  0  0  0  0  0  0  0  0  0  0
    9.4607    7.5646   16.0139 C   0  0  0  0  0  0  0  0  0  0  0  0
   10.4192    7.3157   15.0955 C   0  0  0  0  0  0  0  0  0  0  0  0
   10.2489    6.4227   23.0218 N   0  0  0  0  0  0  0  0  0  0  0  0
    7.2472    8.0746   23.5050 C   0  0  0  0  0  0  0  0  0  0  0  0
    9.2051    6.9101   23.4604 C   0  0  0  0  0  0  0  0  0  0  0  0
   11.9646    6.0299   21.4251 C   0  0  0  0  0  0  0  0  0  0  0  0
  1  5  1  0
  1 13  1  0
  2 20  2  0
  2 28  1  0
  2 29  1  0
  3 19  4  0
  3 25  4  0
  4 23  4  0
  4 27  1  0
  4 30  4  0
  5 17  1  0
  6  8  1  0
  6 29  1  0
  7 24  4  0
  7 26  4  0
  8 28  1  0
  9 13  2  0
 10 18  1  0
 10 21  4  0
 10 30  4  0
 11 17  2  0
 12 18  1  0
 13 15  1  0
 14 24  1  0
 15 25  1  0
 16 28  2  0
 17 20  1  0
 19 24  4  0
 20 23  1  0
 21 22  4  0
 22 23  4  0
 25 26  4  0
 27 29  2  0
M  END
$$$$

 Created by Python create_sdf_string function

 30 33  0  0  0  0  0  0  0  0999 V2000
    8.3036    9.8571   18.4133 C   0  0  0  0  0  0  0  0  0  0  0  0
    8.3694    7.6612   22.6703 C   0  0  0  0  0  0  0  0  0  0  0  0
    8.4143    6.6863   16.2273 C   0  0  0  0  0  0  0  0  0  0  0  0
   10.7581    6.5674   21.7636 C   0  0  0  0  0  0  0  0  0  0  0  0
    8.4452    8.7960   19.2958 O   0  0  0  0  0  0  0  0  0  0  0  0
    8.7122    6.7842   24.8569 C   0  0  0  0  0  0  0  0  0  0  0  0
   10.3400    6.1726   14.3081 C   0  0  0  0  0  0  0  0  0  0  0  0
    7.4297    7.5873   24.8962 C   0  0  0  0  0  0  0  0  0  0  0  0
    8.1566   10.0536   16.0516 O   0  0  0  0  0  0  0  0  0  0  0  0
   12.4989    6.2074   20.1776 C   0  0  0  0  0  0  0  0  0  0  0  0
    6.9192    9.1053   20.9073 O   0  0  0  0  0  0  0  0  0  0  0  0
   14.3979    6.0729   18.7784 C   0  0  0  0  0  0  0  0  0  0  0  0
    8.6811    9.5354   16.9998 C   0  0  0  0  0  0  0  0  0  0  0  0
    9.2512    4.2713   13.7653 O   0  0  0  0  0  0  0  0  0  0  0  0
    9.6495    8.6317   16.8332 N   0  0  0  0  0  0  0  0  0  0  0  0
    6.2934    8.6988   23.1988 O   0  0  0  0  0  0  0  0  0  0  0  0
    7.9806    8.6543   20.5437 C   0  0  0  0  0  0  0  0  0  0  0  0
   13.7270    5.7144   19.8610 O   0  0  0  0  0  0  0  0  0  0  0  0
    8.3351    5.5235   15.4478 C   0  0  0  0  0  0  0  0  0  0  0  0
    8.7700    7.8434   21.3915 C   0  0  0  0  0  0  0  0  0  0  0  0
   11.7856    6.8851   19.2401 C   0  0  0  0  0  0  0  0  0  0  0  0
   10.5281    7.4276   19.5649 C   0  0  0  0  0  0  0  0  0  0  0  0
   10.0256    7.2907   20.8484 C   0  0  0  0  0  0  0  0  0  0  0  0
    9.3113    5.3049   14.4911 C   0  0  0  0  0  0  0  0  0  0  0  0
    9.4607    7.5646   16.0139 C   0  0  0  0  0  0  0  0  0  0  0  0
   10.4192    7.3157   15.0955 C   0  0  0  0  0  0  0  0  0  0  0  0
   10.2489    6.4227   23.0218 N   0  0  0  0  0  0  0  0  0  0  0  0
    7.2472    8.0746   23.5050 C   0  0  0  0  0  0  0  0  0  0  0  0
    9.2051    6.9101   23.4604 C   0  0  0  0  0  0  0  0  0  0  0  0
   11.9646    6.0299   21.4251 C   0  0  0  0  0  0  0  0  0  0  0  0
  1  5  1  0
  1 13  1  0
  2 20  2  0
  2 28  1  0
  2 29  1  0
  3 19  4  0
  3 25  4  0
  4 23  4  0
  4 27  1  0
  4 30  4  0
  5 17  1  0
  6  8  1  0
  6 29  1  0
  7 24  4  0
  7 26  4  0
  8 28  1  0
  9 13  2  0
 10 18  1  0
 10 21  4  0
 10 30  4  0
 11 17  2  0
 12 18  1  0
 13 15  1  0
 14 24  1  0
 15 25  1  0
 16 28  2  0
 17 20  1  0
 19 24  4  0
 20 23  1  0
 21 22  4  0
 22 23  4  0
 25 26  4  0
 27 29  2  0
M  END
$$$$

 Created by Python create_sdf_string function

 30 33  0  0  0  0  0  0  0  0999 V2000
    8.3036    9.8571   18.4133 C   0  0  0  0  0  0  0  0  0  0  0  0
    8.3694    7.6612   22.6703 C   0  0  0  0  0  0  0  0  0  0  0  0
    8.4143    6.6863   16.2273 C   0  0  0  0  0  0  0  0  0  0  0  0
   10.7581    6.5674   21.7636 C   0  0  0  0  0  0  0  0  0  0  0  0
    8.4452    8.7960   19.2958 O   0  0  0  0  0  0  0  0  0  0  0  0
    8.7122    6.7842   24.8569 C   0  0  0  0  0  0  0  0  0  0  0  0
   10.3400    6.1726   14.3081 C   0  0  0  0  0  0  0  0  0  0  0  0
    7.4297    7.5873   24.8962 C   0  0  0  0  0  0  0  0  0  0  0  0
    8.1566   10.0536   16.0516 O   0  0  0  0  0  0  0  0  0  0  0  0
   12.4989    6.2074   20.1776 C   0  0  0  0  0  0  0  0  0  0  0  0
    6.9192    9.1053   20.9073 O   0  0  0  0  0  0  0  0  0  0  0  0
   14.3979    6.0729   18.7784 C   0  0  0  0  0  0  0  0  0  0  0  0
    8.6811    9.5354   16.9998 C   0  0  0  0  0  0  0  0  0  0  0  0
    9.2512    4.2713   13.7653 O   0  0  0  0  0  0  0  0  0  0  0  0
    9.6495    8.6317   16.8332 N   0  0  0  0  0  0  0  0  0  0  0  0
    6.2934    8.6988   23.1988 O   0  0  0  0  0  0  0  0  0  0  0  0
    7.9806    8.6543   20.5437 C   0  0  0  0  0  0  0  0  0  0  0  0
   13.7270    5.7144   19.8610 O   0  0  0  0  0  0  0  0  0  0  0  0
    8.3351    5.5235   15.4478 C   0  0  0  0  0  0  0  0  0  0  0  0
    8.7700    7.8434   21.3915 C   0  0  0  0  0  0  0  0  0  0  0  0
   11.7856    6.8851   19.2401 C   0  0  0  0  0  0  0  0  0  0  0  0
   10.5281    7.4276   19.5649 C   0  0  0  0  0  0  0  0  0  0  0  0
   10.0256    7.2907   20.8484 C   0  0  0  0  0  0  0  0  0  0  0  0
    9.3113    5.3049   14.4911 C   0  0  0  0  0  0  0  0  0  0  0  0
    9.4607    7.5646   16.0139 C   0  0  0  0  0  0  0  0  0  0  0  0
   10.4192    7.3157   15.0955 C   0  0  0  0  0  0  0  0  0  0  0  0
   10.2489    6.4227   23.0218 N   0  0  0  0  0  0  0  0  0  0  0  0
    7.2472    8.0746   23.5050 C   0  0  0  0  0  0  0  0  0  0  0  0
    9.2051    6.9101   23.4604 C   0  0  0  0  0  0  0  0  0  0  0  0
   11.9646    6.0299   21.4251 C   0  0  0  0  0  0  0  0  0  0  0  0
  1  5  1  0
  1 13  1  0
  2 20  2  0
  2 28  1  0
  2 29  1  0
  3 19  4  0
  3 25  4  0
  4 23  4  0
  4 27  1  0
  4 30  4  0
  5 17  1  0
  6  8  1  0
  6 29  1  0
  7 24  4  0
  7 26  4  0
  8 28  1  0
  9 13  2  0
 10 18  1  0
 10 21  4  0
 10 30  4  0
 11 17  2  0
 12 18  1  0
 13 15  1  0
 14 24  1  0
 15 25  1  0
 16 28  2  0
 17 20  1  0
 19 24  4  0
 20 23  1  0
 21 22  4  0
 22 23  4  0
 25 26  4  0
 27 29  2  0
M  END
$$$$

 Created by Python create_sdf_string function

 30 33  0  0  0  0  0  0  0  0999 V2000
    8.3036    9.8571   18.4133 C   0  0  0  0  0  0  0  0  0  0  0  0
    8.3694    7.6612   22.6703 C   0  0  0  0  0  0  0  0  0  0  0  0
    8.4143    6.6863   16.2273 C   0  0  0  0  0  0  0  0  0  0  0  0
   10.7581    6.5674   21.7636 C   0  0  0  0  0  0  0  0  0  0  0  0
    8.4452    8.7960   19.2958 O   0  0  0  0  0  0  0  0  0  0  0  0
    8.7122    6.7842   24.8569 C   0  0  0  0  0  0  0  0  0  0  0  0
   10.3400    6.1726   14.3081 C   0  0  0  0  0  0  0  0  0  0  0  0
    7.4297    7.5873   24.8962 C   0  0  0  0  0  0  0  0  0  0  0  0
    8.1566   10.0536   16.0516 O   0  0  0  0  0  0  0  0  0  0  0  0
   12.4989    6.2074   20.1776 C   0  0  0  0  0  0  0  0  0  0  0  0
    6.9192    9.1053   20.9073 O   0  0  0  0  0  0  0  0  0  0  0  0
   14.3979    6.0729   18.7784 C   0  0  0  0  0  0  0  0  0  0  0  0
    8.6811    9.5354   16.9998 C   0  0  0  0  0  0  0  0  0  0  0  0
    9.2512    4.2713   13.7653 O   0  0  0  0  0  0  0  0  0  0  0  0
    9.6495    8.6317   16.8332 N   0  0  0  0  0  0  0  0  0  0  0  0
    6.2934    8.6988   23.1988 O   0  0  0  0  0  0  0  0  0  0  0  0
    7.9806    8.6543   20.5437 C   0  0  0  0  0  0  0  0  0  0  0  0
   13.7270    5.7144   19.8610 O   0  0  0  0  0  0  0  0  0  0  0  0
    8.3351    5.5235   15.4478 C   0  0  0  0  0  0  0  0  0  0  0  0
    8.7700    7.8434   21.3915 C   0  0  0  0  0  0  0  0  0  0  0  0
   11.7856    6.8851   19.2401 C   0  0  0  0  0  0  0  0  0  0  0  0
   10.5281    7.4276   19.5649 C   0  0  0  0  0  0  0  0  0  0  0  0
   10.0256    7.2907   20.8484 C   0  0  0  0  0  0  0  0  0  0  0  0
    9.3113    5.3049   14.4911 C   0  0  0  0  0  0  0  0  0  0  0  0
    9.4607    7.5646   16.0139 C   0  0  0  0  0  0  0  0  0  0  0  0
   10.4192    7.3157   15.0955 C   0  0  0  0  0  0  0  0  0  0  0  0
   10.2489    6.4227   23.0218 N   0  0  0  0  0  0  0  0  0  0  0  0
    7.2472    8.0746   23.5050 C   0  0  0  0  0  0  0  0  0  0  0  0
    9.2051    6.9101   23.4604 C   0  0  0  0  0  0  0  0  0  0  0  0
   11.9646    6.0299   21.4251 C   0  0  0  0  0  0  0  0  0  0  0  0
  1  5  1  0
  1 13  1  0
  2 20  2  0
  2 28  1  0
  2 29  1  0
  3 19  4  0
  3 25  4  0
  4 23  4  0
  4 27  1  0
  4 30  4  0
  5 17  1  0
  6  8  1  0
  6 29  1  0
  7 24  4  0
  7 26  4  0
  8 28  1  0
  9 13  2  0
 10 18  1  0
 10 21  4  0
 10 30  4  0
 11 17  2  0
 12 18  1  0
 13 15  1  0
 14 24  1  0
 15 25  1  0
 16 28  2  0
 17 20  1  0
 19 24  4  0
 20 23  1  0
 21 22  4  0
 22 23  4  0
 25 26  4  0
 27 29  2  0
M  END
$$$$

 Created by Python create_sdf_string function

 30 33  0  0  0  0  0  0  0  0999 V2000
    8.3036    9.8571   18.4133 C   0  0  0  0  0  0  0  0  0  0  0  0
    8.3694    7.6612   22.6703 C   0  0  0  0  0  0  0  0  0  0  0  0
    8.4143    6.6863   16.2273 C   0  0  0  0  0  0  0  0  0  0  0  0
   10.7581    6.5674   21.7636 C   0  0  0  0  0  0  0  0  0  0  0  0
    8.4452    8.7960   19.2958 O   0  0  0  0  0  0  0  0  0  0  0  0
    8.7122    6.7842   24.8569 C   0  0  0  0  0  0  0  0  0  0  0  0
   10.3400    6.1726   14.3081 C   0  0  0  0  0  0  0  0  0  0  0  0
    7.4297    7.5873   24.8962 C   0  0  0  0  0  0  0  0  0  0  0  0
    8.1566   10.0536   16.0516 O   0  0  0  0  0  0  0  0  0  0  0  0
   12.4989    6.2074   20.1776 C   0  0  0  0  0  0  0  0  0  0  0  0
    6.9192    9.1053   20.9073 O   0  0  0  0  0  0  0  0  0  0  0  0
   14.3979    6.0729   18.7784 C   0  0  0  0  0  0  0  0  0  0  0  0
    8.6811    9.5354   16.9998 C   0  0  0  0  0  0  0  0  0  0  0  0
    9.2512    4.2713   13.7653 O   0  0  0  0  0  0  0  0  0  0  0  0
    9.6495    8.6317   16.8332 N   0  0  0  0  0  0  0  0  0  0  0  0
    6.2934    8.6988   23.1988 O   0  0  0  0  0  0  0  0  0  0  0  0
    7.9806    8.6543   20.5437 C   0  0  0  0  0  0  0  0  0  0  0  0
   13.7270    5.7144   19.8610 O   0  0  0  0  0  0  0  0  0  0  0  0
    8.3351    5.5235   15.4478 C   0  0  0  0  0  0  0  0  0  0  0  0
    8.7700    7.8434   21.3915 C   0  0  0  0  0  0  0  0  0  0  0  0
   11.7856    6.8851   19.2401 C   0  0  0  0  0  0  0  0  0  0  0  0
   10.5281    7.4276   19.5649 C   0  0  0  0  0  0  0  0  0  0  0  0
   10.0256    7.2907   20.8484 C   0  0  0  0  0  0  0  0  0  0  0  0
    9.3113    5.3049   14.4911 C   0  0  0  0  0  0  0  0  0  0  0  0
    9.4607    7.5646   16.0139 C   0  0  0  0  0  0  0  0  0  0  0  0
   10.4192    7.3157   15.0955 C   0  0  0  0  0  0  0  0  0  0  0  0
   10.2489    6.4227   23.0218 N   0  0  0  0  0  0  0  0  0  0  0  0
    7.2472    8.0746   23.5050 C   0  0  0  0  0  0  0  0  0  0  0  0
    9.2051    6.9101   23.4604 C   0  0  0  0  0  0  0  0  0  0  0  0
   11.9646    6.0299   21.4251 C   0  0  0  0  0  0  0  0  0  0  0  0
  1  5  1  0
  1 13  1  0
  2 20  2  0
  2 28  1  0
  2 29  1  0
  3 19  4  0
  3 25  4  0
  4 23  4  0
  4 27  1  0
  4 30  4  0
  5 17  1  0
  6  8  1  0
  6 29  1  0
  7 24  4  0
  7 26  4  0
  8 28  1  0
  9 13  2  0
 10 18  1  0
 10 21  4  0
 10 30  4  0
 11 17  2  0
 12 18  1  0
 13 15  1  0
 14 24  1  0
 15 25  1  0
 16 28  2  0
 17 20  1  0
 19 24  4  0
 20 23  1  0
 21 22  4  0
 22 23  4  0
 25 26  4  0
 27 29  2  0
M  END
$$$$

 Created by Python create_sdf_string function

 30 33  0  0  0  0  0  0  0  0999 V2000
    8.3036    9.8571   18.4133 C   0  0  0  0  0  0  0  0  0  0  0  0
    8.3694    7.6612   22.6703 C   0  0  0  0  0  0  0  0  0  0  0  0
    8.4143    6.6863   16.2273 C   0  0  0  0  0  0  0  0  0  0  0  0
   10.7581    6.5674   21.7636 C   0  0  0  0  0  0  0  0  0  0  0  0
    8.4452    8.7960   19.2958 O   0  0  0  0  0  0  0  0  0  0  0  0
    8.7122    6.7842   24.8569 C   0  0  0  0  0  0  0  0  0  0  0  0
   10.3400    6.1726   14.3081 C   0  0  0  0  0  0  0  0  0  0  0  0
    7.4297    7.5873   24.8962 C   0  0  0  0  0  0  0  0  0  0  0  0
    8.1566   10.0536   16.0516 O   0  0  0  0  0  0  0  0  0  0  0  0
   12.4989    6.2074   20.1776 C   0  0  0  0  0  0  0  0  0  0  0  0
    6.9192    9.1053   20.9073 O   0  0  0  0  0  0  0  0  0  0  0  0
   14.3979    6.0729   18.7784 C   0  0  0  0  0  0  0  0  0  0  0  0
    8.6811    9.5354   16.9998 C   0  0  0  0  0  0  0  0  0  0  0  0
    9.2512    4.2713   13.7653 O   0  0  0  0  0  0  0  0  0  0  0  0
    9.6495    8.6317   16.8332 N   0  0  0  0  0  0  0  0  0  0  0  0
    6.2934    8.6988   23.1988 O   0  0  0  0  0  0  0  0  0  0  0  0
    7.9806    8.6543   20.5437 C   0  0  0  0  0  0  0  0  0  0  0  0
   13.7270    5.7144   19.8610 O   0  0  0  0  0  0  0  0  0  0  0  0
    8.3351    5.5235   15.4478 C   0  0  0  0  0  0  0  0  0  0  0  0
    8.7700    7.8434   21.3915 C   0  0  0  0  0  0  0  0  0  0  0  0
   11.7856    6.8851   19.2401 C   0  0  0  0  0  0  0  0  0  0  0  0
   10.5281    7.4276   19.5649 C   0  0  0  0  0  0  0  0  0  0  0  0
   10.0256    7.2907   20.8484 C   0  0  0  0  0  0  0  0  0  0  0  0
    9.3113    5.3049   14.4911 C   0  0  0  0  0  0  0  0  0  0  0  0
    9.4607    7.5646   16.0139 C   0  0  0  0  0  0  0  0  0  0  0  0
   10.4192    7.3157   15.0955 C   0  0  0  0  0  0  0  0  0  0  0  0
   10.2489    6.4227   23.0218 N   0  0  0  0  0  0  0  0  0  0  0  0
    7.2472    8.0746   23.5050 C   0  0  0  0  0  0  0  0  0  0  0  0
    9.2051    6.9101   23.4604 C   0  0  0  0  0  0  0  0  0  0  0  0
   11.9646    6.0299   21.4251 C   0  0  0  0  0  0  0  0  0  0  0  0
  1  5  1  0
  1 13  1  0
  2 20  2  0
  2 28  1  0
  2 29  1  0
  3 19  4  0
  3 25  4  0
  4 23  4  0
  4 27  1  0
  4 30  4  0
  5 17  1  0
  6  8  1  0
  6 29  1  0
  7 24  4  0
  7 26  4  0
  8 28  1  0
  9 13  2  0
 10 18  1  0
 10 21  4  0
 10 30  4  0
 11 17  2  0
 12 18  1  0
 13 15  1  0
 14 24  1  0
 15 25  1  0
 16 28  2  0
 17 20  1  0
 19 24  4  0
 20 23  1  0
 21 22  4  0
 22 23  4  0
 25 26  4  0
 27 29  2  0
M  END
$$$$

 Created by Python create_sdf_string function

 30 33  0  0  0  0  0  0  0  0999 V2000
    8.3036    9.8571   18.4133 C   0  0  0  0  0  0  0  0  0  0  0  0
    8.3694    7.6612   22.6703 C   0  0  0  0  0  0  0  0  0  0  0  0
    8.4143    6.6863   16.2273 C   0  0  0  0  0  0  0  0  0  0  0  0
   10.7581    6.5674   21.7636 C   0  0  0  0  0  0  0  0  0  0  0  0
    8.4452    8.7960   19.2958 O   0  0  0  0  0  0  0  0  0  0  0  0
    8.7122    6.7842   24.8569 C   0  0  0  0  0  0  0  0  0  0  0  0
   10.3400    6.1726   14.3081 C   0  0  0  0  0  0  0  0  0  0  0  0
    7.4297    7.5873   24.8962 C   0  0  0  0  0  0  0  0  0  0  0  0
    8.1566   10.0536   16.0516 O   0  0  0  0  0  0  0  0  0  0  0  0
   12.4989    6.2074   20.1776 C   0  0  0  0  0  0  0  0  0  0  0  0
    6.9192    9.1053   20.9073 O   0  0  0  0  0  0  0  0  0  0  0  0
   14.3979    6.0729   18.7784 C   0  0  0  0  0  0  0  0  0  0  0  0
    8.6811    9.5354   16.9998 C   0  0  0  0  0  0  0  0  0  0  0  0
    9.2512    4.2713   13.7653 O   0  0  0  0  0  0  0  0  0  0  0  0
    9.6495    8.6317   16.8332 N   0  0  0  0  0  0  0  0  0  0  0  0
    6.2934    8.6988   23.1988 O   0  0  0  0  0  0  0  0  0  0  0  0
    7.9806    8.6543   20.5437 C   0  0  0  0  0  0  0  0  0  0  0  0
   13.7270    5.7144   19.8610 O   0  0  0  0  0  0  0  0  0  0  0  0
    8.3351    5.5235   15.4478 C   0  0  0  0  0  0  0  0  0  0  0  0
    8.7700    7.8434   21.3915 C   0  0  0  0  0  0  0  0  0  0  0  0
   11.7856    6.8851   19.2401 C   0  0  0  0  0  0  0  0  0  0  0  0
   10.5281    7.4276   19.5649 C   0  0  0  0  0  0  0  0  0  0  0  0
   10.0256    7.2907   20.8484 C   0  0  0  0  0  0  0  0  0  0  0  0
    9.3113    5.3049   14.4911 C   0  0  0  0  0  0  0  0  0  0  0  0
    9.4607    7.5646   16.0139 C   0  0  0  0  0  0  0  0  0  0  0  0
   10.4192    7.3157   15.0955 C   0  0  0  0  0  0  0  0  0  0  0  0
   10.2489    6.4227   23.0218 N   0  0  0  0  0  0  0  0  0  0  0  0
    7.2472    8.0746   23.5050 C   0  0  0  0  0  0  0  0  0  0  0  0
    9.2051    6.9101   23.4604 C   0  0  0  0  0  0  0  0  0  0  0  0
   11.9646    6.0299   21.4251 C   0  0  0  0  0  0  0  0  0  0  0  0
  1  5  1  0
  1 13  1  0
  2 20  2  0
  2 28  1  0
  2 29  1  0
  3 19  4  0
  3 25  4  0
  4 23  4  0
  4 27  1  0
  4 30  4  0
  5 17  1  0
  6  8  1  0
  6 29  1  0
  7 24  4  0
  7 26  4  0
  8 28  1  0
  9 13  2  0
 10 18  1  0
 10 21  4  0
 10 30  4  0
 11 17  2  0
 12 18  1  0
 13 15  1  0
 14 24  1  0
 15 25  1  0
 16 28  2  0
 17 20  1  0
 19 24  4  0
 20 23  1  0
 21 22  4  0
 22 23  4  0
 25 26  4  0
 27 29  2  0
M  END
$$$$

 Created by Python create_sdf_string function

 30 33  0  0  0  0  0  0  0  0999 V2000
    8.3036    9.8571   18.4133 C   0  0  0  0  0  0  0  0  0  0  0  0
    8.3694    7.6612   22.6703 C   0  0  0  0  0  0  0  0  0  0  0  0
    8.4143    6.6863   16.2273 C   0  0  0  0  0  0  0  0  0  0  0  0
   10.7581    6.5674   21.7636 C   0  0  0  0  0  0  0  0  0  0  0  0
    8.4452    8.7960   19.2958 O   0  0  0  0  0  0  0  0  0  0  0  0
    8.7122    6.7842   24.8569 C   0  0  0  0  0  0  0  0  0  0  0  0
   10.3400    6.1726   14.3081 C   0  0  0  0  0  0  0  0  0  0  0  0
    7.4297    7.5873   24.8962 C   0  0  0  0  0  0  0  0  0  0  0  0
    8.1566   10.0536   16.0516 O   0  0  0  0  0  0  0  0  0  0  0  0
   12.4989    6.2074   20.1776 C   0  0  0  0  0  0  0  0  0  0  0  0
    6.9192    9.1053   20.9073 O   0  0  0  0  0  0  0  0  0  0  0  0
   14.3979    6.0729   18.7784 C   0  0  0  0  0  0  0  0  0  0  0  0
    8.6811    9.5354   16.9998 C   0  0  0  0  0  0  0  0  0  0  0  0
    9.2512    4.2713   13.7653 O   0  0  0  0  0  0  0  0  0  0  0  0
    9.6495    8.6317   16.8332 N   0  0  0  0  0  0  0  0  0  0  0  0
    6.2934    8.6988   23.1988 O   0  0  0  0  0  0  0  0  0  0  0  0
    7.9806    8.6543   20.5437 C   0  0  0  0  0  0  0  0  0  0  0  0
   13.7270    5.7144   19.8610 O   0  0  0  0  0  0  0  0  0  0  0  0
    8.3351    5.5235   15.4478 C   0  0  0  0  0  0  0  0  0  0  0  0
    8.7700    7.8434   21.3915 C   0  0  0  0  0  0  0  0  0  0  0  0
   11.7856    6.8851   19.2401 C   0  0  0  0  0  0  0  0  0  0  0  0
   10.5281    7.4276   19.5649 C   0  0  0  0  0  0  0  0  0  0  0  0
   10.0256    7.2907   20.8484 C   0  0  0  0  0  0  0  0  0  0  0  0
    9.3113    5.3049   14.4911 C   0  0  0  0  0  0  0  0  0  0  0  0
    9.4607    7.5646   16.0139 C   0  0  0  0  0  0  0  0  0  0  0  0
   10.4192    7.3157   15.0955 C   0  0  0  0  0  0  0  0  0  0  0  0
   10.2489    6.4227   23.0218 N   0  0  0  0  0  0  0  0  0  0  0  0
    7.2472    8.0746   23.5050 C   0  0  0  0  0  0  0  0  0  0  0  0
    9.2051    6.9101   23.4604 C   0  0  0  0  0  0  0  0  0  0  0  0
   11.9646    6.0299   21.4251 C   0  0  0  0  0  0  0  0  0  0  0  0
  1  5  1  0
  1 13  1  0
  2 20  2  0
  2 28  1  0
  2 29  1  0
  3 19  4  0
  3 25  4  0
  4 23  4  0
  4 27  1  0
  4 30  4  0
  5 17  1  0
  6  8  1  0
  6 29  1  0
  7 24  4  0
  7 26  4  0
  8 28  1  0
  9 13  2  0
 10 18  1  0
 10 21  4  0
 10 30  4  0
 11 17  2  0
 12 18  1  0
 13 15  1  0
 14 24  1  0
 15 25  1  0
 16 28  2  0
 17 20  1  0
 19 24  4  0
 20 23  1  0
 21 22  4  0
 22 23  4  0
 25 26  4  0
 27 29  2  0
M  END
$$$$

 Created by Python create_sdf_string function

 30 33  0  0  0  0  0  0  0  0999 V2000
    8.3036    9.8571   18.4133 C   0  0  0  0  0  0  0  0  0  0  0  0
    8.3694    7.6612   22.6703 C   0  0  0  0  0  0  0  0  0  0  0  0
    8.4143    6.6863   16.2273 C   0  0  0  0  0  0  0  0  0  0  0  0
   10.7581    6.5674   21.7636 C   0  0  0  0  0  0  0  0  0  0  0  0
    8.4452    8.7960   19.2958 O   0  0  0  0  0  0  0  0  0  0  0  0
    8.7122    6.7842   24.8569 C   0  0  0  0  0  0  0  0  0  0  0  0
   10.3400    6.1726   14.3081 C   0  0  0  0  0  0  0  0  0  0  0  0
    7.4297    7.5873   24.8962 C   0  0  0  0  0  0  0  0  0  0  0  0
    8.1566   10.0536   16.0516 O   0  0  0  0  0  0  0  0  0  0  0  0
   12.4989    6.2074   20.1776 C   0  0  0  0  0  0  0  0  0  0  0  0
    6.9192    9.1053   20.9073 O   0  0  0  0  0  0  0  0  0  0  0  0
   14.3979    6.0729   18.7784 C   0  0  0  0  0  0  0  0  0  0  0  0
    8.6811    9.5354   16.9998 C   0  0  0  0  0  0  0  0  0  0  0  0
    9.2512    4.2713   13.7653 O   0  0  0  0  0  0  0  0  0  0  0  0
    9.6495    8.6317   16.8332 N   0  0  0  0  0  0  0  0  0  0  0  0
    6.2934    8.6988   23.1988 O   0  0  0  0  0  0  0  0  0  0  0  0
    7.9806    8.6543   20.5437 C   0  0  0  0  0  0  0  0  0  0  0  0
   13.7270    5.7144   19.8610 O   0  0  0  0  0  0  0  0  0  0  0  0
    8.3351    5.5235   15.4478 C   0  0  0  0  0  0  0  0  0  0  0  0
    8.7700    7.8434   21.3915 C   0  0  0  0  0  0  0  0  0  0  0  0
   11.7856    6.8851   19.2401 C   0  0  0  0  0  0  0  0  0  0  0  0
   10.5281    7.4276   19.5649 C   0  0  0  0  0  0  0  0  0  0  0  0
   10.0256    7.2907   20.8484 C   0  0  0  0  0  0  0  0  0  0  0  0
    9.3113    5.3049   14.4911 C   0  0  0  0  0  0  0  0  0  0  0  0
    9.4607    7.5646   16.0139 C   0  0  0  0  0  0  0  0  0  0  0  0
   10.4192    7.3157   15.0955 C   0  0  0  0  0  0  0  0  0  0  0  0
   10.2489    6.4227   23.0218 N   0  0  0  0  0  0  0  0  0  0  0  0
    7.2472    8.0746   23.5050 C   0  0  0  0  0  0  0  0  0  0  0  0
    9.2051    6.9101   23.4604 C   0  0  0  0  0  0  0  0  0  0  0  0
   11.9646    6.0299   21.4251 C   0  0  0  0  0  0  0  0  0  0  0  0
  1  5  1  0
  1 13  1  0
  2 20  2  0
  2 28  1  0
  2 29  1  0
  3 19  4  0
  3 25  4  0
  4 23  4  0
  4 27  1  0
  4 30  4  0
  5 17  1  0
  6  8  1  0
  6 29  1  0
  7 24  4  0
  7 26  4  0
  8 28  1  0
  9 13  2  0
 10 18  1  0
 10 21  4  0
 10 30  4  0
 11 17  2  0
 12 18  1  0
 13 15  1  0
 14 24  1  0
 15 25  1  0
 16 28  2  0
 17 20  1  0
 19 24  4  0
 20 23  1  0
 21 22  4  0
 22 23  4  0
 25 26  4  0
 27 29  2  0
M  END
$$$$

 Created by Python create_sdf_string function

 30 33  0  0  0  0  0  0  0  0999 V2000
    8.3036    9.8571   18.4133 C   0  0  0  0  0  0  0  0  0  0  0  0
    8.3694    7.6612   22.6703 C   0  0  0  0  0  0  0  0  0  0  0  0
    8.4143    6.6863   16.2273 C   0  0  0  0  0  0  0  0  0  0  0  0
   10.7581    6.5674   21.7636 C   0  0  0  0  0  0  0  0  0  0  0  0
    8.4452    8.7960   19.2958 O   0  0  0  0  0  0  0  0  0  0  0  0
    8.7122    6.7842   24.8569 C   0  0  0  0  0  0  0  0  0  0  0  0
   10.3400    6.1726   14.3081 C   0  0  0  0  0  0  0  0  0  0  0  0
    7.4297    7.5873   24.8962 C   0  0  0  0  0  0  0  0  0  0  0  0
    8.1566   10.0536   16.0516 O   0  0  0  0  0  0  0  0  0  0  0  0
   12.4989    6.2074   20.1776 C   0  0  0  0  0  0  0  0  0  0  0  0
    6.9192    9.1053   20.9073 O   0  0  0  0  0  0  0  0  0  0  0  0
   14.3979    6.0729   18.7784 C   0  0  0  0  0  0  0  0  0  0  0  0
    8.6811    9.5354   16.9998 C   0  0  0  0  0  0  0  0  0  0  0  0
    9.2512    4.2713   13.7653 O   0  0  0  0  0  0  0  0  0  0  0  0
    9.6495    8.6317   16.8332 N   0  0  0  0  0  0  0  0  0  0  0  0
    6.2934    8.6988   23.1988 O   0  0  0  0  0  0  0  0  0  0  0  0
    7.9806    8.6543   20.5437 C   0  0  0  0  0  0  0  0  0  0  0  0
   13.7270    5.7144   19.8610 O   0  0  0  0  0  0  0  0  0  0  0  0
    8.3351    5.5235   15.4478 C   0  0  0  0  0  0  0  0  0  0  0  0
    8.7700    7.8434   21.3915 C   0  0  0  0  0  0  0  0  0  0  0  0
   11.7856    6.8851   19.2401 C   0  0  0  0  0  0  0  0  0  0  0  0
   10.5281    7.4276   19.5649 C   0  0  0  0  0  0  0  0  0  0  0  0
   10.0256    7.2907   20.8484 C   0  0  0  0  0  0  0  0  0  0  0  0
    9.3113    5.3049   14.4911 C   0  0  0  0  0  0  0  0  0  0  0  0
    9.4607    7.5646   16.0139 C   0  0  0  0  0  0  0  0  0  0  0  0
   10.4192    7.3157   15.0955 C   0  0  0  0  0  0  0  0  0  0  0  0
   10.2489    6.4227   23.0218 N   0  0  0  0  0  0  0  0  0  0  0  0
    7.2472    8.0746   23.5050 C   0  0  0  0  0  0  0  0  0  0  0  0
    9.2051    6.9101   23.4604 C   0  0  0  0  0  0  0  0  0  0  0  0
   11.9646    6.0299   21.4251 C   0  0  0  0  0  0  0  0  0  0  0  0
  1  5  1  0
  1 13  1  0
  2 20  2  0
  2 28  1  0
  2 29  1  0
  3 19  4  0
  3 25  4  0
  4 23  4  0
  4 27  1  0
  4 30  4  0
  5 17  1  0
  6  8  1  0
  6 29  1  0
  7 24  4  0
  7 26  4  0
  8 28  1  0
  9 13  2  0
 10 18  1  0
 10 21  4  0
 10 30  4  0
 11 17  2  0
 12 18  1  0
 13 15  1  0
 14 24  1  0
 15 25  1  0
 16 28  2  0
 17 20  1  0
 19 24  4  0
 20 23  1  0
 21 22  4  0
 22 23  4  0
 25 26  4  0
 27 29  2  0
M  END
$$$$

 Created by Python create_sdf_string function

 30 33  0  0  0  0  0  0  0  0999 V2000
    8.3036    9.8571   18.4133 C   0  0  0  0  0  0  0  0  0  0  0  0
    8.3694    7.6612   22.6703 C   0  0  0  0  0  0  0  0  0  0  0  0
    8.4143    6.6863   16.2273 C   0  0  0  0  0  0  0  0  0  0  0  0
   10.7581    6.5674   21.7636 C   0  0  0  0  0  0  0  0  0  0  0  0
    8.4452    8.7960   19.2958 O   0  0  0  0  0  0  0  0  0  0  0  0
    8.7122    6.7842   24.8569 C   0  0  0  0  0  0  0  0  0  0  0  0
   10.3400    6.1726   14.3081 C   0  0  0  0  0  0  0  0  0  0  0  0
    7.4297    7.5873   24.8962 C   0  0  0  0  0  0  0  0  0  0  0  0
    8.1566   10.0536   16.0516 O   0  0  0  0  0  0  0  0  0  0  0  0
   12.4989    6.2074   20.1776 C   0  0  0  0  0  0  0  0  0  0  0  0
    6.9192    9.1053   20.9073 O   0  0  0  0  0  0  0  0  0  0  0  0
   14.3979    6.0729   18.7784 C   0  0  0  0  0  0  0  0  0  0  0  0
    8.6811    9.5354   16.9998 C   0  0  0  0  0  0  0  0  0  0  0  0
    9.2512    4.2713   13.7653 O   0  0  0  0  0  0  0  0  0  0  0  0
    9.6495    8.6317   16.8332 N   0  0  0  0  0  0  0  0  0  0  0  0
    6.2934    8.6988   23.1988 O   0  0  0  0  0  0  0  0  0  0  0  0
    7.9806    8.6543   20.5437 C   0  0  0  0  0  0  0  0  0  0  0  0
   13.7270    5.7144   19.8610 O   0  0  0  0  0  0  0  0  0  0  0  0
    8.3351    5.5235   15.4478 C   0  0  0  0  0  0  0  0  0  0  0  0
    8.7700    7.8434   21.3915 C   0  0  0  0  0  0  0  0  0  0  0  0
   11.7856    6.8851   19.2401 C   0  0  0  0  0  0  0  0  0  0  0  0
   10.5281    7.4276   19.5649 C   0  0  0  0  0  0  0  0  0  0  0  0
   10.0256    7.2907   20.8484 C   0  0  0  0  0  0  0  0  0  0  0  0
    9.3113    5.3049   14.4911 C   0  0  0  0  0  0  0  0  0  0  0  0
    9.4607    7.5646   16.0139 C   0  0  0  0  0  0  0  0  0  0  0  0
   10.4192    7.3157   15.0955 C   0  0  0  0  0  0  0  0  0  0  0  0
   10.2489    6.4227   23.0218 N   0  0  0  0  0  0  0  0  0  0  0  0
    7.2472    8.0746   23.5050 C   0  0  0  0  0  0  0  0  0  0  0  0
    9.2051    6.9101   23.4604 C   0  0  0  0  0  0  0  0  0  0  0  0
   11.9646    6.0299   21.4251 C   0  0  0  0  0  0  0  0  0  0  0  0
  1  5  1  0
  1 13  1  0
  2 20  2  0
  2 28  1  0
  2 29  1  0
  3 19  4  0
  3 25  4  0
  4 23  4  0
  4 27  1  0
  4 30  4  0
  5 17  1  0
  6  8  1  0
  6 29  1  0
  7 24  4  0
  7 26  4  0
  8 28  1  0
  9 13  2  0
 10 18  1  0
 10 21  4  0
 10 30  4  0
 11 17  2  0
 12 18  1  0
 13 15  1  0
 14 24  1  0
 15 25  1  0
 16 28  2  0
 17 20  1  0
 19 24  4  0
 20 23  1  0
 21 22  4  0
 22 23  4  0
 25 26  4  0
 27 29  2  0
M  END
$$$$

 Created by Python create_sdf_string function

 30 33  0  0  0  0  0  0  0  0999 V2000
    8.3036    9.8571   18.4133 C   0  0  0  0  0  0  0  0  0  0  0  0
    8.3694    7.6612   22.6703 C   0  0  0  0  0  0  0  0  0  0  0  0
    8.4143    6.6863   16.2273 C   0  0  0  0  0  0  0  0  0  0  0  0
   10.7581    6.5674   21.7636 C   0  0  0  0  0  0  0  0  0  0  0  0
    8.4452    8.7960   19.2958 O   0  0  0  0  0  0  0  0  0  0  0  0
    8.7122    6.7842   24.8569 C   0  0  0  0  0  0  0  0  0  0  0  0
   10.3400    6.1726   14.3081 C   0  0  0  0  0  0  0  0  0  0  0  0
    7.4297    7.5873   24.8962 C   0  0  0  0  0  0  0  0  0  0  0  0
    8.1566   10.0536   16.0516 O   0  0  0  0  0  0  0  0  0  0  0  0
   12.4989    6.2074   20.1776 C   0  0  0  0  0  0  0  0  0  0  0  0
    6.9192    9.1053   20.9073 O   0  0  0  0  0  0  0  0  0  0  0  0
   14.3979    6.0729   18.7784 C   0  0  0  0  0  0  0  0  0  0  0  0
    8.6811    9.5354   16.9998 C   0  0  0  0  0  0  0  0  0  0  0  0
    9.2512    4.2713   13.7653 O   0  0  0  0  0  0  0  0  0  0  0  0
    9.6495    8.6317   16.8332 N   0  0  0  0  0  0  0  0  0  0  0  0
    6.2934    8.6988   23.1988 O   0  0  0  0  0  0  0  0  0  0  0  0
    7.9806    8.6543   20.5437 C   0  0  0  0  0  0  0  0  0  0  0  0
   13.7270    5.7144   19.8610 O   0  0  0  0  0  0  0  0  0  0  0  0
    8.3351    5.5235   15.4478 C   0  0  0  0  0  0  0  0  0  0  0  0
    8.7700    7.8434   21.3915 C   0  0  0  0  0  0  0  0  0  0  0  0
   11.7856    6.8851   19.2401 C   0  0  0  0  0  0  0  0  0  0  0  0
   10.5281    7.4276   19.5649 C   0  0  0  0  0  0  0  0  0  0  0  0
   10.0256    7.2907   20.8484 C   0  0  0  0  0  0  0  0  0  0  0  0
    9.3113    5.3049   14.4911 C   0  0  0  0  0  0  0  0  0  0  0  0
    9.4607    7.5646   16.0139 C   0  0  0  0  0  0  0  0  0  0  0  0
   10.4192    7.3157   15.0955 C   0  0  0  0  0  0  0  0  0  0  0  0
   10.2489    6.4227   23.0218 N   0  0  0  0  0  0  0  0  0  0  0  0
    7.2472    8.0746   23.5050 C   0  0  0  0  0  0  0  0  0  0  0  0
    9.2051    6.9101   23.4604 C   0  0  0  0  0  0  0  0  0  0  0  0
   11.9646    6.0299   21.4251 C   0  0  0  0  0  0  0  0  0  0  0  0
  1  5  1  0
  1 13  1  0
  2 20  2  0
  2 28  1  0
  2 29  1  0
  3 19  4  0
  3 25  4  0
  4 23  4  0
  4 27  1  0
  4 30  4  0
  5 17  1  0
  6  8  1  0
  6 29  1  0
  7 24  4  0
  7 26  4  0
  8 28  1  0
  9 13  2  0
 10 18  1  0
 10 21  4  0
 10 30  4  0
 11 17  2  0
 12 18  1  0
 13 15  1  0
 14 24  1  0
 15 25  1  0
 16 28  2  0
 17 20  1  0
 19 24  4  0
 20 23  1  0
 21 22  4  0
 22 23  4  0
 25 26  4  0
 27 29  2  0
M  END
$$$$

 Created by Python create_sdf_string function

 30 33  0  0  0  0  0  0  0  0999 V2000
    8.3036    9.8571   18.4133 C   0  0  0  0  0  0  0  0  0  0  0  0
    8.3694    7.6612   22.6703 C   0  0  0  0  0  0  0  0  0  0  0  0
    8.4143    6.6863   16.2273 C   0  0  0  0  0  0  0  0  0  0  0  0
   10.7581    6.5674   21.7636 C   0  0  0  0  0  0  0  0  0  0  0  0
    8.4452    8.7960   19.2958 O   0  0  0  0  0  0  0  0  0  0  0  0
    8.7122    6.7842   24.8569 C   0  0  0  0  0  0  0  0  0  0  0  0
   10.3400    6.1726   14.3081 C   0  0  0  0  0  0  0  0  0  0  0  0
    7.4297    7.5873   24.8962 C   0  0  0  0  0  0  0  0  0  0  0  0
    8.1566   10.0536   16.0516 O   0  0  0  0  0  0  0  0  0  0  0  0
   12.4989    6.2074   20.1776 C   0  0  0  0  0  0  0  0  0  0  0  0
    6.9192    9.1053   20.9073 O   0  0  0  0  0  0  0  0  0  0  0  0
   14.3979    6.0729   18.7784 C   0  0  0  0  0  0  0  0  0  0  0  0
    8.6811    9.5354   16.9998 C   0  0  0  0  0  0  0  0  0  0  0  0
    9.2512    4.2713   13.7653 O   0  0  0  0  0  0  0  0  0  0  0  0
    9.6495    8.6317   16.8332 N   0  0  0  0  0  0  0  0  0  0  0  0
    6.2934    8.6988   23.1988 O   0  0  0  0  0  0  0  0  0  0  0  0
    7.9806    8.6543   20.5437 C   0  0  0  0  0  0  0  0  0  0  0  0
   13.7270    5.7144   19.8610 O   0  0  0  0  0  0  0  0  0  0  0  0
    8.3351    5.5235   15.4478 C   0  0  0  0  0  0  0  0  0  0  0  0
    8.7700    7.8434   21.3915 C   0  0  0  0  0  0  0  0  0  0  0  0
   11.7856    6.8851   19.2401 C   0  0  0  0  0  0  0  0  0  0  0  0
   10.5281    7.4276   19.5649 C   0  0  0  0  0  0  0  0  0  0  0  0
   10.0256    7.2907   20.8484 C   0  0  0  0  0  0  0  0  0  0  0  0
    9.3113    5.3049   14.4911 C   0  0  0  0  0  0  0  0  0  0  0  0
    9.4607    7.5646   16.0139 C   0  0  0  0  0  0  0  0  0  0  0  0
   10.4192    7.3157   15.0955 C   0  0  0  0  0  0  0  0  0  0  0  0
   10.2489    6.4227   23.0218 N   0  0  0  0  0  0  0  0  0  0  0  0
    7.2472    8.0746   23.5050 C   0  0  0  0  0  0  0  0  0  0  0  0
    9.2051    6.9101   23.4604 C   0  0  0  0  0  0  0  0  0  0  0  0
   11.9646    6.0299   21.4251 C   0  0  0  0  0  0  0  0  0  0  0  0
  1  5  1  0
  1 13  1  0
  2 20  2  0
  2 28  1  0
  2 29  1  0
  3 19  4  0
  3 25  4  0
  4 23  4  0
  4 27  1  0
  4 30  4  0
  5 17  1  0
  6  8  1  0
  6 29  1  0
  7 24  4  0
  7 26  4  0
  8 28  1  0
  9 13  2  0
 10 18  1  0
 10 21  4  0
 10 30  4  0
 11 17  2  0
 12 18  1  0
 13 15  1  0
 14 24  1  0
 15 25  1  0
 16 28  2  0
 17 20  1  0
 19 24  4  0
 20 23  1  0
 21 22  4  0
 22 23  4  0
 25 26  4  0
 27 29  2  0
M  END
$$$$

 Created by Python create_sdf_string function

 30 33  0  0  0  0  0  0  0  0999 V2000
    8.3036    9.8571   18.4133 C   0  0  0  0  0  0  0  0  0  0  0  0
    8.3694    7.6612   22.6703 C   0  0  0  0  0  0  0  0  0  0  0  0
    8.4143    6.6863   16.2273 C   0  0  0  0  0  0  0  0  0  0  0  0
   10.7581    6.5674   21.7636 C   0  0  0  0  0  0  0  0  0  0  0  0
    8.4452    8.7960   19.2958 O   0  0  0  0  0  0  0  0  0  0  0  0
    8.7122    6.7842   24.8569 C   0  0  0  0  0  0  0  0  0  0  0  0
   10.3400    6.1726   14.3081 C   0  0  0  0  0  0  0  0  0  0  0  0
    7.4297    7.5873   24.8962 C   0  0  0  0  0  0  0  0  0  0  0  0
    8.1566   10.0536   16.0516 O   0  0  0  0  0  0  0  0  0  0  0  0
   12.4989    6.2074   20.1776 C   0  0  0  0  0  0  0  0  0  0  0  0
    6.9192    9.1053   20.9073 O   0  0  0  0  0  0  0  0  0  0  0  0
   14.3979    6.0729   18.7784 C   0  0  0  0  0  0  0  0  0  0  0  0
    8.6811    9.5354   16.9998 C   0  0  0  0  0  0  0  0  0  0  0  0
    9.2512    4.2713   13.7653 O   0  0  0  0  0  0  0  0  0  0  0  0
    9.6495    8.6317   16.8332 N   0  0  0  0  0  0  0  0  0  0  0  0
    6.2934    8.6988   23.1988 O   0  0  0  0  0  0  0  0  0  0  0  0
    7.9806    8.6543   20.5437 C   0  0  0  0  0  0  0  0  0  0  0  0
   13.7270    5.7144   19.8610 O   0  0  0  0  0  0  0  0  0  0  0  0
    8.3351    5.5235   15.4478 C   0  0  0  0  0  0  0  0  0  0  0  0
    8.7700    7.8434   21.3915 C   0  0  0  0  0  0  0  0  0  0  0  0
   11.7856    6.8851   19.2401 C   0  0  0  0  0  0  0  0  0  0  0  0
   10.5281    7.4276   19.5649 C   0  0  0  0  0  0  0  0  0  0  0  0
   10.0256    7.2907   20.8484 C   0  0  0  0  0  0  0  0  0  0  0  0
    9.3113    5.3049   14.4911 C   0  0  0  0  0  0  0  0  0  0  0  0
    9.4607    7.5646   16.0139 C   0  0  0  0  0  0  0  0  0  0  0  0
   10.4192    7.3157   15.0955 C   0  0  0  0  0  0  0  0  0  0  0  0
   10.2489    6.4227   23.0218 N   0  0  0  0  0  0  0  0  0  0  0  0
    7.2472    8.0746   23.5050 C   0  0  0  0  0  0  0  0  0  0  0  0
    9.2051    6.9101   23.4604 C   0  0  0  0  0  0  0  0  0  0  0  0
   11.9646    6.0299   21.4251 C   0  0  0  0  0  0  0  0  0  0  0  0
  1  5  1  0
  1 13  1  0
  2 20  2  0
  2 28  1  0
  2 29  1  0
  3 19  4  0
  3 25  4  0
  4 23  4  0
  4 27  1  0
  4 30  4  0
  5 17  1  0
  6  8  1  0
  6 29  1  0
  7 24  4  0
  7 26  4  0
  8 28  1  0
  9 13  2  0
 10 18  1  0
 10 21  4  0
 10 30  4  0
 11 17  2  0
 12 18  1  0
 13 15  1  0
 14 24  1  0
 15 25  1  0
 16 28  2  0
 17 20  1  0
 19 24  4  0
 20 23  1  0
 21 22  4  0
 22 23  4  0
 25 26  4  0
 27 29  2  0
M  END
$$$$

 Created by Python create_sdf_string function

 30 33  0  0  0  0  0  0  0  0999 V2000
    8.3036    9.8571   18.4133 C   0  0  0  0  0  0  0  0  0  0  0  0
    8.3694    7.6612   22.6703 C   0  0  0  0  0  0  0  0  0  0  0  0
    8.4143    6.6863   16.2273 C   0  0  0  0  0  0  0  0  0  0  0  0
   10.7581    6.5674   21.7636 C   0  0  0  0  0  0  0  0  0  0  0  0
    8.4452    8.7960   19.2958 O   0  0  0  0  0  0  0  0  0  0  0  0
    8.7122    6.7842   24.8569 C   0  0  0  0  0  0  0  0  0  0  0  0
   10.3400    6.1726   14.3081 C   0  0  0  0  0  0  0  0  0  0  0  0
    7.4297    7.5873   24.8962 C   0  0  0  0  0  0  0  0  0  0  0  0
    8.1566   10.0536   16.0516 O   0  0  0  0  0  0  0  0  0  0  0  0
   12.4989    6.2074   20.1776 C   0  0  0  0  0  0  0  0  0  0  0  0
    6.9192    9.1053   20.9073 O   0  0  0  0  0  0  0  0  0  0  0  0
   14.3979    6.0729   18.7784 C   0  0  0  0  0  0  0  0  0  0  0  0
    8.6811    9.5354   16.9998 C   0  0  0  0  0  0  0  0  0  0  0  0
    9.2512    4.2713   13.7653 O   0  0  0  0  0  0  0  0  0  0  0  0
    9.6495    8.6317   16.8332 N   0  0  0  0  0  0  0  0  0  0  0  0
    6.2934    8.6988   23.1988 O   0  0  0  0  0  0  0  0  0  0  0  0
    7.9806    8.6543   20.5437 C   0  0  0  0  0  0  0  0  0  0  0  0
   13.7270    5.7144   19.8610 O   0  0  0  0  0  0  0  0  0  0  0  0
    8.3351    5.5235   15.4478 C   0  0  0  0  0  0  0  0  0  0  0  0
    8.7700    7.8434   21.3915 C   0  0  0  0  0  0  0  0  0  0  0  0
   11.7856    6.8851   19.2401 C   0  0  0  0  0  0  0  0  0  0  0  0
   10.5281    7.4276   19.5649 C   0  0  0  0  0  0  0  0  0  0  0  0
   10.0256    7.2907   20.8484 C   0  0  0  0  0  0  0  0  0  0  0  0
    9.3113    5.3049   14.4911 C   0  0  0  0  0  0  0  0  0  0  0  0
    9.4607    7.5646   16.0139 C   0  0  0  0  0  0  0  0  0  0  0  0
   10.4192    7.3157   15.0955 C   0  0  0  0  0  0  0  0  0  0  0  0
   10.2489    6.4227   23.0218 N   0  0  0  0  0  0  0  0  0  0  0  0
    7.2472    8.0746   23.5050 C   0  0  0  0  0  0  0  0  0  0  0  0
    9.2051    6.9101   23.4604 C   0  0  0  0  0  0  0  0  0  0  0  0
   11.9646    6.0299   21.4251 C   0  0  0  0  0  0  0  0  0  0  0  0
  1  5  1  0
  1 13  1  0
  2 20  2  0
  2 28  1  0
  2 29  1  0
  3 19  4  0
  3 25  4  0
  4 23  4  0
  4 27  1  0
  4 30  4  0
  5 17  1  0
  6  8  1  0
  6 29  1  0
  7 24  4  0
  7 26  4  0
  8 28  1  0
  9 13  2  0
 10 18  1  0
 10 21  4  0
 10 30  4  0
 11 17  2  0
 12 18  1  0
 13 15  1  0
 14 24  1  0
 15 25  1  0
 16 28  2  0
 17 20  1  0
 19 24  4  0
 20 23  1  0
 21 22  4  0
 22 23  4  0
 25 26  4  0
 27 29  2  0
M  END
$$$$

 Created by Python create_sdf_string function

 30 33  0  0  0  0  0  0  0  0999 V2000
    8.3036    9.8571   18.4133 C   0  0  0  0  0  0  0  0  0  0  0  0
    8.3694    7.6612   22.6703 C   0  0  0  0  0  0  0  0  0  0  0  0
    8.4143    6.6863   16.2273 C   0  0  0  0  0  0  0  0  0  0  0  0
   10.7581    6.5674   21.7636 C   0  0  0  0  0  0  0  0  0  0  0  0
    8.4452    8.7960   19.2958 O   0  0  0  0  0  0  0  0  0  0  0  0
    8.7122    6.7842   24.8569 C   0  0  0  0  0  0  0  0  0  0  0  0
   10.3400    6.1726   14.3081 C   0  0  0  0  0  0  0  0  0  0  0  0
    7.4297    7.5873   24.8962 C   0  0  0  0  0  0  0  0  0  0  0  0
    8.1566   10.0536   16.0516 O   0  0  0  0  0  0  0  0  0  0  0  0
   12.4989    6.2074   20.1776 C   0  0  0  0  0  0  0  0  0  0  0  0
    6.9192    9.1053   20.9073 O   0  0  0  0  0  0  0  0  0  0  0  0
   14.3979    6.0729   18.7784 C   0  0  0  0  0  0  0  0  0  0  0  0
    8.6811    9.5354   16.9998 C   0  0  0  0  0  0  0  0  0  0  0  0
    9.2512    4.2713   13.7653 O   0  0  0  0  0  0  0  0  0  0  0  0
    9.6495    8.6317   16.8332 N   0  0  0  0  0  0  0  0  0  0  0  0
    6.2934    8.6988   23.1988 O   0  0  0  0  0  0  0  0  0  0  0  0
    7.9806    8.6543   20.5437 C   0  0  0  0  0  0  0  0  0  0  0  0
   13.7270    5.7144   19.8610 O   0  0  0  0  0  0  0  0  0  0  0  0
    8.3351    5.5235   15.4478 C   0  0  0  0  0  0  0  0  0  0  0  0
    8.7700    7.8434   21.3915 C   0  0  0  0  0  0  0  0  0  0  0  0
   11.7856    6.8851   19.2401 C   0  0  0  0  0  0  0  0  0  0  0  0
   10.5281    7.4276   19.5649 C   0  0  0  0  0  0  0  0  0  0  0  0
   10.0256    7.2907   20.8484 C   0  0  0  0  0  0  0  0  0  0  0  0
    9.3113    5.3049   14.4911 C   0  0  0  0  0  0  0  0  0  0  0  0
    9.4607    7.5646   16.0139 C   0  0  0  0  0  0  0  0  0  0  0  0
   10.4192    7.3157   15.0955 C   0  0  0  0  0  0  0  0  0  0  0  0
   10.2489    6.4227   23.0218 N   0  0  0  0  0  0  0  0  0  0  0  0
    7.2472    8.0746   23.5050 C   0  0  0  0  0  0  0  0  0  0  0  0
    9.2051    6.9101   23.4604 C   0  0  0  0  0  0  0  0  0  0  0  0
   11.9646    6.0299   21.4251 C   0  0  0  0  0  0  0  0  0  0  0  0
  1  5  1  0
  1 13  1  0
  2 20  2  0
  2 28  1  0
  2 29  1  0
  3 19  4  0
  3 25  4  0
  4 23  4  0
  4 27  1  0
  4 30  4  0
  5 17  1  0
  6  8  1  0
  6 29  1  0
  7 24  4  0
  7 26  4  0
  8 28  1  0
  9 13  2  0
 10 18  1  0
 10 21  4  0
 10 30  4  0
 11 17  2  0
 12 18  1  0
 13 15  1  0
 14 24  1  0
 15 25  1  0
 16 28  2  0
 17 20  1  0
 19 24  4  0
 20 23  1  0
 21 22  4  0
 22 23  4  0
 25 26  4  0
 27 29  2  0
M  END
$$$$

 Created by Python create_sdf_string function

 30 33  0  0  0  0  0  0  0  0999 V2000
    8.3036    9.8571   18.4133 C   0  0  0  0  0  0  0  0  0  0  0  0
    8.3694    7.6612   22.6703 C   0  0  0  0  0  0  0  0  0  0  0  0
    8.4143    6.6863   16.2273 C   0  0  0  0  0  0  0  0  0  0  0  0
   10.7581    6.5674   21.7636 C   0  0  0  0  0  0  0  0  0  0  0  0
    8.4452    8.7960   19.2958 O   0  0  0  0  0  0  0  0  0  0  0  0
    8.7122    6.7842   24.8569 C   0  0  0  0  0  0  0  0  0  0  0  0
   10.3400    6.1726   14.3081 C   0  0  0  0  0  0  0  0  0  0  0  0
    7.4297    7.5873   24.8962 C   0  0  0  0  0  0  0  0  0  0  0  0
    8.1566   10.0536   16.0516 O   0  0  0  0  0  0  0  0  0  0  0  0
   12.4989    6.2074   20.1776 C   0  0  0  0  0  0  0  0  0  0  0  0
    6.9192    9.1053   20.9073 O   0  0  0  0  0  0  0  0  0  0  0  0
   14.3979    6.0729   18.7784 C   0  0  0  0  0  0  0  0  0  0  0  0
    8.6811    9.5354   16.9998 C   0  0  0  0  0  0  0  0  0  0  0  0
    9.2512    4.2713   13.7653 O   0  0  0  0  0  0  0  0  0  0  0  0
    9.6495    8.6317   16.8332 N   0  0  0  0  0  0  0  0  0  0  0  0
    6.2934    8.6988   23.1988 O   0  0  0  0  0  0  0  0  0  0  0  0
    7.9806    8.6543   20.5437 C   0  0  0  0  0  0  0  0  0  0  0  0
   13.7270    5.7144   19.8610 O   0  0  0  0  0  0  0  0  0  0  0  0
    8.3351    5.5235   15.4478 C   0  0  0  0  0  0  0  0  0  0  0  0
    8.7700    7.8434   21.3915 C   0  0  0  0  0  0  0  0  0  0  0  0
   11.7856    6.8851   19.2401 C   0  0  0  0  0  0  0  0  0  0  0  0
   10.5281    7.4276   19.5649 C   0  0  0  0  0  0  0  0  0  0  0  0
   10.0256    7.2907   20.8484 C   0  0  0  0  0  0  0  0  0  0  0  0
    9.3113    5.3049   14.4911 C   0  0  0  0  0  0  0  0  0  0  0  0
    9.4607    7.5646   16.0139 C   0  0  0  0  0  0  0  0  0  0  0  0
   10.4192    7.3157   15.0955 C   0  0  0  0  0  0  0  0  0  0  0  0
   10.2489    6.4227   23.0218 N   0  0  0  0  0  0  0  0  0  0  0  0
    7.2472    8.0746   23.5050 C   0  0  0  0  0  0  0  0  0  0  0  0
    9.2051    6.9101   23.4604 C   0  0  0  0  0  0  0  0  0  0  0  0
   11.9646    6.0299   21.4251 C   0  0  0  0  0  0  0  0  0  0  0  0
  1  5  1  0
  1 13  1  0
  2 20  2  0
  2 28  1  0
  2 29  1  0
  3 19  4  0
  3 25  4  0
  4 23  4  0
  4 27  1  0
  4 30  4  0
  5 17  1  0
  6  8  1  0
  6 29  1  0
  7 24  4  0
  7 26  4  0
  8 28  1  0
  9 13  2  0
 10 18  1  0
 10 21  4  0
 10 30  4  0
 11 17  2  0
 12 18  1  0
 13 15  1  0
 14 24  1  0
 15 25  1  0
 16 28  2  0
 17 20  1  0
 19 24  4  0
 20 23  1  0
 21 22  4  0
 22 23  4  0
 25 26  4  0
 27 29  2  0
M  END
$$$$

 Created by Python create_sdf_string function

 30 33  0  0  0  0  0  0  0  0999 V2000
    8.3036    9.8571   18.4133 C   0  0  0  0  0  0  0  0  0  0  0  0
    8.3694    7.6612   22.6703 C   0  0  0  0  0  0  0  0  0  0  0  0
    8.4143    6.6863   16.2273 C   0  0  0  0  0  0  0  0  0  0  0  0
   10.7581    6.5674   21.7636 C   0  0  0  0  0  0  0  0  0  0  0  0
    8.4452    8.7960   19.2958 O   0  0  0  0  0  0  0  0  0  0  0  0
    8.7122    6.7842   24.8569 C   0  0  0  0  0  0  0  0  0  0  0  0
   10.3400    6.1726   14.3081 C   0  0  0  0  0  0  0  0  0  0  0  0
    7.4297    7.5873   24.8962 C   0  0  0  0  0  0  0  0  0  0  0  0
    8.1566   10.0536   16.0516 O   0  0  0  0  0  0  0  0  0  0  0  0
   12.4989    6.2074   20.1776 C   0  0  0  0  0  0  0  0  0  0  0  0
    6.9192    9.1053   20.9073 O   0  0  0  0  0  0  0  0  0  0  0  0
   14.3979    6.0729   18.7784 C   0  0  0  0  0  0  0  0  0  0  0  0
    8.6811    9.5354   16.9998 C   0  0  0  0  0  0  0  0  0  0  0  0
    9.2512    4.2713   13.7653 O   0  0  0  0  0  0  0  0  0  0  0  0
    9.6495    8.6317   16.8332 N   0  0  0  0  0  0  0  0  0  0  0  0
    6.2934    8.6988   23.1988 O   0  0  0  0  0  0  0  0  0  0  0  0
    7.9806    8.6543   20.5437 C   0  0  0  0  0  0  0  0  0  0  0  0
   13.7270    5.7144   19.8610 O   0  0  0  0  0  0  0  0  0  0  0  0
    8.3351    5.5235   15.4478 C   0  0  0  0  0  0  0  0  0  0  0  0
    8.7700    7.8434   21.3915 C   0  0  0  0  0  0  0  0  0  0  0  0
   11.7856    6.8851   19.2401 C   0  0  0  0  0  0  0  0  0  0  0  0
   10.5281    7.4276   19.5649 C   0  0  0  0  0  0  0  0  0  0  0  0
   10.0256    7.2907   20.8484 C   0  0  0  0  0  0  0  0  0  0  0  0
    9.3113    5.3049   14.4911 C   0  0  0  0  0  0  0  0  0  0  0  0
    9.4607    7.5646   16.0139 C   0  0  0  0  0  0  0  0  0  0  0  0
   10.4192    7.3157   15.0955 C   0  0  0  0  0  0  0  0  0  0  0  0
   10.2489    6.4227   23.0218 N   0  0  0  0  0  0  0  0  0  0  0  0
    7.2472    8.0746   23.5050 C   0  0  0  0  0  0  0  0  0  0  0  0
    9.2051    6.9101   23.4604 C   0  0  0  0  0  0  0  0  0  0  0  0
   11.9646    6.0299   21.4251 C   0  0  0  0  0  0  0  0  0  0  0  0
  1  5  1  0
  1 13  1  0
  2 20  2  0
  2 28  1  0
  2 29  1  0
  3 19  4  0
  3 25  4  0
  4 23  4  0
  4 27  1  0
  4 30  4  0
  5 17  1  0
  6  8  1  0
  6 29  1  0
  7 24  4  0
  7 26  4  0
  8 28  1  0
  9 13  2  0
 10 18  1  0
 10 21  4  0
 10 30  4  0
 11 17  2  0
 12 18  1  0
 13 15  1  0
 14 24  1  0
 15 25  1  0
 16 28  2  0
 17 20  1  0
 19 24  4  0
 20 23  1  0
 21 22  4  0
 22 23  4  0
 25 26  4  0
 27 29  2  0
M  END
$$$$

 Created by Python create_sdf_string function

 30 33  0  0  0  0  0  0  0  0999 V2000
    8.3036    9.8571   18.4133 C   0  0  0  0  0  0  0  0  0  0  0  0
    8.3694    7.6612   22.6703 C   0  0  0  0  0  0  0  0  0  0  0  0
    8.4143    6.6863   16.2273 C   0  0  0  0  0  0  0  0  0  0  0  0
   10.7581    6.5674   21.7636 C   0  0  0  0  0  0  0  0  0  0  0  0
    8.4452    8.7960   19.2958 O   0  0  0  0  0  0  0  0  0  0  0  0
    8.7122    6.7842   24.8569 C   0  0  0  0  0  0  0  0  0  0  0  0
   10.3400    6.1726   14.3081 C   0  0  0  0  0  0  0  0  0  0  0  0
    7.4297    7.5873   24.8962 C   0  0  0  0  0  0  0  0  0  0  0  0
    8.1566   10.0536   16.0516 O   0  0  0  0  0  0  0  0  0  0  0  0
   12.4989    6.2074   20.1776 C   0  0  0  0  0  0  0  0  0  0  0  0
    6.9192    9.1053   20.9073 O   0  0  0  0  0  0  0  0  0  0  0  0
   14.3979    6.0729   18.7784 C   0  0  0  0  0  0  0  0  0  0  0  0
    8.6811    9.5354   16.9998 C   0  0  0  0  0  0  0  0  0  0  0  0
    9.2512    4.2713   13.7653 O   0  0  0  0  0  0  0  0  0  0  0  0
    9.6495    8.6317   16.8332 N   0  0  0  0  0  0  0  0  0  0  0  0
    6.2934    8.6988   23.1988 O   0  0  0  0  0  0  0  0  0  0  0  0
    7.9806    8.6543   20.5437 C   0  0  0  0  0  0  0  0  0  0  0  0
   13.7270    5.7144   19.8610 O   0  0  0  0  0  0  0  0  0  0  0  0
    8.3351    5.5235   15.4478 C   0  0  0  0  0  0  0  0  0  0  0  0
    8.7700    7.8434   21.3915 C   0  0  0  0  0  0  0  0  0  0  0  0
   11.7856    6.8851   19.2401 C   0  0  0  0  0  0  0  0  0  0  0  0
   10.5281    7.4276   19.5649 C   0  0  0  0  0  0  0  0  0  0  0  0
   10.0256    7.2907   20.8484 C   0  0  0  0  0  0  0  0  0  0  0  0
    9.3113    5.3049   14.4911 C   0  0  0  0  0  0  0  0  0  0  0  0
    9.4607    7.5646   16.0139 C   0  0  0  0  0  0  0  0  0  0  0  0
   10.4192    7.3157   15.0955 C   0  0  0  0  0  0  0  0  0  0  0  0
   10.2489    6.4227   23.0218 N   0  0  0  0  0  0  0  0  0  0  0  0
    7.2472    8.0746   23.5050 C   0  0  0  0  0  0  0  0  0  0  0  0
    9.2051    6.9101   23.4604 C   0  0  0  0  0  0  0  0  0  0  0  0
   11.9646    6.0299   21.4251 C   0  0  0  0  0  0  0  0  0  0  0  0
  1  5  1  0
  1 13  1  0
  2 20  2  0
  2 28  1  0
  2 29  1  0
  3 19  4  0
  3 25  4  0
  4 23  4  0
  4 27  1  0
  4 30  4  0
  5 17  1  0
  6  8  1  0
  6 29  1  0
  7 24  4  0
  7 26  4  0
  8 28  1  0
  9 13  2  0
 10 18  1  0
 10 21  4  0
 10 30  4  0
 11 17  2  0
 12 18  1  0
 13 15  1  0
 14 24  1  0
 15 25  1  0
 16 28  2  0
 17 20  1  0
 19 24  4  0
 20 23  1  0
 21 22  4  0
 22 23  4  0
 25 26  4  0
 27 29  2  0
M  END
$$$$

 Created by Python create_sdf_string function

 30 33  0  0  0  0  0  0  0  0999 V2000
    8.3036    9.8571   18.4133 C   0  0  0  0  0  0  0  0  0  0  0  0
    8.3694    7.6612   22.6703 C   0  0  0  0  0  0  0  0  0  0  0  0
    8.4143    6.6863   16.2273 C   0  0  0  0  0  0  0  0  0  0  0  0
   10.7581    6.5674   21.7636 C   0  0  0  0  0  0  0  0  0  0  0  0
    8.4452    8.7960   19.2958 O   0  0  0  0  0  0  0  0  0  0  0  0
    8.7122    6.7842   24.8569 C   0  0  0  0  0  0  0  0  0  0  0  0
   10.3400    6.1726   14.3081 C   0  0  0  0  0  0  0  0  0  0  0  0
    7.4297    7.5873   24.8962 C   0  0  0  0  0  0  0  0  0  0  0  0
    8.1566   10.0536   16.0516 O   0  0  0  0  0  0  0  0  0  0  0  0
   12.4989    6.2074   20.1776 C   0  0  0  0  0  0  0  0  0  0  0  0
    6.9192    9.1053   20.9073 O   0  0  0  0  0  0  0  0  0  0  0  0
   14.3979    6.0729   18.7784 C   0  0  0  0  0  0  0  0  0  0  0  0
    8.6811    9.5354   16.9998 C   0  0  0  0  0  0  0  0  0  0  0  0
    9.2512    4.2713   13.7653 O   0  0  0  0  0  0  0  0  0  0  0  0
    9.6495    8.6317   16.8332 N   0  0  0  0  0  0  0  0  0  0  0  0
    6.2934    8.6988   23.1988 O   0  0  0  0  0  0  0  0  0  0  0  0
    7.9806    8.6543   20.5437 C   0  0  0  0  0  0  0  0  0  0  0  0
   13.7270    5.7144   19.8610 O   0  0  0  0  0  0  0  0  0  0  0  0
    8.3351    5.5235   15.4478 C   0  0  0  0  0  0  0  0  0  0  0  0
    8.7700    7.8434   21.3915 C   0  0  0  0  0  0  0  0  0  0  0  0
   11.7856    6.8851   19.2401 C   0  0  0  0  0  0  0  0  0  0  0  0
   10.5281    7.4276   19.5649 C   0  0  0  0  0  0  0  0  0  0  0  0
   10.0256    7.2907   20.8484 C   0  0  0  0  0  0  0  0  0  0  0  0
    9.3113    5.3049   14.4911 C   0  0  0  0  0  0  0  0  0  0  0  0
    9.4607    7.5646   16.0139 C   0  0  0  0  0  0  0  0  0  0  0  0
   10.4192    7.3157   15.0955 C   0  0  0  0  0  0  0  0  0  0  0  0
   10.2489    6.4227   23.0218 N   0  0  0  0  0  0  0  0  0  0  0  0
    7.2472    8.0746   23.5050 C   0  0  0  0  0  0  0  0  0  0  0  0
    9.2051    6.9101   23.4604 C   0  0  0  0  0  0  0  0  0  0  0  0
   11.9646    6.0299   21.4251 C   0  0  0  0  0  0  0  0  0  0  0  0
  1  5  1  0
  1 13  1  0
  2 20  2  0
  2 28  1  0
  2 29  1  0
  3 19  4  0
  3 25  4  0
  4 23  4  0
  4 27  1  0
  4 30  4  0
  5 17  1  0
  6  8  1  0
  6 29  1  0
  7 24  4  0
  7 26  4  0
  8 28  1  0
  9 13  2  0
 10 18  1  0
 10 21  4  0
 10 30  4  0
 11 17  2  0
 12 18  1  0
 13 15  1  0
 14 24  1  0
 15 25  1  0
 16 28  2  0
 17 20  1  0
 19 24  4  0
 20 23  1  0
 21 22  4  0
 22 23  4  0
 25 26  4  0
 27 29  2  0
M  END
$$$$

 Created by Python create_sdf_string function

 30 33  0  0  0  0  0  0  0  0999 V2000
    8.3036    9.8571   18.4133 C   0  0  0  0  0  0  0  0  0  0  0  0
    8.3694    7.6612   22.6703 C   0  0  0  0  0  0  0  0  0  0  0  0
    8.4143    6.6863   16.2273 C   0  0  0  0  0  0  0  0  0  0  0  0
   10.7581    6.5674   21.7636 C   0  0  0  0  0  0  0  0  0  0  0  0
    8.4452    8.7960   19.2958 O   0  0  0  0  0  0  0  0  0  0  0  0
    8.7122    6.7842   24.8569 C   0  0  0  0  0  0  0  0  0  0  0  0
   10.3400    6.1726   14.3081 C   0  0  0  0  0  0  0  0  0  0  0  0
    7.4297    7.5873   24.8962 C   0  0  0  0  0  0  0  0  0  0  0  0
    8.1566   10.0536   16.0516 O   0  0  0  0  0  0  0  0  0  0  0  0
   12.4989    6.2074   20.1776 C   0  0  0  0  0  0  0  0  0  0  0  0
    6.9192    9.1053   20.9073 O   0  0  0  0  0  0  0  0  0  0  0  0
   14.3979    6.0729   18.7784 C   0  0  0  0  0  0  0  0  0  0  0  0
    8.6811    9.5354   16.9998 C   0  0  0  0  0  0  0  0  0  0  0  0
    9.2512    4.2713   13.7653 O   0  0  0  0  0  0  0  0  0  0  0  0
    9.6495    8.6317   16.8332 N   0  0  0  0  0  0  0  0  0  0  0  0
    6.2934    8.6988   23.1988 O   0  0  0  0  0  0  0  0  0  0  0  0
    7.9806    8.6543   20.5437 C   0  0  0  0  0  0  0  0  0  0  0  0
   13.7270    5.7144   19.8610 O   0  0  0  0  0  0  0  0  0  0  0  0
    8.3351    5.5235   15.4478 C   0  0  0  0  0  0  0  0  0  0  0  0
    8.7700    7.8434   21.3915 C   0  0  0  0  0  0  0  0  0  0  0  0
   11.7856    6.8851   19.2401 C   0  0  0  0  0  0  0  0  0  0  0  0
   10.5281    7.4276   19.5649 C   0  0  0  0  0  0  0  0  0  0  0  0
   10.0256    7.2907   20.8484 C   0  0  0  0  0  0  0  0  0  0  0  0
    9.3113    5.3049   14.4911 C   0  0  0  0  0  0  0  0  0  0  0  0
    9.4607    7.5646   16.0139 C   0  0  0  0  0  0  0  0  0  0  0  0
   10.4192    7.3157   15.0955 C   0  0  0  0  0  0  0  0  0  0  0  0
   10.2489    6.4227   23.0218 N   0  0  0  0  0  0  0  0  0  0  0  0
    7.2472    8.0746   23.5050 C   0  0  0  0  0  0  0  0  0  0  0  0
    9.2051    6.9101   23.4604 C   0  0  0  0  0  0  0  0  0  0  0  0
   11.9646    6.0299   21.4251 C   0  0  0  0  0  0  0  0  0  0  0  0
  1  5  1  0
  1 13  1  0
  2 20  2  0
  2 28  1  0
  2 29  1  0
  3 19  4  0
  3 25  4  0
  4 23  4  0
  4 27  1  0
  4 30  4  0
  5 17  1  0
  6  8  1  0
  6 29  1  0
  7 24  4  0
  7 26  4  0
  8 28  1  0
  9 13  2  0
 10 18  1  0
 10 21  4  0
 10 30  4  0
 11 17  2  0
 12 18  1  0
 13 15  1  0
 14 24  1  0
 15 25  1  0
 16 28  2  0
 17 20  1  0
 19 24  4  0
 20 23  1  0
 21 22  4  0
 22 23  4  0
 25 26  4  0
 27 29  2  0
M  END
$$$$

 Created by Python create_sdf_string function

 30 33  0  0  0  0  0  0  0  0999 V2000
    8.3036    9.8571   18.4133 C   0  0  0  0  0  0  0  0  0  0  0  0
    8.3694    7.6612   22.6703 C   0  0  0  0  0  0  0  0  0  0  0  0
    8.4143    6.6863   16.2273 C   0  0  0  0  0  0  0  0  0  0  0  0
   10.7581    6.5674   21.7636 C   0  0  0  0  0  0  0  0  0  0  0  0
    8.4452    8.7960   19.2958 O   0  0  0  0  0  0  0  0  0  0  0  0
    8.7122    6.7842   24.8569 C   0  0  0  0  0  0  0  0  0  0  0  0
   10.3400    6.1726   14.3081 C   0  0  0  0  0  0  0  0  0  0  0  0
    7.4297    7.5873   24.8962 C   0  0  0  0  0  0  0  0  0  0  0  0
    8.1566   10.0536   16.0516 O   0  0  0  0  0  0  0  0  0  0  0  0
   12.4989    6.2074   20.1776 C   0  0  0  0  0  0  0  0  0  0  0  0
    6.9192    9.1053   20.9073 O   0  0  0  0  0  0  0  0  0  0  0  0
   14.3979    6.0729   18.7784 C   0  0  0  0  0  0  0  0  0  0  0  0
    8.6811    9.5354   16.9998 C   0  0  0  0  0  0  0  0  0  0  0  0
    9.2512    4.2713   13.7653 O   0  0  0  0  0  0  0  0  0  0  0  0
    9.6495    8.6317   16.8332 N   0  0  0  0  0  0  0  0  0  0  0  0
    6.2934    8.6988   23.1988 O   0  0  0  0  0  0  0  0  0  0  0  0
    7.9806    8.6543   20.5437 C   0  0  0  0  0  0  0  0  0  0  0  0
   13.7270    5.7144   19.8610 O   0  0  0  0  0  0  0  0  0  0  0  0
    8.3351    5.5235   15.4478 C   0  0  0  0  0  0  0  0  0  0  0  0
    8.7700    7.8434   21.3915 C   0  0  0  0  0  0  0  0  0  0  0  0
   11.7856    6.8851   19.2401 C   0  0  0  0  0  0  0  0  0  0  0  0
   10.5281    7.4276   19.5649 C   0  0  0  0  0  0  0  0  0  0  0  0
   10.0256    7.2907   20.8484 C   0  0  0  0  0  0  0  0  0  0  0  0
    9.3113    5.3049   14.4911 C   0  0  0  0  0  0  0  0  0  0  0  0
    9.4607    7.5646   16.0139 C   0  0  0  0  0  0  0  0  0  0  0  0
   10.4192    7.3157   15.0955 C   0  0  0  0  0  0  0  0  0  0  0  0
   10.2489    6.4227   23.0218 N   0  0  0  0  0  0  0  0  0  0  0  0
    7.2472    8.0746   23.5050 C   0  0  0  0  0  0  0  0  0  0  0  0
    9.2051    6.9101   23.4604 C   0  0  0  0  0  0  0  0  0  0  0  0
   11.9646    6.0299   21.4251 C   0  0  0  0  0  0  0  0  0  0  0  0
  1  5  1  0
  1 13  1  0
  2 20  2  0
  2 28  1  0
  2 29  1  0
  3 19  4  0
  3 25  4  0
  4 23  4  0
  4 27  1  0
  4 30  4  0
  5 17  1  0
  6  8  1  0
  6 29  1  0
  7 24  4  0
  7 26  4  0
  8 28  1  0
  9 13  2  0
 10 18  1  0
 10 21  4  0
 10 30  4  0
 11 17  2  0
 12 18  1  0
 13 15  1  0
 14 24  1  0
 15 25  1  0
 16 28  2  0
 17 20  1  0
 19 24  4  0
 20 23  1  0
 21 22  4  0
 22 23  4  0
 25 26  4  0
 27 29  2  0
M  END
$$$$

 Created by Python create_sdf_string function

 30 33  0  0  0  0  0  0  0  0999 V2000
    8.3036    9.8571   18.4133 C   0  0  0  0  0  0  0  0  0  0  0  0
    8.3694    7.6612   22.6703 C   0  0  0  0  0  0  0  0  0  0  0  0
    8.4143    6.6863   16.2273 C   0  0  0  0  0  0  0  0  0  0  0  0
   10.7581    6.5674   21.7636 C   0  0  0  0  0  0  0  0  0  0  0  0
    8.4452    8.7960   19.2958 O   0  0  0  0  0  0  0  0  0  0  0  0
    8.7122    6.7842   24.8569 C   0  0  0  0  0  0  0  0  0  0  0  0
   10.3400    6.1726   14.3081 C   0  0  0  0  0  0  0  0  0  0  0  0
    7.4297    7.5873   24.8962 C   0  0  0  0  0  0  0  0  0  0  0  0
    8.1566   10.0536   16.0516 O   0  0  0  0  0  0  0  0  0  0  0  0
   12.4989    6.2074   20.1776 C   0  0  0  0  0  0  0  0  0  0  0  0
    6.9192    9.1053   20.9073 O   0  0  0  0  0  0  0  0  0  0  0  0
   14.3979    6.0729   18.7784 C   0  0  0  0  0  0  0  0  0  0  0  0
    8.6811    9.5354   16.9998 C   0  0  0  0  0  0  0  0  0  0  0  0
    9.2512    4.2713   13.7653 O   0  0  0  0  0  0  0  0  0  0  0  0
    9.6495    8.6317   16.8332 N   0  0  0  0  0  0  0  0  0  0  0  0
    6.2934    8.6988   23.1988 O   0  0  0  0  0  0  0  0  0  0  0  0
    7.9806    8.6543   20.5437 C   0  0  0  0  0  0  0  0  0  0  0  0
   13.7270    5.7144   19.8610 O   0  0  0  0  0  0  0  0  0  0  0  0
    8.3351    5.5235   15.4478 C   0  0  0  0  0  0  0  0  0  0  0  0
    8.7700    7.8434   21.3915 C   0  0  0  0  0  0  0  0  0  0  0  0
   11.7856    6.8851   19.2401 C   0  0  0  0  0  0  0  0  0  0  0  0
   10.5281    7.4276   19.5649 C   0  0  0  0  0  0  0  0  0  0  0  0
   10.0256    7.2907   20.8484 C   0  0  0  0  0  0  0  0  0  0  0  0
    9.3113    5.3049   14.4911 C   0  0  0  0  0  0  0  0  0  0  0  0
    9.4607    7.5646   16.0139 C   0  0  0  0  0  0  0  0  0  0  0  0
   10.4192    7.3157   15.0955 C   0  0  0  0  0  0  0  0  0  0  0  0
   10.2489    6.4227   23.0218 N   0  0  0  0  0  0  0  0  0  0  0  0
    7.2472    8.0746   23.5050 C   0  0  0  0  0  0  0  0  0  0  0  0
    9.2051    6.9101   23.4604 C   0  0  0  0  0  0  0  0  0  0  0  0
   11.9646    6.0299   21.4251 C   0  0  0  0  0  0  0  0  0  0  0  0
  1  5  1  0
  1 13  1  0
  2 20  2  0
  2 28  1  0
  2 29  1  0
  3 19  4  0
  3 25  4  0
  4 23  4  0
  4 27  1  0
  4 30  4  0
  5 17  1  0
  6  8  1  0
  6 29  1  0
  7 24  4  0
  7 26  4  0
  8 28  1  0
  9 13  2  0
 10 18  1  0
 10 21  4  0
 10 30  4  0
 11 17  2  0
 12 18  1  0
 13 15  1  0
 14 24  1  0
 15 25  1  0
 16 28  2  0
 17 20  1  0
 19 24  4  0
 20 23  1  0
 21 22  4  0
 22 23  4  0
 25 26  4  0
 27 29  2  0
M  END
$$$$

 Created by Python create_sdf_string function

 30 33  0  0  0  0  0  0  0  0999 V2000
    8.3036    9.8571   18.4133 C   0  0  0  0  0  0  0  0  0  0  0  0
    8.3694    7.6612   22.6703 C   0  0  0  0  0  0  0  0  0  0  0  0
    8.4143    6.6863   16.2273 C   0  0  0  0  0  0  0  0  0  0  0  0
   10.7581    6.5674   21.7636 C   0  0  0  0  0  0  0  0  0  0  0  0
    8.4452    8.7960   19.2958 O   0  0  0  0  0  0  0  0  0  0  0  0
    8.7122    6.7842   24.8569 C   0  0  0  0  0  0  0  0  0  0  0  0
   10.3400    6.1726   14.3081 C   0  0  0  0  0  0  0  0  0  0  0  0
    7.4297    7.5873   24.8962 C   0  0  0  0  0  0  0  0  0  0  0  0
    8.1566   10.0536   16.0516 O   0  0  0  0  0  0  0  0  0  0  0  0
   12.4989    6.2074   20.1776 C   0  0  0  0  0  0  0  0  0  0  0  0
    6.9192    9.1053   20.9073 O   0  0  0  0  0  0  0  0  0  0  0  0
   14.3979    6.0729   18.7784 C   0  0  0  0  0  0  0  0  0  0  0  0
    8.6811    9.5354   16.9998 C   0  0  0  0  0  0  0  0  0  0  0  0
    9.2512    4.2713   13.7653 O   0  0  0  0  0  0  0  0  0  0  0  0
    9.6495    8.6317   16.8332 N   0  0  0  0  0  0  0  0  0  0  0  0
    6.2934    8.6988   23.1988 O   0  0  0  0  0  0  0  0  0  0  0  0
    7.9806    8.6543   20.5437 C   0  0  0  0  0  0  0  0  0  0  0  0
   13.7270    5.7144   19.8610 O   0  0  0  0  0  0  0  0  0  0  0  0
    8.3351    5.5235   15.4478 C   0  0  0  0  0  0  0  0  0  0  0  0
    8.7700    7.8434   21.3915 C   0  0  0  0  0  0  0  0  0  0  0  0
   11.7856    6.8851   19.2401 C   0  0  0  0  0  0  0  0  0  0  0  0
   10.5281    7.4276   19.5649 C   0  0  0  0  0  0  0  0  0  0  0  0
   10.0256    7.2907   20.8484 C   0  0  0  0  0  0  0  0  0  0  0  0
    9.3113    5.3049   14.4911 C   0  0  0  0  0  0  0  0  0  0  0  0
    9.4607    7.5646   16.0139 C   0  0  0  0  0  0  0  0  0  0  0  0
   10.4192    7.3157   15.0955 C   0  0  0  0  0  0  0  0  0  0  0  0
   10.2489    6.4227   23.0218 N   0  0  0  0  0  0  0  0  0  0  0  0
    7.2472    8.0746   23.5050 C   0  0  0  0  0  0  0  0  0  0  0  0
    9.2051    6.9101   23.4604 C   0  0  0  0  0  0  0  0  0  0  0  0
   11.9646    6.0299   21.4251 C   0  0  0  0  0  0  0  0  0  0  0  0
  1  5  1  0
  1 13  1  0
  2 20  2  0
  2 28  1  0
  2 29  1  0
  3 19  4  0
  3 25  4  0
  4 23  4  0
  4 27  1  0
  4 30  4  0
  5 17  1  0
  6  8  1  0
  6 29  1  0
  7 24  4  0
  7 26  4  0
  8 28  1  0
  9 13  2  0
 10 18  1  0
 10 21  4  0
 10 30  4  0
 11 17  2  0
 12 18  1  0
 13 15  1  0
 14 24  1  0
 15 25  1  0
 16 28  2  0
 17 20  1  0
 19 24  4  0
 20 23  1  0
 21 22  4  0
 22 23  4  0
 25 26  4  0
 27 29  2  0
M  END
$$$$

 Created by Python create_sdf_string function

 30 33  0  0  0  0  0  0  0  0999 V2000
    8.3036    9.8571   18.4133 C   0  0  0  0  0  0  0  0  0  0  0  0
    8.3694    7.6612   22.6703 C   0  0  0  0  0  0  0  0  0  0  0  0
    8.4143    6.6863   16.2273 C   0  0  0  0  0  0  0  0  0  0  0  0
   10.7581    6.5674   21.7636 C   0  0  0  0  0  0  0  0  0  0  0  0
    8.4452    8.7960   19.2958 O   0  0  0  0  0  0  0  0  0  0  0  0
    8.7122    6.7842   24.8569 C   0  0  0  0  0  0  0  0  0  0  0  0
   10.3400    6.1726   14.3081 C   0  0  0  0  0  0  0  0  0  0  0  0
    7.4297    7.5873   24.8962 C   0  0  0  0  0  0  0  0  0  0  0  0
    8.1566   10.0536   16.0516 O   0  0  0  0  0  0  0  0  0  0  0  0
   12.4989    6.2074   20.1776 C   0  0  0  0  0  0  0  0  0  0  0  0
    6.9192    9.1053   20.9073 O   0  0  0  0  0  0  0  0  0  0  0  0
   14.3979    6.0729   18.7784 C   0  0  0  0  0  0  0  0  0  0  0  0
    8.6811    9.5354   16.9998 C   0  0  0  0  0  0  0  0  0  0  0  0
    9.2512    4.2713   13.7653 O   0  0  0  0  0  0  0  0  0  0  0  0
    9.6495    8.6317   16.8332 N   0  0  0  0  0  0  0  0  0  0  0  0
    6.2934    8.6988   23.1988 O   0  0  0  0  0  0  0  0  0  0  0  0
    7.9806    8.6543   20.5437 C   0  0  0  0  0  0  0  0  0  0  0  0
   13.7270    5.7144   19.8610 O   0  0  0  0  0  0  0  0  0  0  0  0
    8.3351    5.5235   15.4478 C   0  0  0  0  0  0  0  0  0  0  0  0
    8.7700    7.8434   21.3915 C   0  0  0  0  0  0  0  0  0  0  0  0
   11.7856    6.8851   19.2401 C   0  0  0  0  0  0  0  0  0  0  0  0
   10.5281    7.4276   19.5649 C   0  0  0  0  0  0  0  0  0  0  0  0
   10.0256    7.2907   20.8484 C   0  0  0  0  0  0  0  0  0  0  0  0
    9.3113    5.3049   14.4911 C   0  0  0  0  0  0  0  0  0  0  0  0
    9.4607    7.5646   16.0139 C   0  0  0  0  0  0  0  0  0  0  0  0
   10.4192    7.3157   15.0955 C   0  0  0  0  0  0  0  0  0  0  0  0
   10.2489    6.4227   23.0218 N   0  0  0  0  0  0  0  0  0  0  0  0
    7.2472    8.0746   23.5050 C   0  0  0  0  0  0  0  0  0  0  0  0
    9.2051    6.9101   23.4604 C   0  0  0  0  0  0  0  0  0  0  0  0
   11.9646    6.0299   21.4251 C   0  0  0  0  0  0  0  0  0  0  0  0
  1  5  1  0
  1 13  1  0
  2 20  2  0
  2 28  1  0
  2 29  1  0
  3 19  4  0
  3 25  4  0
  4 23  4  0
  4 27  1  0
  4 30  4  0
  5 17  1  0
  6  8  1  0
  6 29  1  0
  7 24  4  0
  7 26  4  0
  8 28  1  0
  9 13  2  0
 10 18  1  0
 10 21  4  0
 10 30  4  0
 11 17  2  0
 12 18  1  0
 13 15  1  0
 14 24  1  0
 15 25  1  0
 16 28  2  0
 17 20  1  0
 19 24  4  0
 20 23  1  0
 21 22  4  0
 22 23  4  0
 25 26  4  0
 27 29  2  0
M  END
$$$$

 Created by Python create_sdf_string function

 30 33  0  0  0  0  0  0  0  0999 V2000
    8.3036    9.8571   18.4133 C   0  0  0  0  0  0  0  0  0  0  0  0
    8.3694    7.6612   22.6703 C   0  0  0  0  0  0  0  0  0  0  0  0
    8.4143    6.6863   16.2273 C   0  0  0  0  0  0  0  0  0  0  0  0
   10.7581    6.5674   21.7636 C   0  0  0  0  0  0  0  0  0  0  0  0
    8.4452    8.7960   19.2958 O   0  0  0  0  0  0  0  0  0  0  0  0
    8.7122    6.7842   24.8569 C   0  0  0  0  0  0  0  0  0  0  0  0
   10.3400    6.1726   14.3081 C   0  0  0  0  0  0  0  0  0  0  0  0
    7.4297    7.5873   24.8962 C   0  0  0  0  0  0  0  0  0  0  0  0
    8.1566   10.0536   16.0516 O   0  0  0  0  0  0  0  0  0  0  0  0
   12.4989    6.2074   20.1776 C   0  0  0  0  0  0  0  0  0  0  0  0
    6.9192    9.1053   20.9073 O   0  0  0  0  0  0  0  0  0  0  0  0
   14.3979    6.0729   18.7784 C   0  0  0  0  0  0  0  0  0  0  0  0
    8.6811    9.5354   16.9998 C   0  0  0  0  0  0  0  0  0  0  0  0
    9.2512    4.2713   13.7653 O   0  0  0  0  0  0  0  0  0  0  0  0
    9.6495    8.6317   16.8332 N   0  0  0  0  0  0  0  0  0  0  0  0
    6.2934    8.6988   23.1988 O   0  0  0  0  0  0  0  0  0  0  0  0
    7.9806    8.6543   20.5437 C   0  0  0  0  0  0  0  0  0  0  0  0
   13.7270    5.7144   19.8610 O   0  0  0  0  0  0  0  0  0  0  0  0
    8.3351    5.5235   15.4478 C   0  0  0  0  0  0  0  0  0  0  0  0
    8.7700    7.8434   21.3915 C   0  0  0  0  0  0  0  0  0  0  0  0
   11.7856    6.8851   19.2401 C   0  0  0  0  0  0  0  0  0  0  0  0
   10.5281    7.4276   19.5649 C   0  0  0  0  0  0  0  0  0  0  0  0
   10.0256    7.2907   20.8484 C   0  0  0  0  0  0  0  0  0  0  0  0
    9.3113    5.3049   14.4911 C   0  0  0  0  0  0  0  0  0  0  0  0
    9.4607    7.5646   16.0139 C   0  0  0  0  0  0  0  0  0  0  0  0
   10.4192    7.3157   15.0955 C   0  0  0  0  0  0  0  0  0  0  0  0
   10.2489    6.4227   23.0218 N   0  0  0  0  0  0  0  0  0  0  0  0
    7.2472    8.0746   23.5050 C   0  0  0  0  0  0  0  0  0  0  0  0
    9.2051    6.9101   23.4604 C   0  0  0  0  0  0  0  0  0  0  0  0
   11.9646    6.0299   21.4251 C   0  0  0  0  0  0  0  0  0  0  0  0
  1  5  1  0
  1 13  1  0
  2 20  2  0
  2 28  1  0
  2 29  1  0
  3 19  4  0
  3 25  4  0
  4 23  4  0
  4 27  1  0
  4 30  4  0
  5 17  1  0
  6  8  1  0
  6 29  1  0
  7 24  4  0
  7 26  4  0
  8 28  1  0
  9 13  2  0
 10 18  1  0
 10 21  4  0
 10 30  4  0
 11 17  2  0
 12 18  1  0
 13 15  1  0
 14 24  1  0
 15 25  1  0
 16 28  2  0
 17 20  1  0
 19 24  4  0
 20 23  1  0
 21 22  4  0
 22 23  4  0
 25 26  4  0
 27 29  2  0
M  END
$$$$

 Created by Python create_sdf_string function

 30 33  0  0  0  0  0  0  0  0999 V2000
    8.3036    9.8571   18.4133 C   0  0  0  0  0  0  0  0  0  0  0  0
    8.3694    7.6612   22.6703 C   0  0  0  0  0  0  0  0  0  0  0  0
    8.4143    6.6863   16.2273 C   0  0  0  0  0  0  0  0  0  0  0  0
   10.7581    6.5674   21.7636 C   0  0  0  0  0  0  0  0  0  0  0  0
    8.4452    8.7960   19.2958 O   0  0  0  0  0  0  0  0  0  0  0  0
    8.7122    6.7842   24.8569 C   0  0  0  0  0  0  0  0  0  0  0  0
   10.3400    6.1726   14.3081 C   0  0  0  0  0  0  0  0  0  0  0  0
    7.4297    7.5873   24.8962 C   0  0  0  0  0  0  0  0  0  0  0  0
    8.1566   10.0536   16.0516 O   0  0  0  0  0  0  0  0  0  0  0  0
   12.4989    6.2074   20.1776 C   0  0  0  0  0  0  0  0  0  0  0  0
    6.9192    9.1053   20.9073 O   0  0  0  0  0  0  0  0  0  0  0  0
   14.3979    6.0729   18.7784 C   0  0  0  0  0  0  0  0  0  0  0  0
    8.6811    9.5354   16.9998 C   0  0  0  0  0  0  0  0  0  0  0  0
    9.2512    4.2713   13.7653 O   0  0  0  0  0  0  0  0  0  0  0  0
    9.6495    8.6317   16.8332 N   0  0  0  0  0  0  0  0  0  0  0  0
    6.2934    8.6988   23.1988 O   0  0  0  0  0  0  0  0  0  0  0  0
    7.9806    8.6543   20.5437 C   0  0  0  0  0  0  0  0  0  0  0  0
   13.7270    5.7144   19.8610 O   0  0  0  0  0  0  0  0  0  0  0  0
    8.3351    5.5235   15.4478 C   0  0  0  0  0  0  0  0  0  0  0  0
    8.7700    7.8434   21.3915 C   0  0  0  0  0  0  0  0  0  0  0  0
   11.7856    6.8851   19.2401 C   0  0  0  0  0  0  0  0  0  0  0  0
   10.5281    7.4276   19.5649 C   0  0  0  0  0  0  0  0  0  0  0  0
   10.0256    7.2907   20.8484 C   0  0  0  0  0  0  0  0  0  0  0  0
    9.3113    5.3049   14.4911 C   0  0  0  0  0  0  0  0  0  0  0  0
    9.4607    7.5646   16.0139 C   0  0  0  0  0  0  0  0  0  0  0  0
   10.4192    7.3157   15.0955 C   0  0  0  0  0  0  0  0  0  0  0  0
   10.2489    6.4227   23.0218 N   0  0  0  0  0  0  0  0  0  0  0  0
    7.2472    8.0746   23.5050 C   0  0  0  0  0  0  0  0  0  0  0  0
    9.2051    6.9101   23.4604 C   0  0  0  0  0  0  0  0  0  0  0  0
   11.9646    6.0299   21.4251 C   0  0  0  0  0  0  0  0  0  0  0  0
  1  5  1  0
  1 13  1  0
  2 20  2  0
  2 28  1  0
  2 29  1  0
  3 19  4  0
  3 25  4  0
  4 23  4  0
  4 27  1  0
  4 30  4  0
  5 17  1  0
  6  8  1  0
  6 29  1  0
  7 24  4  0
  7 26  4  0
  8 28  1  0
  9 13  2  0
 10 18  1  0
 10 21  4  0
 10 30  4  0
 11 17  2  0
 12 18  1  0
 13 15  1  0
 14 24  1  0
 15 25  1  0
 16 28  2  0
 17 20  1  0
 19 24  4  0
 20 23  1  0
 21 22  4  0
 22 23  4  0
 25 26  4  0
 27 29  2  0
M  END
$$$$

 Created by Python create_sdf_string function

 30 33  0  0  0  0  0  0  0  0999 V2000
    8.3036    9.8571   18.4133 C   0  0  0  0  0  0  0  0  0  0  0  0
    8.3694    7.6612   22.6703 C   0  0  0  0  0  0  0  0  0  0  0  0
    8.4143    6.6863   16.2273 C   0  0  0  0  0  0  0  0  0  0  0  0
   10.7581    6.5674   21.7636 C   0  0  0  0  0  0  0  0  0  0  0  0
    8.4452    8.7960   19.2958 O   0  0  0  0  0  0  0  0  0  0  0  0
    8.7122    6.7842   24.8569 C   0  0  0  0  0  0  0  0  0  0  0  0
   10.3400    6.1726   14.3081 C   0  0  0  0  0  0  0  0  0  0  0  0
    7.4297    7.5873   24.8962 C   0  0  0  0  0  0  0  0  0  0  0  0
    8.1566   10.0536   16.0516 O   0  0  0  0  0  0  0  0  0  0  0  0
   12.4989    6.2074   20.1776 C   0  0  0  0  0  0  0  0  0  0  0  0
    6.9192    9.1053   20.9073 O   0  0  0  0  0  0  0  0  0  0  0  0
   14.3979    6.0729   18.7784 C   0  0  0  0  0  0  0  0  0  0  0  0
    8.6811    9.5354   16.9998 C   0  0  0  0  0  0  0  0  0  0  0  0
    9.2512    4.2713   13.7653 O   0  0  0  0  0  0  0  0  0  0  0  0
    9.6495    8.6317   16.8332 N   0  0  0  0  0  0  0  0  0  0  0  0
    6.2934    8.6988   23.1988 O   0  0  0  0  0  0  0  0  0  0  0  0
    7.9806    8.6543   20.5437 C   0  0  0  0  0  0  0  0  0  0  0  0
   13.7270    5.7144   19.8610 O   0  0  0  0  0  0  0  0  0  0  0  0
    8.3351    5.5235   15.4478 C   0  0  0  0  0  0  0  0  0  0  0  0
    8.7700    7.8434   21.3915 C   0  0  0  0  0  0  0  0  0  0  0  0
   11.7856    6.8851   19.2401 C   0  0  0  0  0  0  0  0  0  0  0  0
   10.5281    7.4276   19.5649 C   0  0  0  0  0  0  0  0  0  0  0  0
   10.0256    7.2907   20.8484 C   0  0  0  0  0  0  0  0  0  0  0  0
    9.3113    5.3049   14.4911 C   0  0  0  0  0  0  0  0  0  0  0  0
    9.4607    7.5646   16.0139 C   0  0  0  0  0  0  0  0  0  0  0  0
   10.4192    7.3157   15.0955 C   0  0  0  0  0  0  0  0  0  0  0  0
   10.2489    6.4227   23.0218 N   0  0  0  0  0  0  0  0  0  0  0  0
    7.2472    8.0746   23.5050 C   0  0  0  0  0  0  0  0  0  0  0  0
    9.2051    6.9101   23.4604 C   0  0  0  0  0  0  0  0  0  0  0  0
   11.9646    6.0299   21.4251 C   0  0  0  0  0  0  0  0  0  0  0  0
  1  5  1  0
  1 13  1  0
  2 20  2  0
  2 28  1  0
  2 29  1  0
  3 19  4  0
  3 25  4  0
  4 23  4  0
  4 27  1  0
  4 30  4  0
  5 17  1  0
  6  8  1  0
  6 29  1  0
  7 24  4  0
  7 26  4  0
  8 28  1  0
  9 13  2  0
 10 18  1  0
 10 21  4  0
 10 30  4  0
 11 17  2  0
 12 18  1  0
 13 15  1  0
 14 24  1  0
 15 25  1  0
 16 28  2  0
 17 20  1  0
 19 24  4  0
 20 23  1  0
 21 22  4  0
 22 23  4  0
 25 26  4  0
 27 29  2  0
M  END
$$$$

 Created by Python create_sdf_string function

 30 33  0  0  0  0  0  0  0  0999 V2000
    8.3036    9.8571   18.4133 C   0  0  0  0  0  0  0  0  0  0  0  0
    8.3694    7.6612   22.6703 C   0  0  0  0  0  0  0  0  0  0  0  0
    8.4143    6.6863   16.2273 C   0  0  0  0  0  0  0  0  0  0  0  0
   10.7581    6.5674   21.7636 C   0  0  0  0  0  0  0  0  0  0  0  0
    8.4452    8.7960   19.2958 O   0  0  0  0  0  0  0  0  0  0  0  0
    8.7122    6.7842   24.8569 C   0  0  0  0  0  0  0  0  0  0  0  0
   10.3400    6.1726   14.3081 C   0  0  0  0  0  0  0  0  0  0  0  0
    7.4297    7.5873   24.8962 C   0  0  0  0  0  0  0  0  0  0  0  0
    8.1566   10.0536   16.0516 O   0  0  0  0  0  0  0  0  0  0  0  0
   12.4989    6.2074   20.1776 C   0  0  0  0  0  0  0  0  0  0  0  0
    6.9192    9.1053   20.9073 O   0  0  0  0  0  0  0  0  0  0  0  0
   14.3979    6.0729   18.7784 C   0  0  0  0  0  0  0  0  0  0  0  0
    8.6811    9.5354   16.9998 C   0  0  0  0  0  0  0  0  0  0  0  0
    9.2512    4.2713   13.7653 O   0  0  0  0  0  0  0  0  0  0  0  0
    9.6495    8.6317   16.8332 N   0  0  0  0  0  0  0  0  0  0  0  0
    6.2934    8.6988   23.1988 O   0  0  0  0  0  0  0  0  0  0  0  0
    7.9806    8.6543   20.5437 C   0  0  0  0  0  0  0  0  0  0  0  0
   13.7270    5.7144   19.8610 O   0  0  0  0  0  0  0  0  0  0  0  0
    8.3351    5.5235   15.4478 C   0  0  0  0  0  0  0  0  0  0  0  0
    8.7700    7.8434   21.3915 C   0  0  0  0  0  0  0  0  0  0  0  0
   11.7856    6.8851   19.2401 C   0  0  0  0  0  0  0  0  0  0  0  0
   10.5281    7.4276   19.5649 C   0  0  0  0  0  0  0  0  0  0  0  0
   10.0256    7.2907   20.8484 C   0  0  0  0  0  0  0  0  0  0  0  0
    9.3113    5.3049   14.4911 C   0  0  0  0  0  0  0  0  0  0  0  0
    9.4607    7.5646   16.0139 C   0  0  0  0  0  0  0  0  0  0  0  0
   10.4192    7.3157   15.0955 C   0  0  0  0  0  0  0  0  0  0  0  0
   10.2489    6.4227   23.0218 N   0  0  0  0  0  0  0  0  0  0  0  0
    7.2472    8.0746   23.5050 C   0  0  0  0  0  0  0  0  0  0  0  0
    9.2051    6.9101   23.4604 C   0  0  0  0  0  0  0  0  0  0  0  0
   11.9646    6.0299   21.4251 C   0  0  0  0  0  0  0  0  0  0  0  0
  1  5  1  0
  1 13  1  0
  2 20  2  0
  2 28  1  0
  2 29  1  0
  3 19  4  0
  3 25  4  0
  4 23  4  0
  4 27  1  0
  4 30  4  0
  5 17  1  0
  6  8  1  0
  6 29  1  0
  7 24  4  0
  7 26  4  0
  8 28  1  0
  9 13  2  0
 10 18  1  0
 10 21  4  0
 10 30  4  0
 11 17  2  0
 12 18  1  0
 13 15  1  0
 14 24  1  0
 15 25  1  0
 16 28  2  0
 17 20  1  0
 19 24  4  0
 20 23  1  0
 21 22  4  0
 22 23  4  0
 25 26  4  0
 27 29  2  0
M  END
$$$$

 Created by Python create_sdf_string function

 30 33  0  0  0  0  0  0  0  0999 V2000
    8.3036    9.8571   18.4133 C   0  0  0  0  0  0  0  0  0  0  0  0
    8.3694    7.6612   22.6703 C   0  0  0  0  0  0  0  0  0  0  0  0
    8.4143    6.6863   16.2273 C   0  0  0  0  0  0  0  0  0  0  0  0
   10.7581    6.5674   21.7636 C   0  0  0  0  0  0  0  0  0  0  0  0
    8.4452    8.7960   19.2958 O   0  0  0  0  0  0  0  0  0  0  0  0
    8.7122    6.7842   24.8569 C   0  0  0  0  0  0  0  0  0  0  0  0
   10.3400    6.1726   14.3081 C   0  0  0  0  0  0  0  0  0  0  0  0
    7.4297    7.5873   24.8962 C   0  0  0  0  0  0  0  0  0  0  0  0
    8.1566   10.0536   16.0516 O   0  0  0  0  0  0  0  0  0  0  0  0
   12.4989    6.2074   20.1776 C   0  0  0  0  0  0  0  0  0  0  0  0
    6.9192    9.1053   20.9073 O   0  0  0  0  0  0  0  0  0  0  0  0
   14.3979    6.0729   18.7784 C   0  0  0  0  0  0  0  0  0  0  0  0
    8.6811    9.5354   16.9998 C   0  0  0  0  0  0  0  0  0  0  0  0
    9.2512    4.2713   13.7653 O   0  0  0  0  0  0  0  0  0  0  0  0
    9.6495    8.6317   16.8332 N   0  0  0  0  0  0  0  0  0  0  0  0
    6.2934    8.6988   23.1988 O   0  0  0  0  0  0  0  0  0  0  0  0
    7.9806    8.6543   20.5437 C   0  0  0  0  0  0  0  0  0  0  0  0
   13.7270    5.7144   19.8610 O   0  0  0  0  0  0  0  0  0  0  0  0
    8.3351    5.5235   15.4478 C   0  0  0  0  0  0  0  0  0  0  0  0
    8.7700    7.8434   21.3915 C   0  0  0  0  0  0  0  0  0  0  0  0
   11.7856    6.8851   19.2401 C   0  0  0  0  0  0  0  0  0  0  0  0
   10.5281    7.4276   19.5649 C   0  0  0  0  0  0  0  0  0  0  0  0
   10.0256    7.2907   20.8484 C   0  0  0  0  0  0  0  0  0  0  0  0
    9.3113    5.3049   14.4911 C   0  0  0  0  0  0  0  0  0  0  0  0
    9.4607    7.5646   16.0139 C   0  0  0  0  0  0  0  0  0  0  0  0
   10.4192    7.3157   15.0955 C   0  0  0  0  0  0  0  0  0  0  0  0
   10.2489    6.4227   23.0218 N   0  0  0  0  0  0  0  0  0  0  0  0
    7.2472    8.0746   23.5050 C   0  0  0  0  0  0  0  0  0  0  0  0
    9.2051    6.9101   23.4604 C   0  0  0  0  0  0  0  0  0  0  0  0
   11.9646    6.0299   21.4251 C   0  0  0  0  0  0  0  0  0  0  0  0
  1  5  1  0
  1 13  1  0
  2 20  2  0
  2 28  1  0
  2 29  1  0
  3 19  4  0
  3 25  4  0
  4 23  4  0
  4 27  1  0
  4 30  4  0
  5 17  1  0
  6  8  1  0
  6 29  1  0
  7 24  4  0
  7 26  4  0
  8 28  1  0
  9 13  2  0
 10 18  1  0
 10 21  4  0
 10 30  4  0
 11 17  2  0
 12 18  1  0
 13 15  1  0
 14 24  1  0
 15 25  1  0
 16 28  2  0
 17 20  1  0
 19 24  4  0
 20 23  1  0
 21 22  4  0
 22 23  4  0
 25 26  4  0
 27 29  2  0
M  END
$$$$

 Created by Python create_sdf_string function

 30 33  0  0  0  0  0  0  0  0999 V2000
    8.3036    9.8571   18.4133 C   0  0  0  0  0  0  0  0  0  0  0  0
    8.3694    7.6612   22.6703 C   0  0  0  0  0  0  0  0  0  0  0  0
    8.4143    6.6863   16.2273 C   0  0  0  0  0  0  0  0  0  0  0  0
   10.7581    6.5674   21.7636 C   0  0  0  0  0  0  0  0  0  0  0  0
    8.4452    8.7960   19.2958 O   0  0  0  0  0  0  0  0  0  0  0  0
    8.7122    6.7842   24.8569 C   0  0  0  0  0  0  0  0  0  0  0  0
   10.3400    6.1726   14.3081 C   0  0  0  0  0  0  0  0  0  0  0  0
    7.4297    7.5873   24.8962 C   0  0  0  0  0  0  0  0  0  0  0  0
    8.1566   10.0536   16.0516 O   0  0  0  0  0  0  0  0  0  0  0  0
   12.4989    6.2074   20.1776 C   0  0  0  0  0  0  0  0  0  0  0  0
    6.9192    9.1053   20.9073 O   0  0  0  0  0  0  0  0  0  0  0  0
   14.3979    6.0729   18.7784 C   0  0  0  0  0  0  0  0  0  0  0  0
    8.6811    9.5354   16.9998 C   0  0  0  0  0  0  0  0  0  0  0  0
    9.2512    4.2713   13.7653 O   0  0  0  0  0  0  0  0  0  0  0  0
    9.6495    8.6317   16.8332 N   0  0  0  0  0  0  0  0  0  0  0  0
    6.2934    8.6988   23.1988 O   0  0  0  0  0  0  0  0  0  0  0  0
    7.9806    8.6543   20.5437 C   0  0  0  0  0  0  0  0  0  0  0  0
   13.7270    5.7144   19.8610 O   0  0  0  0  0  0  0  0  0  0  0  0
    8.3351    5.5235   15.4478 C   0  0  0  0  0  0  0  0  0  0  0  0
    8.7700    7.8434   21.3915 C   0  0  0  0  0  0  0  0  0  0  0  0
   11.7856    6.8851   19.2401 C   0  0  0  0  0  0  0  0  0  0  0  0
   10.5281    7.4276   19.5649 C   0  0  0  0  0  0  0  0  0  0  0  0
   10.0256    7.2907   20.8484 C   0  0  0  0  0  0  0  0  0  0  0  0
    9.3113    5.3049   14.4911 C   0  0  0  0  0  0  0  0  0  0  0  0
    9.4607    7.5646   16.0139 C   0  0  0  0  0  0  0  0  0  0  0  0
   10.4192    7.3157   15.0955 C   0  0  0  0  0  0  0  0  0  0  0  0
   10.2489    6.4227   23.0218 N   0  0  0  0  0  0  0  0  0  0  0  0
    7.2472    8.0746   23.5050 C   0  0  0  0  0  0  0  0  0  0  0  0
    9.2051    6.9101   23.4604 C   0  0  0  0  0  0  0  0  0  0  0  0
   11.9646    6.0299   21.4251 C   0  0  0  0  0  0  0  0  0  0  0  0
  1  5  1  0
  1 13  1  0
  2 20  2  0
  2 28  1  0
  2 29  1  0
  3 19  4  0
  3 25  4  0
  4 23  4  0
  4 27  1  0
  4 30  4  0
  5 17  1  0
  6  8  1  0
  6 29  1  0
  7 24  4  0
  7 26  4  0
  8 28  1  0
  9 13  2  0
 10 18  1  0
 10 21  4  0
 10 30  4  0
 11 17  2  0
 12 18  1  0
 13 15  1  0
 14 24  1  0
 15 25  1  0
 16 28  2  0
 17 20  1  0
 19 24  4  0
 20 23  1  0
 21 22  4  0
 22 23  4  0
 25 26  4  0
 27 29  2  0
M  END
$$$$

 Created by Python create_sdf_string function

 30 33  0  0  0  0  0  0  0  0999 V2000
    8.3036    9.8571   18.4133 C   0  0  0  0  0  0  0  0  0  0  0  0
    8.3694    7.6612   22.6703 C   0  0  0  0  0  0  0  0  0  0  0  0
    8.4143    6.6863   16.2273 C   0  0  0  0  0  0  0  0  0  0  0  0
   10.7581    6.5674   21.7636 C   0  0  0  0  0  0  0  0  0  0  0  0
    8.4452    8.7960   19.2958 O   0  0  0  0  0  0  0  0  0  0  0  0
    8.7122    6.7842   24.8569 C   0  0  0  0  0  0  0  0  0  0  0  0
   10.3400    6.1726   14.3081 C   0  0  0  0  0  0  0  0  0  0  0  0
    7.4297    7.5873   24.8962 C   0  0  0  0  0  0  0  0  0  0  0  0
    8.1566   10.0536   16.0516 O   0  0  0  0  0  0  0  0  0  0  0  0
   12.4989    6.2074   20.1776 C   0  0  0  0  0  0  0  0  0  0  0  0
    6.9192    9.1053   20.9073 O   0  0  0  0  0  0  0  0  0  0  0  0
   14.3979    6.0729   18.7784 C   0  0  0  0  0  0  0  0  0  0  0  0
    8.6811    9.5354   16.9998 C   0  0  0  0  0  0  0  0  0  0  0  0
    9.2512    4.2713   13.7653 O   0  0  0  0  0  0  0  0  0  0  0  0
    9.6495    8.6317   16.8332 N   0  0  0  0  0  0  0  0  0  0  0  0
    6.2934    8.6988   23.1988 O   0  0  0  0  0  0  0  0  0  0  0  0
    7.9806    8.6543   20.5437 C   0  0  0  0  0  0  0  0  0  0  0  0
   13.7270    5.7144   19.8610 O   0  0  0  0  0  0  0  0  0  0  0  0
    8.3351    5.5235   15.4478 C   0  0  0  0  0  0  0  0  0  0  0  0
    8.7700    7.8434   21.3915 C   0  0  0  0  0  0  0  0  0  0  0  0
   11.7856    6.8851   19.2401 C   0  0  0  0  0  0  0  0  0  0  0  0
   10.5281    7.4276   19.5649 C   0  0  0  0  0  0  0  0  0  0  0  0
   10.0256    7.2907   20.8484 C   0  0  0  0  0  0  0  0  0  0  0  0
    9.3113    5.3049   14.4911 C   0  0  0  0  0  0  0  0  0  0  0  0
    9.4607    7.5646   16.0139 C   0  0  0  0  0  0  0  0  0  0  0  0
   10.4192    7.3157   15.0955 C   0  0  0  0  0  0  0  0  0  0  0  0
   10.2489    6.4227   23.0218 N   0  0  0  0  0  0  0  0  0  0  0  0
    7.2472    8.0746   23.5050 C   0  0  0  0  0  0  0  0  0  0  0  0
    9.2051    6.9101   23.4604 C   0  0  0  0  0  0  0  0  0  0  0  0
   11.9646    6.0299   21.4251 C   0  0  0  0  0  0  0  0  0  0  0  0
  1  5  1  0
  1 13  1  0
  2 20  2  0
  2 28  1  0
  2 29  1  0
  3 19  4  0
  3 25  4  0
  4 23  4  0
  4 27  1  0
  4 30  4  0
  5 17  1  0
  6  8  1  0
  6 29  1  0
  7 24  4  0
  7 26  4  0
  8 28  1  0
  9 13  2  0
 10 18  1  0
 10 21  4  0
 10 30  4  0
 11 17  2  0
 12 18  1  0
 13 15  1  0
 14 24  1  0
 15 25  1  0
 16 28  2  0
 17 20  1  0
 19 24  4  0
 20 23  1  0
 21 22  4  0
 22 23  4  0
 25 26  4  0
 27 29  2  0
M  END
$$$$

 Created by Python create_sdf_string function

 30 33  0  0  0  0  0  0  0  0999 V2000
    8.3036    9.8571   18.4133 C   0  0  0  0  0  0  0  0  0  0  0  0
    8.3694    7.6612   22.6703 C   0  0  0  0  0  0  0  0  0  0  0  0
    8.4143    6.6863   16.2273 C   0  0  0  0  0  0  0  0  0  0  0  0
   10.7581    6.5674   21.7636 C   0  0  0  0  0  0  0  0  0  0  0  0
    8.4452    8.7960   19.2958 O   0  0  0  0  0  0  0  0  0  0  0  0
    8.7122    6.7842   24.8569 C   0  0  0  0  0  0  0  0  0  0  0  0
   10.3400    6.1726   14.3081 C   0  0  0  0  0  0  0  0  0  0  0  0
    7.4297    7.5873   24.8962 C   0  0  0  0  0  0  0  0  0  0  0  0
    8.1566   10.0536   16.0516 O   0  0  0  0  0  0  0  0  0  0  0  0
   12.4989    6.2074   20.1776 C   0  0  0  0  0  0  0  0  0  0  0  0
    6.9192    9.1053   20.9073 O   0  0  0  0  0  0  0  0  0  0  0  0
   14.3979    6.0729   18.7784 C   0  0  0  0  0  0  0  0  0  0  0  0
    8.6811    9.5354   16.9998 C   0  0  0  0  0  0  0  0  0  0  0  0
    9.2512    4.2713   13.7653 O   0  0  0  0  0  0  0  0  0  0  0  0
    9.6495    8.6317   16.8332 N   0  0  0  0  0  0  0  0  0  0  0  0
    6.2934    8.6988   23.1988 O   0  0  0  0  0  0  0  0  0  0  0  0
    7.9806    8.6543   20.5437 C   0  0  0  0  0  0  0  0  0  0  0  0
   13.7270    5.7144   19.8610 O   0  0  0  0  0  0  0  0  0  0  0  0
    8.3351    5.5235   15.4478 C   0  0  0  0  0  0  0  0  0  0  0  0
    8.7700    7.8434   21.3915 C   0  0  0  0  0  0  0  0  0  0  0  0
   11.7856    6.8851   19.2401 C   0  0  0  0  0  0  0  0  0  0  0  0
   10.5281    7.4276   19.5649 C   0  0  0  0  0  0  0  0  0  0  0  0
   10.0256    7.2907   20.8484 C   0  0  0  0  0  0  0  0  0  0  0  0
    9.3113    5.3049   14.4911 C   0  0  0  0  0  0  0  0  0  0  0  0
    9.4607    7.5646   16.0139 C   0  0  0  0  0  0  0  0  0  0  0  0
   10.4192    7.3157   15.0955 C   0  0  0  0  0  0  0  0  0  0  0  0
   10.2489    6.4227   23.0218 N   0  0  0  0  0  0  0  0  0  0  0  0
    7.2472    8.0746   23.5050 C   0  0  0  0  0  0  0  0  0  0  0  0
    9.2051    6.9101   23.4604 C   0  0  0  0  0  0  0  0  0  0  0  0
   11.9646    6.0299   21.4251 C   0  0  0  0  0  0  0  0  0  0  0  0
  1  5  1  0
  1 13  1  0
  2 20  2  0
  2 28  1  0
  2 29  1  0
  3 19  4  0
  3 25  4  0
  4 23  4  0
  4 27  1  0
  4 30  4  0
  5 17  1  0
  6  8  1  0
  6 29  1  0
  7 24  4  0
  7 26  4  0
  8 28  1  0
  9 13  2  0
 10 18  1  0
 10 21  4  0
 10 30  4  0
 11 17  2  0
 12 18  1  0
 13 15  1  0
 14 24  1  0
 15 25  1  0
 16 28  2  0
 17 20  1  0
 19 24  4  0
 20 23  1  0
 21 22  4  0
 22 23  4  0
 25 26  4  0
 27 29  2  0
M  END
$$$$

 Created by Python create_sdf_string function

 30 33  0  0  0  0  0  0  0  0999 V2000
    8.3036    9.8571   18.4133 C   0  0  0  0  0  0  0  0  0  0  0  0
    8.3694    7.6612   22.6703 C   0  0  0  0  0  0  0  0  0  0  0  0
    8.4143    6.6863   16.2273 C   0  0  0  0  0  0  0  0  0  0  0  0
   10.7581    6.5674   21.7636 C   0  0  0  0  0  0  0  0  0  0  0  0
    8.4452    8.7960   19.2958 O   0  0  0  0  0  0  0  0  0  0  0  0
    8.7122    6.7842   24.8569 C   0  0  0  0  0  0  0  0  0  0  0  0
   10.3400    6.1726   14.3081 C   0  0  0  0  0  0  0  0  0  0  0  0
    7.4297    7.5873   24.8962 C   0  0  0  0  0  0  0  0  0  0  0  0
    8.1566   10.0536   16.0516 O   0  0  0  0  0  0  0  0  0  0  0  0
   12.4989    6.2074   20.1776 C   0  0  0  0  0  0  0  0  0  0  0  0
    6.9192    9.1053   20.9073 O   0  0  0  0  0  0  0  0  0  0  0  0
   14.3979    6.0729   18.7784 C   0  0  0  0  0  0  0  0  0  0  0  0
    8.6811    9.5354   16.9998 C   0  0  0  0  0  0  0  0  0  0  0  0
    9.2512    4.2713   13.7653 O   0  0  0  0  0  0  0  0  0  0  0  0
    9.6495    8.6317   16.8332 N   0  0  0  0  0  0  0  0  0  0  0  0
    6.2934    8.6988   23.1988 O   0  0  0  0  0  0  0  0  0  0  0  0
    7.9806    8.6543   20.5437 C   0  0  0  0  0  0  0  0  0  0  0  0
   13.7270    5.7144   19.8610 O   0  0  0  0  0  0  0  0  0  0  0  0
    8.3351    5.5235   15.4478 C   0  0  0  0  0  0  0  0  0  0  0  0
    8.7700    7.8434   21.3915 C   0  0  0  0  0  0  0  0  0  0  0  0
   11.7856    6.8851   19.2401 C   0  0  0  0  0  0  0  0  0  0  0  0
   10.5281    7.4276   19.5649 C   0  0  0  0  0  0  0  0  0  0  0  0
   10.0256    7.2907   20.8484 C   0  0  0  0  0  0  0  0  0  0  0  0
    9.3113    5.3049   14.4911 C   0  0  0  0  0  0  0  0  0  0  0  0
    9.4607    7.5646   16.0139 C   0  0  0  0  0  0  0  0  0  0  0  0
   10.4192    7.3157   15.0955 C   0  0  0  0  0  0  0  0  0  0  0  0
   10.2489    6.4227   23.0218 N   0  0  0  0  0  0  0  0  0  0  0  0
    7.2472    8.0746   23.5050 C   0  0  0  0  0  0  0  0  0  0  0  0
    9.2051    6.9101   23.4604 C   0  0  0  0  0  0  0  0  0  0  0  0
   11.9646    6.0299   21.4251 C   0  0  0  0  0  0  0  0  0  0  0  0
  1  5  1  0
  1 13  1  0
  2 20  2  0
  2 28  1  0
  2 29  1  0
  3 19  4  0
  3 25  4  0
  4 23  4  0
  4 27  1  0
  4 30  4  0
  5 17  1  0
  6  8  1  0
  6 29  1  0
  7 24  4  0
  7 26  4  0
  8 28  1  0
  9 13  2  0
 10 18  1  0
 10 21  4  0
 10 30  4  0
 11 17  2  0
 12 18  1  0
 13 15  1  0
 14 24  1  0
 15 25  1  0
 16 28  2  0
 17 20  1  0
 19 24  4  0
 20 23  1  0
 21 22  4  0
 22 23  4  0
 25 26  4  0
 27 29  2  0
M  END
$$$$

 Created by Python create_sdf_string function

 30 33  0  0  0  0  0  0  0  0999 V2000
    8.3036    9.8571   18.4133 C   0  0  0  0  0  0  0  0  0  0  0  0
    8.3694    7.6612   22.6703 C   0  0  0  0  0  0  0  0  0  0  0  0
    8.4143    6.6863   16.2273 C   0  0  0  0  0  0  0  0  0  0  0  0
   10.7581    6.5674   21.7636 C   0  0  0  0  0  0  0  0  0  0  0  0
    8.4452    8.7960   19.2958 O   0  0  0  0  0  0  0  0  0  0  0  0
    8.7122    6.7842   24.8569 C   0  0  0  0  0  0  0  0  0  0  0  0
   10.3400    6.1726   14.3081 C   0  0  0  0  0  0  0  0  0  0  0  0
    7.4297    7.5873   24.8962 C   0  0  0  0  0  0  0  0  0  0  0  0
    8.1566   10.0536   16.0516 O   0  0  0  0  0  0  0  0  0  0  0  0
   12.4989    6.2074   20.1776 C   0  0  0  0  0  0  0  0  0  0  0  0
    6.9192    9.1053   20.9073 O   0  0  0  0  0  0  0  0  0  0  0  0
   14.3979    6.0729   18.7784 C   0  0  0  0  0  0  0  0  0  0  0  0
    8.6811    9.5354   16.9998 C   0  0  0  0  0  0  0  0  0  0  0  0
    9.2512    4.2713   13.7653 O   0  0  0  0  0  0  0  0  0  0  0  0
    9.6495    8.6317   16.8332 N   0  0  0  0  0  0  0  0  0  0  0  0
    6.2934    8.6988   23.1988 O   0  0  0  0  0  0  0  0  0  0  0  0
    7.9806    8.6543   20.5437 C   0  0  0  0  0  0  0  0  0  0  0  0
   13.7270    5.7144   19.8610 O   0  0  0  0  0  0  0  0  0  0  0  0
    8.3351    5.5235   15.4478 C   0  0  0  0  0  0  0  0  0  0  0  0
    8.7700    7.8434   21.3915 C   0  0  0  0  0  0  0  0  0  0  0  0
   11.7856    6.8851   19.2401 C   0  0  0  0  0  0  0  0  0  0  0  0
   10.5281    7.4276   19.5649 C   0  0  0  0  0  0  0  0  0  0  0  0
   10.0256    7.2907   20.8484 C   0  0  0  0  0  0  0  0  0  0  0  0
    9.3113    5.3049   14.4911 C   0  0  0  0  0  0  0  0  0  0  0  0
    9.4607    7.5646   16.0139 C   0  0  0  0  0  0  0  0  0  0  0  0
   10.4192    7.3157   15.0955 C   0  0  0  0  0  0  0  0  0  0  0  0
   10.2489    6.4227   23.0218 N   0  0  0  0  0  0  0  0  0  0  0  0
    7.2472    8.0746   23.5050 C   0  0  0  0  0  0  0  0  0  0  0  0
    9.2051    6.9101   23.4604 C   0  0  0  0  0  0  0  0  0  0  0  0
   11.9646    6.0299   21.4251 C   0  0  0  0  0  0  0  0  0  0  0  0
  1  5  1  0
  1 13  1  0
  2 20  2  0
  2 28  1  0
  2 29  1  0
  3 19  4  0
  3 25  4  0
  4 23  4  0
  4 27  1  0
  4 30  4  0
  5 17  1  0
  6  8  1  0
  6 29  1  0
  7 24  4  0
  7 26  4  0
  8 28  1  0
  9 13  2  0
 10 18  1  0
 10 21  4  0
 10 30  4  0
 11 17  2  0
 12 18  1  0
 13 15  1  0
 14 24  1  0
 15 25  1  0
 16 28  2  0
 17 20  1  0
 19 24  4  0
 20 23  1  0
 21 22  4  0
 22 23  4  0
 25 26  4  0
 27 29  2  0
M  END
$$$$

 Created by Python create_sdf_string function

 30 33  0  0  0  0  0  0  0  0999 V2000
    8.3036    9.8571   18.4133 C   0  0  0  0  0  0  0  0  0  0  0  0
    8.3694    7.6612   22.6703 C   0  0  0  0  0  0  0  0  0  0  0  0
    8.4143    6.6863   16.2273 C   0  0  0  0  0  0  0  0  0  0  0  0
   10.7581    6.5674   21.7636 C   0  0  0  0  0  0  0  0  0  0  0  0
    8.4452    8.7960   19.2958 O   0  0  0  0  0  0  0  0  0  0  0  0
    8.7122    6.7842   24.8569 C   0  0  0  0  0  0  0  0  0  0  0  0
   10.3400    6.1726   14.3081 C   0  0  0  0  0  0  0  0  0  0  0  0
    7.4297    7.5873   24.8962 C   0  0  0  0  0  0  0  0  0  0  0  0
    8.1566   10.0536   16.0516 O   0  0  0  0  0  0  0  0  0  0  0  0
   12.4989    6.2074   20.1776 C   0  0  0  0  0  0  0  0  0  0  0  0
    6.9192    9.1053   20.9073 O   0  0  0  0  0  0  0  0  0  0  0  0
   14.3979    6.0729   18.7784 C   0  0  0  0  0  0  0  0  0  0  0  0
    8.6811    9.5354   16.9998 C   0  0  0  0  0  0  0  0  0  0  0  0
    9.2512    4.2713   13.7653 O   0  0  0  0  0  0  0  0  0  0  0  0
    9.6495    8.6317   16.8332 N   0  0  0  0  0  0  0  0  0  0  0  0
    6.2934    8.6988   23.1988 O   0  0  0  0  0  0  0  0  0  0  0  0
    7.9806    8.6543   20.5437 C   0  0  0  0  0  0  0  0  0  0  0  0
   13.7270    5.7144   19.8610 O   0  0  0  0  0  0  0  0  0  0  0  0
    8.3351    5.5235   15.4478 C   0  0  0  0  0  0  0  0  0  0  0  0
    8.7700    7.8434   21.3915 C   0  0  0  0  0  0  0  0  0  0  0  0
   11.7856    6.8851   19.2401 C   0  0  0  0  0  0  0  0  0  0  0  0
   10.5281    7.4276   19.5649 C   0  0  0  0  0  0  0  0  0  0  0  0
   10.0256    7.2907   20.8484 C   0  0  0  0  0  0  0  0  0  0  0  0
    9.3113    5.3049   14.4911 C   0  0  0  0  0  0  0  0  0  0  0  0
    9.4607    7.5646   16.0139 C   0  0  0  0  0  0  0  0  0  0  0  0
   10.4192    7.3157   15.0955 C   0  0  0  0  0  0  0  0  0  0  0  0
   10.2489    6.4227   23.0218 N   0  0  0  0  0  0  0  0  0  0  0  0
    7.2472    8.0746   23.5050 C   0  0  0  0  0  0  0  0  0  0  0  0
    9.2051    6.9101   23.4604 C   0  0  0  0  0  0  0  0  0  0  0  0
   11.9646    6.0299   21.4251 C   0  0  0  0  0  0  0  0  0  0  0  0
  1  5  1  0
  1 13  1  0
  2 20  2  0
  2 28  1  0
  2 29  1  0
  3 19  4  0
  3 25  4  0
  4 23  4  0
  4 27  1  0
  4 30  4  0
  5 17  1  0
  6  8  1  0
  6 29  1  0
  7 24  4  0
  7 26  4  0
  8 28  1  0
  9 13  2  0
 10 18  1  0
 10 21  4  0
 10 30  4  0
 11 17  2  0
 12 18  1  0
 13 15  1  0
 14 24  1  0
 15 25  1  0
 16 28  2  0
 17 20  1  0
 19 24  4  0
 20 23  1  0
 21 22  4  0
 22 23  4  0
 25 26  4  0
 27 29  2  0
M  END
$$$$

 Created by Python create_sdf_string function

 30 33  0  0  0  0  0  0  0  0999 V2000
    8.3036    9.8571   18.4133 C   0  0  0  0  0  0  0  0  0  0  0  0
    8.3694    7.6612   22.6703 C   0  0  0  0  0  0  0  0  0  0  0  0
    8.4143    6.6863   16.2273 C   0  0  0  0  0  0  0  0  0  0  0  0
   10.7581    6.5674   21.7636 C   0  0  0  0  0  0  0  0  0  0  0  0
    8.4452    8.7960   19.2958 O   0  0  0  0  0  0  0  0  0  0  0  0
    8.7122    6.7842   24.8569 C   0  0  0  0  0  0  0  0  0  0  0  0
   10.3400    6.1726   14.3081 C   0  0  0  0  0  0  0  0  0  0  0  0
    7.4297    7.5873   24.8962 C   0  0  0  0  0  0  0  0  0  0  0  0
    8.1566   10.0536   16.0516 O   0  0  0  0  0  0  0  0  0  0  0  0
   12.4989    6.2074   20.1776 C   0  0  0  0  0  0  0  0  0  0  0  0
    6.9192    9.1053   20.9073 O   0  0  0  0  0  0  0  0  0  0  0  0
   14.3979    6.0729   18.7784 C   0  0  0  0  0  0  0  0  0  0  0  0
    8.6811    9.5354   16.9998 C   0  0  0  0  0  0  0  0  0  0  0  0
    9.2512    4.2713   13.7653 O   0  0  0  0  0  0  0  0  0  0  0  0
    9.6495    8.6317   16.8332 N   0  0  0  0  0  0  0  0  0  0  0  0
    6.2934    8.6988   23.1988 O   0  0  0  0  0  0  0  0  0  0  0  0
    7.9806    8.6543   20.5437 C   0  0  0  0  0  0  0  0  0  0  0  0
   13.7270    5.7144   19.8610 O   0  0  0  0  0  0  0  0  0  0  0  0
    8.3351    5.5235   15.4478 C   0  0  0  0  0  0  0  0  0  0  0  0
    8.7700    7.8434   21.3915 C   0  0  0  0  0  0  0  0  0  0  0  0
   11.7856    6.8851   19.2401 C   0  0  0  0  0  0  0  0  0  0  0  0
   10.5281    7.4276   19.5649 C   0  0  0  0  0  0  0  0  0  0  0  0
   10.0256    7.2907   20.8484 C   0  0  0  0  0  0  0  0  0  0  0  0
    9.3113    5.3049   14.4911 C   0  0  0  0  0  0  0  0  0  0  0  0
    9.4607    7.5646   16.0139 C   0  0  0  0  0  0  0  0  0  0  0  0
   10.4192    7.3157   15.0955 C   0  0  0  0  0  0  0  0  0  0  0  0
   10.2489    6.4227   23.0218 N   0  0  0  0  0  0  0  0  0  0  0  0
    7.2472    8.0746   23.5050 C   0  0  0  0  0  0  0  0  0  0  0  0
    9.2051    6.9101   23.4604 C   0  0  0  0  0  0  0  0  0  0  0  0
   11.9646    6.0299   21.4251 C   0  0  0  0  0  0  0  0  0  0  0  0
  1  5  1  0
  1 13  1  0
  2 20  2  0
  2 28  1  0
  2 29  1  0
  3 19  4  0
  3 25  4  0
  4 23  4  0
  4 27  1  0
  4 30  4  0
  5 17  1  0
  6  8  1  0
  6 29  1  0
  7 24  4  0
  7 26  4  0
  8 28  1  0
  9 13  2  0
 10 18  1  0
 10 21  4  0
 10 30  4  0
 11 17  2  0
 12 18  1  0
 13 15  1  0
 14 24  1  0
 15 25  1  0
 16 28  2  0
 17 20  1  0
 19 24  4  0
 20 23  1  0
 21 22  4  0
 22 23  4  0
 25 26  4  0
 27 29  2  0
M  END
$$$$

 Created by Python create_sdf_string function

 30 33  0  0  0  0  0  0  0  0999 V2000
    8.3036    9.8571   18.4133 C   0  0  0  0  0  0  0  0  0  0  0  0
    8.3694    7.6612   22.6703 C   0  0  0  0  0  0  0  0  0  0  0  0
    8.4143    6.6863   16.2273 C   0  0  0  0  0  0  0  0  0  0  0  0
   10.7581    6.5674   21.7636 C   0  0  0  0  0  0  0  0  0  0  0  0
    8.4452    8.7960   19.2958 O   0  0  0  0  0  0  0  0  0  0  0  0
    8.7122    6.7842   24.8569 C   0  0  0  0  0  0  0  0  0  0  0  0
   10.3400    6.1726   14.3081 C   0  0  0  0  0  0  0  0  0  0  0  0
    7.4297    7.5873   24.8962 C   0  0  0  0  0  0  0  0  0  0  0  0
    8.1566   10.0536   16.0516 O   0  0  0  0  0  0  0  0  0  0  0  0
   12.4989    6.2074   20.1776 C   0  0  0  0  0  0  0  0  0  0  0  0
    6.9192    9.1053   20.9073 O   0  0  0  0  0  0  0  0  0  0  0  0
   14.3979    6.0729   18.7784 C   0  0  0  0  0  0  0  0  0  0  0  0
    8.6811    9.5354   16.9998 C   0  0  0  0  0  0  0  0  0  0  0  0
    9.2512    4.2713   13.7653 O   0  0  0  0  0  0  0  0  0  0  0  0
    9.6495    8.6317   16.8332 N   0  0  0  0  0  0  0  0  0  0  0  0
    6.2934    8.6988   23.1988 O   0  0  0  0  0  0  0  0  0  0  0  0
    7.9806    8.6543   20.5437 C   0  0  0  0  0  0  0  0  0  0  0  0
   13.7270    5.7144   19.8610 O   0  0  0  0  0  0  0  0  0  0  0  0
    8.3351    5.5235   15.4478 C   0  0  0  0  0  0  0  0  0  0  0  0
    8.7700    7.8434   21.3915 C   0  0  0  0  0  0  0  0  0  0  0  0
   11.7856    6.8851   19.2401 C   0  0  0  0  0  0  0  0  0  0  0  0
   10.5281    7.4276   19.5649 C   0  0  0  0  0  0  0  0  0  0  0  0
   10.0256    7.2907   20.8484 C   0  0  0  0  0  0  0  0  0  0  0  0
    9.3113    5.3049   14.4911 C   0  0  0  0  0  0  0  0  0  0  0  0
    9.4607    7.5646   16.0139 C   0  0  0  0  0  0  0  0  0  0  0  0
   10.4192    7.3157   15.0955 C   0  0  0  0  0  0  0  0  0  0  0  0
   10.2489    6.4227   23.0218 N   0  0  0  0  0  0  0  0  0  0  0  0
    7.2472    8.0746   23.5050 C   0  0  0  0  0  0  0  0  0  0  0  0
    9.2051    6.9101   23.4604 C   0  0  0  0  0  0  0  0  0  0  0  0
   11.9646    6.0299   21.4251 C   0  0  0  0  0  0  0  0  0  0  0  0
  1  5  1  0
  1 13  1  0
  2 20  2  0
  2 28  1  0
  2 29  1  0
  3 19  4  0
  3 25  4  0
  4 23  4  0
  4 27  1  0
  4 30  4  0
  5 17  1  0
  6  8  1  0
  6 29  1  0
  7 24  4  0
  7 26  4  0
  8 28  1  0
  9 13  2  0
 10 18  1  0
 10 21  4  0
 10 30  4  0
 11 17  2  0
 12 18  1  0
 13 15  1  0
 14 24  1  0
 15 25  1  0
 16 28  2  0
 17 20  1  0
 19 24  4  0
 20 23  1  0
 21 22  4  0
 22 23  4  0
 25 26  4  0
 27 29  2  0
M  END
$$$$

 Created by Python create_sdf_string function

 30 33  0  0  0  0  0  0  0  0999 V2000
    8.3036    9.8571   18.4133 C   0  0  0  0  0  0  0  0  0  0  0  0
    8.3694    7.6612   22.6703 C   0  0  0  0  0  0  0  0  0  0  0  0
    8.4143    6.6863   16.2273 C   0  0  0  0  0  0  0  0  0  0  0  0
   10.7581    6.5674   21.7636 C   0  0  0  0  0  0  0  0  0  0  0  0
    8.4452    8.7960   19.2958 O   0  0  0  0  0  0  0  0  0  0  0  0
    8.7122    6.7842   24.8569 C   0  0  0  0  0  0  0  0  0  0  0  0
   10.3400    6.1726   14.3081 C   0  0  0  0  0  0  0  0  0  0  0  0
    7.4297    7.5873   24.8962 C   0  0  0  0  0  0  0  0  0  0  0  0
    8.1566   10.0536   16.0516 O   0  0  0  0  0  0  0  0  0  0  0  0
   12.4989    6.2074   20.1776 C   0  0  0  0  0  0  0  0  0  0  0  0
    6.9192    9.1053   20.9073 O   0  0  0  0  0  0  0  0  0  0  0  0
   14.3979    6.0729   18.7784 C   0  0  0  0  0  0  0  0  0  0  0  0
    8.6811    9.5354   16.9998 C   0  0  0  0  0  0  0  0  0  0  0  0
    9.2512    4.2713   13.7653 O   0  0  0  0  0  0  0  0  0  0  0  0
    9.6495    8.6317   16.8332 N   0  0  0  0  0  0  0  0  0  0  0  0
    6.2934    8.6988   23.1988 O   0  0  0  0  0  0  0  0  0  0  0  0
    7.9806    8.6543   20.5437 C   0  0  0  0  0  0  0  0  0  0  0  0
   13.7270    5.7144   19.8610 O   0  0  0  0  0  0  0  0  0  0  0  0
    8.3351    5.5235   15.4478 C   0  0  0  0  0  0  0  0  0  0  0  0
    8.7700    7.8434   21.3915 C   0  0  0  0  0  0  0  0  0  0  0  0
   11.7856    6.8851   19.2401 C   0  0  0  0  0  0  0  0  0  0  0  0
   10.5281    7.4276   19.5649 C   0  0  0  0  0  0  0  0  0  0  0  0
   10.0256    7.2907   20.8484 C   0  0  0  0  0  0  0  0  0  0  0  0
    9.3113    5.3049   14.4911 C   0  0  0  0  0  0  0  0  0  0  0  0
    9.4607    7.5646   16.0139 C   0  0  0  0  0  0  0  0  0  0  0  0
   10.4192    7.3157   15.0955 C   0  0  0  0  0  0  0  0  0  0  0  0
   10.2489    6.4227   23.0218 N   0  0  0  0  0  0  0  0  0  0  0  0
    7.2472    8.0746   23.5050 C   0  0  0  0  0  0  0  0  0  0  0  0
    9.2051    6.9101   23.4604 C   0  0  0  0  0  0  0  0  0  0  0  0
   11.9646    6.0299   21.4251 C   0  0  0  0  0  0  0  0  0  0  0  0
  1  5  1  0
  1 13  1  0
  2 20  2  0
  2 28  1  0
  2 29  1  0
  3 19  4  0
  3 25  4  0
  4 23  4  0
  4 27  1  0
  4 30  4  0
  5 17  1  0
  6  8  1  0
  6 29  1  0
  7 24  4  0
  7 26  4  0
  8 28  1  0
  9 13  2  0
 10 18  1  0
 10 21  4  0
 10 30  4  0
 11 17  2  0
 12 18  1  0
 13 15  1  0
 14 24  1  0
 15 25  1  0
 16 28  2  0
 17 20  1  0
 19 24  4  0
 20 23  1  0
 21 22  4  0
 22 23  4  0
 25 26  4  0
 27 29  2  0
M  END
$$$$

 Created by Python create_sdf_string function

 30 33  0  0  0  0  0  0  0  0999 V2000
    8.3036    9.8571   18.4133 C   0  0  0  0  0  0  0  0  0  0  0  0
    8.3694    7.6612   22.6703 C   0  0  0  0  0  0  0  0  0  0  0  0
    8.4143    6.6863   16.2273 C   0  0  0  0  0  0  0  0  0  0  0  0
   10.7581    6.5674   21.7636 C   0  0  0  0  0  0  0  0  0  0  0  0
    8.4452    8.7960   19.2958 O   0  0  0  0  0  0  0  0  0  0  0  0
    8.7122    6.7842   24.8569 C   0  0  0  0  0  0  0  0  0  0  0  0
   10.3400    6.1726   14.3081 C   0  0  0  0  0  0  0  0  0  0  0  0
    7.4297    7.5873   24.8962 C   0  0  0  0  0  0  0  0  0  0  0  0
    8.1566   10.0536   16.0516 O   0  0  0  0  0  0  0  0  0  0  0  0
   12.4989    6.2074   20.1776 C   0  0  0  0  0  0  0  0  0  0  0  0
    6.9192    9.1053   20.9073 O   0  0  0  0  0  0  0  0  0  0  0  0
   14.3979    6.0729   18.7784 C   0  0  0  0  0  0  0  0  0  0  0  0
    8.6811    9.5354   16.9998 C   0  0  0  0  0  0  0  0  0  0  0  0
    9.2512    4.2713   13.7653 O   0  0  0  0  0  0  0  0  0  0  0  0
    9.6495    8.6317   16.8332 N   0  0  0  0  0  0  0  0  0  0  0  0
    6.2934    8.6988   23.1988 O   0  0  0  0  0  0  0  0  0  0  0  0
    7.9806    8.6543   20.5437 C   0  0  0  0  0  0  0  0  0  0  0  0
   13.7270    5.7144   19.8610 O   0  0  0  0  0  0  0  0  0  0  0  0
    8.3351    5.5235   15.4478 C   0  0  0  0  0  0  0  0  0  0  0  0
    8.7700    7.8434   21.3915 C   0  0  0  0  0  0  0  0  0  0  0  0
   11.7856    6.8851   19.2401 C   0  0  0  0  0  0  0  0  0  0  0  0
   10.5281    7.4276   19.5649 C   0  0  0  0  0  0  0  0  0  0  0  0
   10.0256    7.2907   20.8484 C   0  0  0  0  0  0  0  0  0  0  0  0
    9.3113    5.3049   14.4911 C   0  0  0  0  0  0  0  0  0  0  0  0
    9.4607    7.5646   16.0139 C   0  0  0  0  0  0  0  0  0  0  0  0
   10.4192    7.3157   15.0955 C   0  0  0  0  0  0  0  0  0  0  0  0
   10.2489    6.4227   23.0218 N   0  0  0  0  0  0  0  0  0  0  0  0
    7.2472    8.0746   23.5050 C   0  0  0  0  0  0  0  0  0  0  0  0
    9.2051    6.9101   23.4604 C   0  0  0  0  0  0  0  0  0  0  0  0
   11.9646    6.0299   21.4251 C   0  0  0  0  0  0  0  0  0  0  0  0
  1  5  1  0
  1 13  1  0
  2 20  2  0
  2 28  1  0
  2 29  1  0
  3 19  4  0
  3 25  4  0
  4 23  4  0
  4 27  1  0
  4 30  4  0
  5 17  1  0
  6  8  1  0
  6 29  1  0
  7 24  4  0
  7 26  4  0
  8 28  1  0
  9 13  2  0
 10 18  1  0
 10 21  4  0
 10 30  4  0
 11 17  2  0
 12 18  1  0
 13 15  1  0
 14 24  1  0
 15 25  1  0
 16 28  2  0
 17 20  1  0
 19 24  4  0
 20 23  1  0
 21 22  4  0
 22 23  4  0
 25 26  4  0
 27 29  2  0
M  END
$$$$

 Created by Python create_sdf_string function

 30 33  0  0  0  0  0  0  0  0999 V2000
    8.3036    9.8571   18.4133 C   0  0  0  0  0  0  0  0  0  0  0  0
    8.3694    7.6612   22.6703 C   0  0  0  0  0  0  0  0  0  0  0  0
    8.4143    6.6863   16.2273 C   0  0  0  0  0  0  0  0  0  0  0  0
   10.7581    6.5674   21.7636 C   0  0  0  0  0  0  0  0  0  0  0  0
    8.4452    8.7960   19.2958 O   0  0  0  0  0  0  0  0  0  0  0  0
    8.7122    6.7842   24.8569 C   0  0  0  0  0  0  0  0  0  0  0  0
   10.3400    6.1726   14.3081 C   0  0  0  0  0  0  0  0  0  0  0  0
    7.4297    7.5873   24.8962 C   0  0  0  0  0  0  0  0  0  0  0  0
    8.1566   10.0536   16.0516 O   0  0  0  0  0  0  0  0  0  0  0  0
   12.4989    6.2074   20.1776 C   0  0  0  0  0  0  0  0  0  0  0  0
    6.9192    9.1053   20.9073 O   0  0  0  0  0  0  0  0  0  0  0  0
   14.3979    6.0729   18.7784 C   0  0  0  0  0  0  0  0  0  0  0  0
    8.6811    9.5354   16.9998 C   0  0  0  0  0  0  0  0  0  0  0  0
    9.2512    4.2713   13.7653 O   0  0  0  0  0  0  0  0  0  0  0  0
    9.6495    8.6317   16.8332 N   0  0  0  0  0  0  0  0  0  0  0  0
    6.2934    8.6988   23.1988 O   0  0  0  0  0  0  0  0  0  0  0  0
    7.9806    8.6543   20.5437 C   0  0  0  0  0  0  0  0  0  0  0  0
   13.7270    5.7144   19.8610 O   0  0  0  0  0  0  0  0  0  0  0  0
    8.3351    5.5235   15.4478 C   0  0  0  0  0  0  0  0  0  0  0  0
    8.7700    7.8434   21.3915 C   0  0  0  0  0  0  0  0  0  0  0  0
   11.7856    6.8851   19.2401 C   0  0  0  0  0  0  0  0  0  0  0  0
   10.5281    7.4276   19.5649 C   0  0  0  0  0  0  0  0  0  0  0  0
   10.0256    7.2907   20.8484 C   0  0  0  0  0  0  0  0  0  0  0  0
    9.3113    5.3049   14.4911 C   0  0  0  0  0  0  0  0  0  0  0  0
    9.4607    7.5646   16.0139 C   0  0  0  0  0  0  0  0  0  0  0  0
   10.4192    7.3157   15.0955 C   0  0  0  0  0  0  0  0  0  0  0  0
   10.2489    6.4227   23.0218 N   0  0  0  0  0  0  0  0  0  0  0  0
    7.2472    8.0746   23.5050 C   0  0  0  0  0  0  0  0  0  0  0  0
    9.2051    6.9101   23.4604 C   0  0  0  0  0  0  0  0  0  0  0  0
   11.9646    6.0299   21.4251 C   0  0  0  0  0  0  0  0  0  0  0  0
  1  5  1  0
  1 13  1  0
  2 20  2  0
  2 28  1  0
  2 29  1  0
  3 19  4  0
  3 25  4  0
  4 23  4  0
  4 27  1  0
  4 30  4  0
  5 17  1  0
  6  8  1  0
  6 29  1  0
  7 24  4  0
  7 26  4  0
  8 28  1  0
  9 13  2  0
 10 18  1  0
 10 21  4  0
 10 30  4  0
 11 17  2  0
 12 18  1  0
 13 15  1  0
 14 24  1  0
 15 25  1  0
 16 28  2  0
 17 20  1  0
 19 24  4  0
 20 23  1  0
 21 22  4  0
 22 23  4  0
 25 26  4  0
 27 29  2  0
M  END
$$$$

 Created by Python create_sdf_string function

 30 33  0  0  0  0  0  0  0  0999 V2000
    8.3036    9.8571   18.4133 C   0  0  0  0  0  0  0  0  0  0  0  0
    8.3694    7.6612   22.6703 C   0  0  0  0  0  0  0  0  0  0  0  0
    8.4143    6.6863   16.2273 C   0  0  0  0  0  0  0  0  0  0  0  0
   10.7581    6.5674   21.7636 C   0  0  0  0  0  0  0  0  0  0  0  0
    8.4452    8.7960   19.2958 O   0  0  0  0  0  0  0  0  0  0  0  0
    8.7122    6.7842   24.8569 C   0  0  0  0  0  0  0  0  0  0  0  0
   10.3400    6.1726   14.3081 C   0  0  0  0  0  0  0  0  0  0  0  0
    7.4297    7.5873   24.8962 C   0  0  0  0  0  0  0  0  0  0  0  0
    8.1566   10.0536   16.0516 O   0  0  0  0  0  0  0  0  0  0  0  0
   12.4989    6.2074   20.1776 C   0  0  0  0  0  0  0  0  0  0  0  0
    6.9192    9.1053   20.9073 O   0  0  0  0  0  0  0  0  0  0  0  0
   14.3979    6.0729   18.7784 C   0  0  0  0  0  0  0  0  0  0  0  0
    8.6811    9.5354   16.9998 C   0  0  0  0  0  0  0  0  0  0  0  0
    9.2512    4.2713   13.7653 O   0  0  0  0  0  0  0  0  0  0  0  0
    9.6495    8.6317   16.8332 N   0  0  0  0  0  0  0  0  0  0  0  0
    6.2934    8.6988   23.1988 O   0  0  0  0  0  0  0  0  0  0  0  0
    7.9806    8.6543   20.5437 C   0  0  0  0  0  0  0  0  0  0  0  0
   13.7270    5.7144   19.8610 O   0  0  0  0  0  0  0  0  0  0  0  0
    8.3351    5.5235   15.4478 C   0  0  0  0  0  0  0  0  0  0  0  0
    8.7700    7.8434   21.3915 C   0  0  0  0  0  0  0  0  0  0  0  0
   11.7856    6.8851   19.2401 C   0  0  0  0  0  0  0  0  0  0  0  0
   10.5281    7.4276   19.5649 C   0  0  0  0  0  0  0  0  0  0  0  0
   10.0256    7.2907   20.8484 C   0  0  0  0  0  0  0  0  0  0  0  0
    9.3113    5.3049   14.4911 C   0  0  0  0  0  0  0  0  0  0  0  0
    9.4607    7.5646   16.0139 C   0  0  0  0  0  0  0  0  0  0  0  0
   10.4192    7.3157   15.0955 C   0  0  0  0  0  0  0  0  0  0  0  0
   10.2489    6.4227   23.0218 N   0  0  0  0  0  0  0  0  0  0  0  0
    7.2472    8.0746   23.5050 C   0  0  0  0  0  0  0  0  0  0  0  0
    9.2051    6.9101   23.4604 C   0  0  0  0  0  0  0  0  0  0  0  0
   11.9646    6.0299   21.4251 C   0  0  0  0  0  0  0  0  0  0  0  0
  1  5  1  0
  1 13  1  0
  2 20  2  0
  2 28  1  0
  2 29  1  0
  3 19  4  0
  3 25  4  0
  4 23  4  0
  4 27  1  0
  4 30  4  0
  5 17  1  0
  6  8  1  0
  6 29  1  0
  7 24  4  0
  7 26  4  0
  8 28  1  0
  9 13  2  0
 10 18  1  0
 10 21  4  0
 10 30  4  0
 11 17  2  0
 12 18  1  0
 13 15  1  0
 14 24  1  0
 15 25  1  0
 16 28  2  0
 17 20  1  0
 19 24  4  0
 20 23  1  0
 21 22  4  0
 22 23  4  0
 25 26  4  0
 27 29  2  0
M  END
$$$$

 Created by Python create_sdf_string function

 30 33  0  0  0  0  0  0  0  0999 V2000
    8.3036    9.8571   18.4133 C   0  0  0  0  0  0  0  0  0  0  0  0
    8.3694    7.6612   22.6703 C   0  0  0  0  0  0  0  0  0  0  0  0
    8.4143    6.6863   16.2273 C   0  0  0  0  0  0  0  0  0  0  0  0
   10.7581    6.5674   21.7636 C   0  0  0  0  0  0  0  0  0  0  0  0
    8.4452    8.7960   19.2958 O   0  0  0  0  0  0  0  0  0  0  0  0
    8.7122    6.7842   24.8569 C   0  0  0  0  0  0  0  0  0  0  0  0
   10.3400    6.1726   14.3081 C   0  0  0  0  0  0  0  0  0  0  0  0
    7.4297    7.5873   24.8962 C   0  0  0  0  0  0  0  0  0  0  0  0
    8.1566   10.0536   16.0516 O   0  0  0  0  0  0  0  0  0  0  0  0
   12.4989    6.2074   20.1776 C   0  0  0  0  0  0  0  0  0  0  0  0
    6.9192    9.1053   20.9073 O   0  0  0  0  0  0  0  0  0  0  0  0
   14.3979    6.0729   18.7784 C   0  0  0  0  0  0  0  0  0  0  0  0
    8.6811    9.5354   16.9998 C   0  0  0  0  0  0  0  0  0  0  0  0
    9.2512    4.2713   13.7653 O   0  0  0  0  0  0  0  0  0  0  0  0
    9.6495    8.6317   16.8332 N   0  0  0  0  0  0  0  0  0  0  0  0
    6.2934    8.6988   23.1988 O   0  0  0  0  0  0  0  0  0  0  0  0
    7.9806    8.6543   20.5437 C   0  0  0  0  0  0  0  0  0  0  0  0
   13.7270    5.7144   19.8610 O   0  0  0  0  0  0  0  0  0  0  0  0
    8.3351    5.5235   15.4478 C   0  0  0  0  0  0  0  0  0  0  0  0
    8.7700    7.8434   21.3915 C   0  0  0  0  0  0  0  0  0  0  0  0
   11.7856    6.8851   19.2401 C   0  0  0  0  0  0  0  0  0  0  0  0
   10.5281    7.4276   19.5649 C   0  0  0  0  0  0  0  0  0  0  0  0
   10.0256    7.2907   20.8484 C   0  0  0  0  0  0  0  0  0  0  0  0
    9.3113    5.3049   14.4911 C   0  0  0  0  0  0  0  0  0  0  0  0
    9.4607    7.5646   16.0139 C   0  0  0  0  0  0  0  0  0  0  0  0
   10.4192    7.3157   15.0955 C   0  0  0  0  0  0  0  0  0  0  0  0
   10.2489    6.4227   23.0218 N   0  0  0  0  0  0  0  0  0  0  0  0
    7.2472    8.0746   23.5050 C   0  0  0  0  0  0  0  0  0  0  0  0
    9.2051    6.9101   23.4604 C   0  0  0  0  0  0  0  0  0  0  0  0
   11.9646    6.0299   21.4251 C   0  0  0  0  0  0  0  0  0  0  0  0
  1  5  1  0
  1 13  1  0
  2 20  2  0
  2 28  1  0
  2 29  1  0
  3 19  4  0
  3 25  4  0
  4 23  4  0
  4 27  1  0
  4 30  4  0
  5 17  1  0
  6  8  1  0
  6 29  1  0
  7 24  4  0
  7 26  4  0
  8 28  1  0
  9 13  2  0
 10 18  1  0
 10 21  4  0
 10 30  4  0
 11 17  2  0
 12 18  1  0
 13 15  1  0
 14 24  1  0
 15 25  1  0
 16 28  2  0
 17 20  1  0
 19 24  4  0
 20 23  1  0
 21 22  4  0
 22 23  4  0
 25 26  4  0
 27 29  2  0
M  END
$$$$

 Created by Python create_sdf_string function

 30 33  0  0  0  0  0  0  0  0999 V2000
    8.3036    9.8571   18.4133 C   0  0  0  0  0  0  0  0  0  0  0  0
    8.3694    7.6612   22.6703 C   0  0  0  0  0  0  0  0  0  0  0  0
    8.4143    6.6863   16.2273 C   0  0  0  0  0  0  0  0  0  0  0  0
   10.7581    6.5674   21.7636 C   0  0  0  0  0  0  0  0  0  0  0  0
    8.4452    8.7960   19.2958 O   0  0  0  0  0  0  0  0  0  0  0  0
    8.7122    6.7842   24.8569 C   0  0  0  0  0  0  0  0  0  0  0  0
   10.3400    6.1726   14.3081 C   0  0  0  0  0  0  0  0  0  0  0  0
    7.4297    7.5873   24.8962 C   0  0  0  0  0  0  0  0  0  0  0  0
    8.1566   10.0536   16.0516 O   0  0  0  0  0  0  0  0  0  0  0  0
   12.4989    6.2074   20.1776 C   0  0  0  0  0  0  0  0  0  0  0  0
    6.9192    9.1053   20.9073 O   0  0  0  0  0  0  0  0  0  0  0  0
   14.3979    6.0729   18.7784 C   0  0  0  0  0  0  0  0  0  0  0  0
    8.6811    9.5354   16.9998 C   0  0  0  0  0  0  0  0  0  0  0  0
    9.2512    4.2713   13.7653 O   0  0  0  0  0  0  0  0  0  0  0  0
    9.6495    8.6317   16.8332 N   0  0  0  0  0  0  0  0  0  0  0  0
    6.2934    8.6988   23.1988 O   0  0  0  0  0  0  0  0  0  0  0  0
    7.9806    8.6543   20.5437 C   0  0  0  0  0  0  0  0  0  0  0  0
   13.7270    5.7144   19.8610 O   0  0  0  0  0  0  0  0  0  0  0  0
    8.3351    5.5235   15.4478 C   0  0  0  0  0  0  0  0  0  0  0  0
    8.7700    7.8434   21.3915 C   0  0  0  0  0  0  0  0  0  0  0  0
   11.7856    6.8851   19.2401 C   0  0  0  0  0  0  0  0  0  0  0  0
   10.5281    7.4276   19.5649 C   0  0  0  0  0  0  0  0  0  0  0  0
   10.0256    7.2907   20.8484 C   0  0  0  0  0  0  0  0  0  0  0  0
    9.3113    5.3049   14.4911 C   0  0  0  0  0  0  0  0  0  0  0  0
    9.4607    7.5646   16.0139 C   0  0  0  0  0  0  0  0  0  0  0  0
   10.4192    7.3157   15.0955 C   0  0  0  0  0  0  0  0  0  0  0  0
   10.2489    6.4227   23.0218 N   0  0  0  0  0  0  0  0  0  0  0  0
    7.2472    8.0746   23.5050 C   0  0  0  0  0  0  0  0  0  0  0  0
    9.2051    6.9101   23.4604 C   0  0  0  0  0  0  0  0  0  0  0  0
   11.9646    6.0299   21.4251 C   0  0  0  0  0  0  0  0  0  0  0  0
  1  5  1  0
  1 13  1  0
  2 20  2  0
  2 28  1  0
  2 29  1  0
  3 19  4  0
  3 25  4  0
  4 23  4  0
  4 27  1  0
  4 30  4  0
  5 17  1  0
  6  8  1  0
  6 29  1  0
  7 24  4  0
  7 26  4  0
  8 28  1  0
  9 13  2  0
 10 18  1  0
 10 21  4  0
 10 30  4  0
 11 17  2  0
 12 18  1  0
 13 15  1  0
 14 24  1  0
 15 25  1  0
 16 28  2  0
 17 20  1  0
 19 24  4  0
 20 23  1  0
 21 22  4  0
 22 23  4  0
 25 26  4  0
 27 29  2  0
M  END
$$$$

 Created by Python create_sdf_string function

 30 33  0  0  0  0  0  0  0  0999 V2000
    8.3036    9.8571   18.4133 C   0  0  0  0  0  0  0  0  0  0  0  0
    8.3694    7.6612   22.6703 C   0  0  0  0  0  0  0  0  0  0  0  0
    8.4143    6.6863   16.2273 C   0  0  0  0  0  0  0  0  0  0  0  0
   10.7581    6.5674   21.7636 C   0  0  0  0  0  0  0  0  0  0  0  0
    8.4452    8.7960   19.2958 O   0  0  0  0  0  0  0  0  0  0  0  0
    8.7122    6.7842   24.8569 C   0  0  0  0  0  0  0  0  0  0  0  0
   10.3400    6.1726   14.3081 C   0  0  0  0  0  0  0  0  0  0  0  0
    7.4297    7.5873   24.8962 C   0  0  0  0  0  0  0  0  0  0  0  0
    8.1566   10.0536   16.0516 O   0  0  0  0  0  0  0  0  0  0  0  0
   12.4989    6.2074   20.1776 C   0  0  0  0  0  0  0  0  0  0  0  0
    6.9192    9.1053   20.9073 O   0  0  0  0  0  0  0  0  0  0  0  0
   14.3979    6.0729   18.7784 C   0  0  0  0  0  0  0  0  0  0  0  0
    8.6811    9.5354   16.9998 C   0  0  0  0  0  0  0  0  0  0  0  0
    9.2512    4.2713   13.7653 O   0  0  0  0  0  0  0  0  0  0  0  0
    9.6495    8.6317   16.8332 N   0  0  0  0  0  0  0  0  0  0  0  0
    6.2934    8.6988   23.1988 O   0  0  0  0  0  0  0  0  0  0  0  0
    7.9806    8.6543   20.5437 C   0  0  0  0  0  0  0  0  0  0  0  0
   13.7270    5.7144   19.8610 O   0  0  0  0  0  0  0  0  0  0  0  0
    8.3351    5.5235   15.4478 C   0  0  0  0  0  0  0  0  0  0  0  0
    8.7700    7.8434   21.3915 C   0  0  0  0  0  0  0  0  0  0  0  0
   11.7856    6.8851   19.2401 C   0  0  0  0  0  0  0  0  0  0  0  0
   10.5281    7.4276   19.5649 C   0  0  0  0  0  0  0  0  0  0  0  0
   10.0256    7.2907   20.8484 C   0  0  0  0  0  0  0  0  0  0  0  0
    9.3113    5.3049   14.4911 C   0  0  0  0  0  0  0  0  0  0  0  0
    9.4607    7.5646   16.0139 C   0  0  0  0  0  0  0  0  0  0  0  0
   10.4192    7.3157   15.0955 C   0  0  0  0  0  0  0  0  0  0  0  0
   10.2489    6.4227   23.0218 N   0  0  0  0  0  0  0  0  0  0  0  0
    7.2472    8.0746   23.5050 C   0  0  0  0  0  0  0  0  0  0  0  0
    9.2051    6.9101   23.4604 C   0  0  0  0  0  0  0  0  0  0  0  0
   11.9646    6.0299   21.4251 C   0  0  0  0  0  0  0  0  0  0  0  0
  1  5  1  0
  1 13  1  0
  2 20  2  0
  2 28  1  0
  2 29  1  0
  3 19  4  0
  3 25  4  0
  4 23  4  0
  4 27  1  0
  4 30  4  0
  5 17  1  0
  6  8  1  0
  6 29  1  0
  7 24  4  0
  7 26  4  0
  8 28  1  0
  9 13  2  0
 10 18  1  0
 10 21  4  0
 10 30  4  0
 11 17  2  0
 12 18  1  0
 13 15  1  0
 14 24  1  0
 15 25  1  0
 16 28  2  0
 17 20  1  0
 19 24  4  0
 20 23  1  0
 21 22  4  0
 22 23  4  0
 25 26  4  0
 27 29  2  0
M  END
$$$$

 Created by Python create_sdf_string function

 30 33  0  0  0  0  0  0  0  0999 V2000
    8.3036    9.8571   18.4133 C   0  0  0  0  0  0  0  0  0  0  0  0
    8.3694    7.6612   22.6703 C   0  0  0  0  0  0  0  0  0  0  0  0
    8.4143    6.6863   16.2273 C   0  0  0  0  0  0  0  0  0  0  0  0
   10.7581    6.5674   21.7636 C   0  0  0  0  0  0  0  0  0  0  0  0
    8.4452    8.7960   19.2958 O   0  0  0  0  0  0  0  0  0  0  0  0
    8.7122    6.7842   24.8569 C   0  0  0  0  0  0  0  0  0  0  0  0
   10.3400    6.1726   14.3081 C   0  0  0  0  0  0  0  0  0  0  0  0
    7.4297    7.5873   24.8962 C   0  0  0  0  0  0  0  0  0  0  0  0
    8.1566   10.0536   16.0516 O   0  0  0  0  0  0  0  0  0  0  0  0
   12.4989    6.2074   20.1776 C   0  0  0  0  0  0  0  0  0  0  0  0
    6.9192    9.1053   20.9073 O   0  0  0  0  0  0  0  0  0  0  0  0
   14.3979    6.0729   18.7784 C   0  0  0  0  0  0  0  0  0  0  0  0
    8.6811    9.5354   16.9998 C   0  0  0  0  0  0  0  0  0  0  0  0
    9.2512    4.2713   13.7653 O   0  0  0  0  0  0  0  0  0  0  0  0
    9.6495    8.6317   16.8332 N   0  0  0  0  0  0  0  0  0  0  0  0
    6.2934    8.6988   23.1988 O   0  0  0  0  0  0  0  0  0  0  0  0
    7.9806    8.6543   20.5437 C   0  0  0  0  0  0  0  0  0  0  0  0
   13.7270    5.7144   19.8610 O   0  0  0  0  0  0  0  0  0  0  0  0
    8.3351    5.5235   15.4478 C   0  0  0  0  0  0  0  0  0  0  0  0
    8.7700    7.8434   21.3915 C   0  0  0  0  0  0  0  0  0  0  0  0
   11.7856    6.8851   19.2401 C   0  0  0  0  0  0  0  0  0  0  0  0
   10.5281    7.4276   19.5649 C   0  0  0  0  0  0  0  0  0  0  0  0
   10.0256    7.2907   20.8484 C   0  0  0  0  0  0  0  0  0  0  0  0
    9.3113    5.3049   14.4911 C   0  0  0  0  0  0  0  0  0  0  0  0
    9.4607    7.5646   16.0139 C   0  0  0  0  0  0  0  0  0  0  0  0
   10.4192    7.3157   15.0955 C   0  0  0  0  0  0  0  0  0  0  0  0
   10.2489    6.4227   23.0218 N   0  0  0  0  0  0  0  0  0  0  0  0
    7.2472    8.0746   23.5050 C   0  0  0  0  0  0  0  0  0  0  0  0
    9.2051    6.9101   23.4604 C   0  0  0  0  0  0  0  0  0  0  0  0
   11.9646    6.0299   21.4251 C   0  0  0  0  0  0  0  0  0  0  0  0
  1  5  1  0
  1 13  1  0
  2 20  2  0
  2 28  1  0
  2 29  1  0
  3 19  4  0
  3 25  4  0
  4 23  4  0
  4 27  1  0
  4 30  4  0
  5 17  1  0
  6  8  1  0
  6 29  1  0
  7 24  4  0
  7 26  4  0
  8 28  1  0
  9 13  2  0
 10 18  1  0
 10 21  4  0
 10 30  4  0
 11 17  2  0
 12 18  1  0
 13 15  1  0
 14 24  1  0
 15 25  1  0
 16 28  2  0
 17 20  1  0
 19 24  4  0
 20 23  1  0
 21 22  4  0
 22 23  4  0
 25 26  4  0
 27 29  2  0
M  END
$$$$

 Created by Python create_sdf_string function

 30 33  0  0  0  0  0  0  0  0999 V2000
    8.3036    9.8571   18.4133 C   0  0  0  0  0  0  0  0  0  0  0  0
    8.3694    7.6612   22.6703 C   0  0  0  0  0  0  0  0  0  0  0  0
    8.4143    6.6863   16.2273 C   0  0  0  0  0  0  0  0  0  0  0  0
   10.7581    6.5674   21.7636 C   0  0  0  0  0  0  0  0  0  0  0  0
    8.4452    8.7960   19.2958 O   0  0  0  0  0  0  0  0  0  0  0  0
    8.7122    6.7842   24.8569 C   0  0  0  0  0  0  0  0  0  0  0  0
   10.3400    6.1726   14.3081 C   0  0  0  0  0  0  0  0  0  0  0  0
    7.4297    7.5873   24.8962 C   0  0  0  0  0  0  0  0  0  0  0  0
    8.1566   10.0536   16.0516 O   0  0  0  0  0  0  0  0  0  0  0  0
   12.4989    6.2074   20.1776 C   0  0  0  0  0  0  0  0  0  0  0  0
    6.9192    9.1053   20.9073 O   0  0  0  0  0  0  0  0  0  0  0  0
   14.3979    6.0729   18.7784 C   0  0  0  0  0  0  0  0  0  0  0  0
    8.6811    9.5354   16.9998 C   0  0  0  0  0  0  0  0  0  0  0  0
    9.2512    4.2713   13.7653 O   0  0  0  0  0  0  0  0  0  0  0  0
    9.6495    8.6317   16.8332 N   0  0  0  0  0  0  0  0  0  0  0  0
    6.2934    8.6988   23.1988 O   0  0  0  0  0  0  0  0  0  0  0  0
    7.9806    8.6543   20.5437 C   0  0  0  0  0  0  0  0  0  0  0  0
   13.7270    5.7144   19.8610 O   0  0  0  0  0  0  0  0  0  0  0  0
    8.3351    5.5235   15.4478 C   0  0  0  0  0  0  0  0  0  0  0  0
    8.7700    7.8434   21.3915 C   0  0  0  0  0  0  0  0  0  0  0  0
   11.7856    6.8851   19.2401 C   0  0  0  0  0  0  0  0  0  0  0  0
   10.5281    7.4276   19.5649 C   0  0  0  0  0  0  0  0  0  0  0  0
   10.0256    7.2907   20.8484 C   0  0  0  0  0  0  0  0  0  0  0  0
    9.3113    5.3049   14.4911 C   0  0  0  0  0  0  0  0  0  0  0  0
    9.4607    7.5646   16.0139 C   0  0  0  0  0  0  0  0  0  0  0  0
   10.4192    7.3157   15.0955 C   0  0  0  0  0  0  0  0  0  0  0  0
   10.2489    6.4227   23.0218 N   0  0  0  0  0  0  0  0  0  0  0  0
    7.2472    8.0746   23.5050 C   0  0  0  0  0  0  0  0  0  0  0  0
    9.2051    6.9101   23.4604 C   0  0  0  0  0  0  0  0  0  0  0  0
   11.9646    6.0299   21.4251 C   0  0  0  0  0  0  0  0  0  0  0  0
  1  5  1  0
  1 13  1  0
  2 20  2  0
  2 28  1  0
  2 29  1  0
  3 19  4  0
  3 25  4  0
  4 23  4  0
  4 27  1  0
  4 30  4  0
  5 17  1  0
  6  8  1  0
  6 29  1  0
  7 24  4  0
  7 26  4  0
  8 28  1  0
  9 13  2  0
 10 18  1  0
 10 21  4  0
 10 30  4  0
 11 17  2  0
 12 18  1  0
 13 15  1  0
 14 24  1  0
 15 25  1  0
 16 28  2  0
 17 20  1  0
 19 24  4  0
 20 23  1  0
 21 22  4  0
 22 23  4  0
 25 26  4  0
 27 29  2  0
M  END
$$$$

 Created by Python create_sdf_string function

 30 33  0  0  0  0  0  0  0  0999 V2000
    8.3036    9.8571   18.4133 C   0  0  0  0  0  0  0  0  0  0  0  0
    8.3694    7.6612   22.6703 C   0  0  0  0  0  0  0  0  0  0  0  0
    8.4143    6.6863   16.2273 C   0  0  0  0  0  0  0  0  0  0  0  0
   10.7581    6.5674   21.7636 C   0  0  0  0  0  0  0  0  0  0  0  0
    8.4452    8.7960   19.2958 O   0  0  0  0  0  0  0  0  0  0  0  0
    8.7122    6.7842   24.8569 C   0  0  0  0  0  0  0  0  0  0  0  0
   10.3400    6.1726   14.3081 C   0  0  0  0  0  0  0  0  0  0  0  0
    7.4297    7.5873   24.8962 C   0  0  0  0  0  0  0  0  0  0  0  0
    8.1566   10.0536   16.0516 O   0  0  0  0  0  0  0  0  0  0  0  0
   12.4989    6.2074   20.1776 C   0  0  0  0  0  0  0  0  0  0  0  0
    6.9192    9.1053   20.9073 O   0  0  0  0  0  0  0  0  0  0  0  0
   14.3979    6.0729   18.7784 C   0  0  0  0  0  0  0  0  0  0  0  0
    8.6811    9.5354   16.9998 C   0  0  0  0  0  0  0  0  0  0  0  0
    9.2512    4.2713   13.7653 O   0  0  0  0  0  0  0  0  0  0  0  0
    9.6495    8.6317   16.8332 N   0  0  0  0  0  0  0  0  0  0  0  0
    6.2934    8.6988   23.1988 O   0  0  0  0  0  0  0  0  0  0  0  0
    7.9806    8.6543   20.5437 C   0  0  0  0  0  0  0  0  0  0  0  0
   13.7270    5.7144   19.8610 O   0  0  0  0  0  0  0  0  0  0  0  0
    8.3351    5.5235   15.4478 C   0  0  0  0  0  0  0  0  0  0  0  0
    8.7700    7.8434   21.3915 C   0  0  0  0  0  0  0  0  0  0  0  0
   11.7856    6.8851   19.2401 C   0  0  0  0  0  0  0  0  0  0  0  0
   10.5281    7.4276   19.5649 C   0  0  0  0  0  0  0  0  0  0  0  0
   10.0256    7.2907   20.8484 C   0  0  0  0  0  0  0  0  0  0  0  0
    9.3113    5.3049   14.4911 C   0  0  0  0  0  0  0  0  0  0  0  0
    9.4607    7.5646   16.0139 C   0  0  0  0  0  0  0  0  0  0  0  0
   10.4192    7.3157   15.0955 C   0  0  0  0  0  0  0  0  0  0  0  0
   10.2489    6.4227   23.0218 N   0  0  0  0  0  0  0  0  0  0  0  0
    7.2472    8.0746   23.5050 C   0  0  0  0  0  0  0  0  0  0  0  0
    9.2051    6.9101   23.4604 C   0  0  0  0  0  0  0  0  0  0  0  0
   11.9646    6.0299   21.4251 C   0  0  0  0  0  0  0  0  0  0  0  0
  1  5  1  0
  1 13  1  0
  2 20  2  0
  2 28  1  0
  2 29  1  0
  3 19  4  0
  3 25  4  0
  4 23  4  0
  4 27  1  0
  4 30  4  0
  5 17  1  0
  6  8  1  0
  6 29  1  0
  7 24  4  0
  7 26  4  0
  8 28  1  0
  9 13  2  0
 10 18  1  0
 10 21  4  0
 10 30  4  0
 11 17  2  0
 12 18  1  0
 13 15  1  0
 14 24  1  0
 15 25  1  0
 16 28  2  0
 17 20  1  0
 19 24  4  0
 20 23  1  0
 21 22  4  0
 22 23  4  0
 25 26  4  0
 27 29  2  0
M  END
$$$$

 Created by Python create_sdf_string function

 30 33  0  0  0  0  0  0  0  0999 V2000
    8.3036    9.8571   18.4133 C   0  0  0  0  0  0  0  0  0  0  0  0
    8.3694    7.6612   22.6703 C   0  0  0  0  0  0  0  0  0  0  0  0
    8.4143    6.6863   16.2273 C   0  0  0  0  0  0  0  0  0  0  0  0
   10.7581    6.5674   21.7636 C   0  0  0  0  0  0  0  0  0  0  0  0
    8.4452    8.7960   19.2958 O   0  0  0  0  0  0  0  0  0  0  0  0
    8.7122    6.7842   24.8569 C   0  0  0  0  0  0  0  0  0  0  0  0
   10.3400    6.1726   14.3081 C   0  0  0  0  0  0  0  0  0  0  0  0
    7.4297    7.5873   24.8962 C   0  0  0  0  0  0  0  0  0  0  0  0
    8.1566   10.0536   16.0516 O   0  0  0  0  0  0  0  0  0  0  0  0
   12.4989    6.2074   20.1776 C   0  0  0  0  0  0  0  0  0  0  0  0
    6.9192    9.1053   20.9073 O   0  0  0  0  0  0  0  0  0  0  0  0
   14.3979    6.0729   18.7784 C   0  0  0  0  0  0  0  0  0  0  0  0
    8.6811    9.5354   16.9998 C   0  0  0  0  0  0  0  0  0  0  0  0
    9.2512    4.2713   13.7653 O   0  0  0  0  0  0  0  0  0  0  0  0
    9.6495    8.6317   16.8332 N   0  0  0  0  0  0  0  0  0  0  0  0
    6.2934    8.6988   23.1988 O   0  0  0  0  0  0  0  0  0  0  0  0
    7.9806    8.6543   20.5437 C   0  0  0  0  0  0  0  0  0  0  0  0
   13.7270    5.7144   19.8610 O   0  0  0  0  0  0  0  0  0  0  0  0
    8.3351    5.5235   15.4478 C   0  0  0  0  0  0  0  0  0  0  0  0
    8.7700    7.8434   21.3915 C   0  0  0  0  0  0  0  0  0  0  0  0
   11.7856    6.8851   19.2401 C   0  0  0  0  0  0  0  0  0  0  0  0
   10.5281    7.4276   19.5649 C   0  0  0  0  0  0  0  0  0  0  0  0
   10.0256    7.2907   20.8484 C   0  0  0  0  0  0  0  0  0  0  0  0
    9.3113    5.3049   14.4911 C   0  0  0  0  0  0  0  0  0  0  0  0
    9.4607    7.5646   16.0139 C   0  0  0  0  0  0  0  0  0  0  0  0
   10.4192    7.3157   15.0955 C   0  0  0  0  0  0  0  0  0  0  0  0
   10.2489    6.4227   23.0218 N   0  0  0  0  0  0  0  0  0  0  0  0
    7.2472    8.0746   23.5050 C   0  0  0  0  0  0  0  0  0  0  0  0
    9.2051    6.9101   23.4604 C   0  0  0  0  0  0  0  0  0  0  0  0
   11.9646    6.0299   21.4251 C   0  0  0  0  0  0  0  0  0  0  0  0
  1  5  1  0
  1 13  1  0
  2 20  2  0
  2 28  1  0
  2 29  1  0
  3 19  4  0
  3 25  4  0
  4 23  4  0
  4 27  1  0
  4 30  4  0
  5 17  1  0
  6  8  1  0
  6 29  1  0
  7 24  4  0
  7 26  4  0
  8 28  1  0
  9 13  2  0
 10 18  1  0
 10 21  4  0
 10 30  4  0
 11 17  2  0
 12 18  1  0
 13 15  1  0
 14 24  1  0
 15 25  1  0
 16 28  2  0
 17 20  1  0
 19 24  4  0
 20 23  1  0
 21 22  4  0
 22 23  4  0
 25 26  4  0
 27 29  2  0
M  END
$$$$

 Created by Python create_sdf_string function

 30 33  0  0  0  0  0  0  0  0999 V2000
    8.3036    9.8571   18.4133 C   0  0  0  0  0  0  0  0  0  0  0  0
    8.3694    7.6612   22.6703 C   0  0  0  0  0  0  0  0  0  0  0  0
    8.4143    6.6863   16.2273 C   0  0  0  0  0  0  0  0  0  0  0  0
   10.7581    6.5674   21.7636 C   0  0  0  0  0  0  0  0  0  0  0  0
    8.4452    8.7960   19.2958 O   0  0  0  0  0  0  0  0  0  0  0  0
    8.7122    6.7842   24.8569 C   0  0  0  0  0  0  0  0  0  0  0  0
   10.3400    6.1726   14.3081 C   0  0  0  0  0  0  0  0  0  0  0  0
    7.4297    7.5873   24.8962 C   0  0  0  0  0  0  0  0  0  0  0  0
    8.1566   10.0536   16.0516 O   0  0  0  0  0  0  0  0  0  0  0  0
   12.4989    6.2074   20.1776 C   0  0  0  0  0  0  0  0  0  0  0  0
    6.9192    9.1053   20.9073 O   0  0  0  0  0  0  0  0  0  0  0  0
   14.3979    6.0729   18.7784 C   0  0  0  0  0  0  0  0  0  0  0  0
    8.6811    9.5354   16.9998 C   0  0  0  0  0  0  0  0  0  0  0  0
    9.2512    4.2713   13.7653 O   0  0  0  0  0  0  0  0  0  0  0  0
    9.6495    8.6317   16.8332 N   0  0  0  0  0  0  0  0  0  0  0  0
    6.2934    8.6988   23.1988 O   0  0  0  0  0  0  0  0  0  0  0  0
    7.9806    8.6543   20.5437 C   0  0  0  0  0  0  0  0  0  0  0  0
   13.7270    5.7144   19.8610 O   0  0  0  0  0  0  0  0  0  0  0  0
    8.3351    5.5235   15.4478 C   0  0  0  0  0  0  0  0  0  0  0  0
    8.7700    7.8434   21.3915 C   0  0  0  0  0  0  0  0  0  0  0  0
   11.7856    6.8851   19.2401 C   0  0  0  0  0  0  0  0  0  0  0  0
   10.5281    7.4276   19.5649 C   0  0  0  0  0  0  0  0  0  0  0  0
   10.0256    7.2907   20.8484 C   0  0  0  0  0  0  0  0  0  0  0  0
    9.3113    5.3049   14.4911 C   0  0  0  0  0  0  0  0  0  0  0  0
    9.4607    7.5646   16.0139 C   0  0  0  0  0  0  0  0  0  0  0  0
   10.4192    7.3157   15.0955 C   0  0  0  0  0  0  0  0  0  0  0  0
   10.2489    6.4227   23.0218 N   0  0  0  0  0  0  0  0  0  0  0  0
    7.2472    8.0746   23.5050 C   0  0  0  0  0  0  0  0  0  0  0  0
    9.2051    6.9101   23.4604 C   0  0  0  0  0  0  0  0  0  0  0  0
   11.9646    6.0299   21.4251 C   0  0  0  0  0  0  0  0  0  0  0  0
  1  5  1  0
  1 13  1  0
  2 20  2  0
  2 28  1  0
  2 29  1  0
  3 19  4  0
  3 25  4  0
  4 23  4  0
  4 27  1  0
  4 30  4  0
  5 17  1  0
  6  8  1  0
  6 29  1  0
  7 24  4  0
  7 26  4  0
  8 28  1  0
  9 13  2  0
 10 18  1  0
 10 21  4  0
 10 30  4  0
 11 17  2  0
 12 18  1  0
 13 15  1  0
 14 24  1  0
 15 25  1  0
 16 28  2  0
 17 20  1  0
 19 24  4  0
 20 23  1  0
 21 22  4  0
 22 23  4  0
 25 26  4  0
 27 29  2  0
M  END
$$$$

 Created by Python create_sdf_string function

 30 33  0  0  0  0  0  0  0  0999 V2000
    8.3036    9.8571   18.4133 C   0  0  0  0  0  0  0  0  0  0  0  0
    8.3694    7.6612   22.6703 C   0  0  0  0  0  0  0  0  0  0  0  0
    8.4143    6.6863   16.2273 C   0  0  0  0  0  0  0  0  0  0  0  0
   10.7581    6.5674   21.7636 C   0  0  0  0  0  0  0  0  0  0  0  0
    8.4452    8.7960   19.2958 O   0  0  0  0  0  0  0  0  0  0  0  0
    8.7122    6.7842   24.8569 C   0  0  0  0  0  0  0  0  0  0  0  0
   10.3400    6.1726   14.3081 C   0  0  0  0  0  0  0  0  0  0  0  0
    7.4297    7.5873   24.8962 C   0  0  0  0  0  0  0  0  0  0  0  0
    8.1566   10.0536   16.0516 O   0  0  0  0  0  0  0  0  0  0  0  0
   12.4989    6.2074   20.1776 C   0  0  0  0  0  0  0  0  0  0  0  0
    6.9192    9.1053   20.9073 O   0  0  0  0  0  0  0  0  0  0  0  0
   14.3979    6.0729   18.7784 C   0  0  0  0  0  0  0  0  0  0  0  0
    8.6811    9.5354   16.9998 C   0  0  0  0  0  0  0  0  0  0  0  0
    9.2512    4.2713   13.7653 O   0  0  0  0  0  0  0  0  0  0  0  0
    9.6495    8.6317   16.8332 N   0  0  0  0  0  0  0  0  0  0  0  0
    6.2934    8.6988   23.1988 O   0  0  0  0  0  0  0  0  0  0  0  0
    7.9806    8.6543   20.5437 C   0  0  0  0  0  0  0  0  0  0  0  0
   13.7270    5.7144   19.8610 O   0  0  0  0  0  0  0  0  0  0  0  0
    8.3351    5.5235   15.4478 C   0  0  0  0  0  0  0  0  0  0  0  0
    8.7700    7.8434   21.3915 C   0  0  0  0  0  0  0  0  0  0  0  0
   11.7856    6.8851   19.2401 C   0  0  0  0  0  0  0  0  0  0  0  0
   10.5281    7.4276   19.5649 C   0  0  0  0  0  0  0  0  0  0  0  0
   10.0256    7.2907   20.8484 C   0  0  0  0  0  0  0  0  0  0  0  0
    9.3113    5.3049   14.4911 C   0  0  0  0  0  0  0  0  0  0  0  0
    9.4607    7.5646   16.0139 C   0  0  0  0  0  0  0  0  0  0  0  0
   10.4192    7.3157   15.0955 C   0  0  0  0  0  0  0  0  0  0  0  0
   10.2489    6.4227   23.0218 N   0  0  0  0  0  0  0  0  0  0  0  0
    7.2472    8.0746   23.5050 C   0  0  0  0  0  0  0  0  0  0  0  0
    9.2051    6.9101   23.4604 C   0  0  0  0  0  0  0  0  0  0  0  0
   11.9646    6.0299   21.4251 C   0  0  0  0  0  0  0  0  0  0  0  0
  1  5  1  0
  1 13  1  0
  2 20  2  0
  2 28  1  0
  2 29  1  0
  3 19  4  0
  3 25  4  0
  4 23  4  0
  4 27  1  0
  4 30  4  0
  5 17  1  0
  6  8  1  0
  6 29  1  0
  7 24  4  0
  7 26  4  0
  8 28  1  0
  9 13  2  0
 10 18  1  0
 10 21  4  0
 10 30  4  0
 11 17  2  0
 12 18  1  0
 13 15  1  0
 14 24  1  0
 15 25  1  0
 16 28  2  0
 17 20  1  0
 19 24  4  0
 20 23  1  0
 21 22  4  0
 22 23  4  0
 25 26  4  0
 27 29  2  0
M  END
$$$$

 Created by Python create_sdf_string function

 30 33  0  0  0  0  0  0  0  0999 V2000
    8.3036    9.8571   18.4133 C   0  0  0  0  0  0  0  0  0  0  0  0
    8.3694    7.6612   22.6703 C   0  0  0  0  0  0  0  0  0  0  0  0
    8.4143    6.6863   16.2273 C   0  0  0  0  0  0  0  0  0  0  0  0
   10.7581    6.5674   21.7636 C   0  0  0  0  0  0  0  0  0  0  0  0
    8.4452    8.7960   19.2958 O   0  0  0  0  0  0  0  0  0  0  0  0
    8.7122    6.7842   24.8569 C   0  0  0  0  0  0  0  0  0  0  0  0
   10.3400    6.1726   14.3081 C   0  0  0  0  0  0  0  0  0  0  0  0
    7.4297    7.5873   24.8962 C   0  0  0  0  0  0  0  0  0  0  0  0
    8.1566   10.0536   16.0516 O   0  0  0  0  0  0  0  0  0  0  0  0
   12.4989    6.2074   20.1776 C   0  0  0  0  0  0  0  0  0  0  0  0
    6.9192    9.1053   20.9073 O   0  0  0  0  0  0  0  0  0  0  0  0
   14.3979    6.0729   18.7784 C   0  0  0  0  0  0  0  0  0  0  0  0
    8.6811    9.5354   16.9998 C   0  0  0  0  0  0  0  0  0  0  0  0
    9.2512    4.2713   13.7653 O   0  0  0  0  0  0  0  0  0  0  0  0
    9.6495    8.6317   16.8332 N   0  0  0  0  0  0  0  0  0  0  0  0
    6.2934    8.6988   23.1988 O   0  0  0  0  0  0  0  0  0  0  0  0
    7.9806    8.6543   20.5437 C   0  0  0  0  0  0  0  0  0  0  0  0
   13.7270    5.7144   19.8610 O   0  0  0  0  0  0  0  0  0  0  0  0
    8.3351    5.5235   15.4478 C   0  0  0  0  0  0  0  0  0  0  0  0
    8.7700    7.8434   21.3915 C   0  0  0  0  0  0  0  0  0  0  0  0
   11.7856    6.8851   19.2401 C   0  0  0  0  0  0  0  0  0  0  0  0
   10.5281    7.4276   19.5649 C   0  0  0  0  0  0  0  0  0  0  0  0
   10.0256    7.2907   20.8484 C   0  0  0  0  0  0  0  0  0  0  0  0
    9.3113    5.3049   14.4911 C   0  0  0  0  0  0  0  0  0  0  0  0
    9.4607    7.5646   16.0139 C   0  0  0  0  0  0  0  0  0  0  0  0
   10.4192    7.3157   15.0955 C   0  0  0  0  0  0  0  0  0  0  0  0
   10.2489    6.4227   23.0218 N   0  0  0  0  0  0  0  0  0  0  0  0
    7.2472    8.0746   23.5050 C   0  0  0  0  0  0  0  0  0  0  0  0
    9.2051    6.9101   23.4604 C   0  0  0  0  0  0  0  0  0  0  0  0
   11.9646    6.0299   21.4251 C   0  0  0  0  0  0  0  0  0  0  0  0
  1  5  1  0
  1 13  1  0
  2 20  2  0
  2 28  1  0
  2 29  1  0
  3 19  4  0
  3 25  4  0
  4 23  4  0
  4 27  1  0
  4 30  4  0
  5 17  1  0
  6  8  1  0
  6 29  1  0
  7 24  4  0
  7 26  4  0
  8 28  1  0
  9 13  2  0
 10 18  1  0
 10 21  4  0
 10 30  4  0
 11 17  2  0
 12 18  1  0
 13 15  1  0
 14 24  1  0
 15 25  1  0
 16 28  2  0
 17 20  1  0
 19 24  4  0
 20 23  1  0
 21 22  4  0
 22 23  4  0
 25 26  4  0
 27 29  2  0
M  END
$$$$

 Created by Python create_sdf_string function

 30 33  0  0  0  0  0  0  0  0999 V2000
    8.3036    9.8571   18.4133 C   0  0  0  0  0  0  0  0  0  0  0  0
    8.3694    7.6612   22.6703 C   0  0  0  0  0  0  0  0  0  0  0  0
    8.4143    6.6863   16.2273 C   0  0  0  0  0  0  0  0  0  0  0  0
   10.7581    6.5674   21.7636 C   0  0  0  0  0  0  0  0  0  0  0  0
    8.4452    8.7960   19.2958 O   0  0  0  0  0  0  0  0  0  0  0  0
    8.7122    6.7842   24.8569 C   0  0  0  0  0  0  0  0  0  0  0  0
   10.3400    6.1726   14.3081 C   0  0  0  0  0  0  0  0  0  0  0  0
    7.4297    7.5873   24.8962 C   0  0  0  0  0  0  0  0  0  0  0  0
    8.1566   10.0536   16.0516 O   0  0  0  0  0  0  0  0  0  0  0  0
   12.4989    6.2074   20.1776 C   0  0  0  0  0  0  0  0  0  0  0  0
    6.9192    9.1053   20.9073 O   0  0  0  0  0  0  0  0  0  0  0  0
   14.3979    6.0729   18.7784 C   0  0  0  0  0  0  0  0  0  0  0  0
    8.6811    9.5354   16.9998 C   0  0  0  0  0  0  0  0  0  0  0  0
    9.2512    4.2713   13.7653 O   0  0  0  0  0  0  0  0  0  0  0  0
    9.6495    8.6317   16.8332 N   0  0  0  0  0  0  0  0  0  0  0  0
    6.2934    8.6988   23.1988 O   0  0  0  0  0  0  0  0  0  0  0  0
    7.9806    8.6543   20.5437 C   0  0  0  0  0  0  0  0  0  0  0  0
   13.7270    5.7144   19.8610 O   0  0  0  0  0  0  0  0  0  0  0  0
    8.3351    5.5235   15.4478 C   0  0  0  0  0  0  0  0  0  0  0  0
    8.7700    7.8434   21.3915 C   0  0  0  0  0  0  0  0  0  0  0  0
   11.7856    6.8851   19.2401 C   0  0  0  0  0  0  0  0  0  0  0  0
   10.5281    7.4276   19.5649 C   0  0  0  0  0  0  0  0  0  0  0  0
   10.0256    7.2907   20.8484 C   0  0  0  0  0  0  0  0  0  0  0  0
    9.3113    5.3049   14.4911 C   0  0  0  0  0  0  0  0  0  0  0  0
    9.4607    7.5646   16.0139 C   0  0  0  0  0  0  0  0  0  0  0  0
   10.4192    7.3157   15.0955 C   0  0  0  0  0  0  0  0  0  0  0  0
   10.2489    6.4227   23.0218 N   0  0  0  0  0  0  0  0  0  0  0  0
    7.2472    8.0746   23.5050 C   0  0  0  0  0  0  0  0  0  0  0  0
    9.2051    6.9101   23.4604 C   0  0  0  0  0  0  0  0  0  0  0  0
   11.9646    6.0299   21.4251 C   0  0  0  0  0  0  0  0  0  0  0  0
  1  5  1  0
  1 13  1  0
  2 20  2  0
  2 28  1  0
  2 29  1  0
  3 19  4  0
  3 25  4  0
  4 23  4  0
  4 27  1  0
  4 30  4  0
  5 17  1  0
  6  8  1  0
  6 29  1  0
  7 24  4  0
  7 26  4  0
  8 28  1  0
  9 13  2  0
 10 18  1  0
 10 21  4  0
 10 30  4  0
 11 17  2  0
 12 18  1  0
 13 15  1  0
 14 24  1  0
 15 25  1  0
 16 28  2  0
 17 20  1  0
 19 24  4  0
 20 23  1  0
 21 22  4  0
 22 23  4  0
 25 26  4  0
 27 29  2  0
M  END
$$$$

 Created by Python create_sdf_string function

 30 33  0  0  0  0  0  0  0  0999 V2000
    8.3036    9.8571   18.4133 C   0  0  0  0  0  0  0  0  0  0  0  0
    8.3694    7.6612   22.6703 C   0  0  0  0  0  0  0  0  0  0  0  0
    8.4143    6.6863   16.2273 C   0  0  0  0  0  0  0  0  0  0  0  0
   10.7581    6.5674   21.7636 C   0  0  0  0  0  0  0  0  0  0  0  0
    8.4452    8.7960   19.2958 O   0  0  0  0  0  0  0  0  0  0  0  0
    8.7122    6.7842   24.8569 C   0  0  0  0  0  0  0  0  0  0  0  0
   10.3400    6.1726   14.3081 C   0  0  0  0  0  0  0  0  0  0  0  0
    7.4297    7.5873   24.8962 C   0  0  0  0  0  0  0  0  0  0  0  0
    8.1566   10.0536   16.0516 O   0  0  0  0  0  0  0  0  0  0  0  0
   12.4989    6.2074   20.1776 C   0  0  0  0  0  0  0  0  0  0  0  0
    6.9192    9.1053   20.9073 O   0  0  0  0  0  0  0  0  0  0  0  0
   14.3979    6.0729   18.7784 C   0  0  0  0  0  0  0  0  0  0  0  0
    8.6811    9.5354   16.9998 C   0  0  0  0  0  0  0  0  0  0  0  0
    9.2512    4.2713   13.7653 O   0  0  0  0  0  0  0  0  0  0  0  0
    9.6495    8.6317   16.8332 N   0  0  0  0  0  0  0  0  0  0  0  0
    6.2934    8.6988   23.1988 O   0  0  0  0  0  0  0  0  0  0  0  0
    7.9806    8.6543   20.5437 C   0  0  0  0  0  0  0  0  0  0  0  0
   13.7270    5.7144   19.8610 O   0  0  0  0  0  0  0  0  0  0  0  0
    8.3351    5.5235   15.4478 C   0  0  0  0  0  0  0  0  0  0  0  0
    8.7700    7.8434   21.3915 C   0  0  0  0  0  0  0  0  0  0  0  0
   11.7856    6.8851   19.2401 C   0  0  0  0  0  0  0  0  0  0  0  0
   10.5281    7.4276   19.5649 C   0  0  0  0  0  0  0  0  0  0  0  0
   10.0256    7.2907   20.8484 C   0  0  0  0  0  0  0  0  0  0  0  0
    9.3113    5.3049   14.4911 C   0  0  0  0  0  0  0  0  0  0  0  0
    9.4607    7.5646   16.0139 C   0  0  0  0  0  0  0  0  0  0  0  0
   10.4192    7.3157   15.0955 C   0  0  0  0  0  0  0  0  0  0  0  0
   10.2489    6.4227   23.0218 N   0  0  0  0  0  0  0  0  0  0  0  0
    7.2472    8.0746   23.5050 C   0  0  0  0  0  0  0  0  0  0  0  0
    9.2051    6.9101   23.4604 C   0  0  0  0  0  0  0  0  0  0  0  0
   11.9646    6.0299   21.4251 C   0  0  0  0  0  0  0  0  0  0  0  0
  1  5  1  0
  1 13  1  0
  2 20  2  0
  2 28  1  0
  2 29  1  0
  3 19  4  0
  3 25  4  0
  4 23  4  0
  4 27  1  0
  4 30  4  0
  5 17  1  0
  6  8  1  0
  6 29  1  0
  7 24  4  0
  7 26  4  0
  8 28  1  0
  9 13  2  0
 10 18  1  0
 10 21  4  0
 10 30  4  0
 11 17  2  0
 12 18  1  0
 13 15  1  0
 14 24  1  0
 15 25  1  0
 16 28  2  0
 17 20  1  0
 19 24  4  0
 20 23  1  0
 21 22  4  0
 22 23  4  0
 25 26  4  0
 27 29  2  0
M  END
$$$$

 Created by Python create_sdf_string function

 30 33  0  0  0  0  0  0  0  0999 V2000
    8.3036    9.8571   18.4133 C   0  0  0  0  0  0  0  0  0  0  0  0
    8.3694    7.6612   22.6703 C   0  0  0  0  0  0  0  0  0  0  0  0
    8.4143    6.6863   16.2273 C   0  0  0  0  0  0  0  0  0  0  0  0
   10.7581    6.5674   21.7636 C   0  0  0  0  0  0  0  0  0  0  0  0
    8.4452    8.7960   19.2958 O   0  0  0  0  0  0  0  0  0  0  0  0
    8.7122    6.7842   24.8569 C   0  0  0  0  0  0  0  0  0  0  0  0
   10.3400    6.1726   14.3081 C   0  0  0  0  0  0  0  0  0  0  0  0
    7.4297    7.5873   24.8962 C   0  0  0  0  0  0  0  0  0  0  0  0
    8.1566   10.0536   16.0516 O   0  0  0  0  0  0  0  0  0  0  0  0
   12.4989    6.2074   20.1776 C   0  0  0  0  0  0  0  0  0  0  0  0
    6.9192    9.1053   20.9073 O   0  0  0  0  0  0  0  0  0  0  0  0
   14.3979    6.0729   18.7784 C   0  0  0  0  0  0  0  0  0  0  0  0
    8.6811    9.5354   16.9998 C   0  0  0  0  0  0  0  0  0  0  0  0
    9.2512    4.2713   13.7653 O   0  0  0  0  0  0  0  0  0  0  0  0
    9.6495    8.6317   16.8332 N   0  0  0  0  0  0  0  0  0  0  0  0
    6.2934    8.6988   23.1988 O   0  0  0  0  0  0  0  0  0  0  0  0
    7.9806    8.6543   20.5437 C   0  0  0  0  0  0  0  0  0  0  0  0
   13.7270    5.7144   19.8610 O   0  0  0  0  0  0  0  0  0  0  0  0
    8.3351    5.5235   15.4478 C   0  0  0  0  0  0  0  0  0  0  0  0
    8.7700    7.8434   21.3915 C   0  0  0  0  0  0  0  0  0  0  0  0
   11.7856    6.8851   19.2401 C   0  0  0  0  0  0  0  0  0  0  0  0
   10.5281    7.4276   19.5649 C   0  0  0  0  0  0  0  0  0  0  0  0
   10.0256    7.2907   20.8484 C   0  0  0  0  0  0  0  0  0  0  0  0
    9.3113    5.3049   14.4911 C   0  0  0  0  0  0  0  0  0  0  0  0
    9.4607    7.5646   16.0139 C   0  0  0  0  0  0  0  0  0  0  0  0
   10.4192    7.3157   15.0955 C   0  0  0  0  0  0  0  0  0  0  0  0
   10.2489    6.4227   23.0218 N   0  0  0  0  0  0  0  0  0  0  0  0
    7.2472    8.0746   23.5050 C   0  0  0  0  0  0  0  0  0  0  0  0
    9.2051    6.9101   23.4604 C   0  0  0  0  0  0  0  0  0  0  0  0
   11.9646    6.0299   21.4251 C   0  0  0  0  0  0  0  0  0  0  0  0
  1  5  1  0
  1 13  1  0
  2 20  2  0
  2 28  1  0
  2 29  1  0
  3 19  4  0
  3 25  4  0
  4 23  4  0
  4 27  1  0
  4 30  4  0
  5 17  1  0
  6  8  1  0
  6 29  1  0
  7 24  4  0
  7 26  4  0
  8 28  1  0
  9 13  2  0
 10 18  1  0
 10 21  4  0
 10 30  4  0
 11 17  2  0
 12 18  1  0
 13 15  1  0
 14 24  1  0
 15 25  1  0
 16 28  2  0
 17 20  1  0
 19 24  4  0
 20 23  1  0
 21 22  4  0
 22 23  4  0
 25 26  4  0
 27 29  2  0
M  END
$$$$

 Created by Python create_sdf_string function

 30 33  0  0  0  0  0  0  0  0999 V2000
    8.3036    9.8571   18.4133 C   0  0  0  0  0  0  0  0  0  0  0  0
    8.3694    7.6612   22.6703 C   0  0  0  0  0  0  0  0  0  0  0  0
    8.4143    6.6863   16.2273 C   0  0  0  0  0  0  0  0  0  0  0  0
   10.7581    6.5674   21.7636 C   0  0  0  0  0  0  0  0  0  0  0  0
    8.4452    8.7960   19.2958 O   0  0  0  0  0  0  0  0  0  0  0  0
    8.7122    6.7842   24.8569 C   0  0  0  0  0  0  0  0  0  0  0  0
   10.3400    6.1726   14.3081 C   0  0  0  0  0  0  0  0  0  0  0  0
    7.4297    7.5873   24.8962 C   0  0  0  0  0  0  0  0  0  0  0  0
    8.1566   10.0536   16.0516 O   0  0  0  0  0  0  0  0  0  0  0  0
   12.4989    6.2074   20.1776 C   0  0  0  0  0  0  0  0  0  0  0  0
    6.9192    9.1053   20.9073 O   0  0  0  0  0  0  0  0  0  0  0  0
   14.3979    6.0729   18.7784 C   0  0  0  0  0  0  0  0  0  0  0  0
    8.6811    9.5354   16.9998 C   0  0  0  0  0  0  0  0  0  0  0  0
    9.2512    4.2713   13.7653 O   0  0  0  0  0  0  0  0  0  0  0  0
    9.6495    8.6317   16.8332 N   0  0  0  0  0  0  0  0  0  0  0  0
    6.2934    8.6988   23.1988 O   0  0  0  0  0  0  0  0  0  0  0  0
    7.9806    8.6543   20.5437 C   0  0  0  0  0  0  0  0  0  0  0  0
   13.7270    5.7144   19.8610 O   0  0  0  0  0  0  0  0  0  0  0  0
    8.3351    5.5235   15.4478 C   0  0  0  0  0  0  0  0  0  0  0  0
    8.7700    7.8434   21.3915 C   0  0  0  0  0  0  0  0  0  0  0  0
   11.7856    6.8851   19.2401 C   0  0  0  0  0  0  0  0  0  0  0  0
   10.5281    7.4276   19.5649 C   0  0  0  0  0  0  0  0  0  0  0  0
   10.0256    7.2907   20.8484 C   0  0  0  0  0  0  0  0  0  0  0  0
    9.3113    5.3049   14.4911 C   0  0  0  0  0  0  0  0  0  0  0  0
    9.4607    7.5646   16.0139 C   0  0  0  0  0  0  0  0  0  0  0  0
   10.4192    7.3157   15.0955 C   0  0  0  0  0  0  0  0  0  0  0  0
   10.2489    6.4227   23.0218 N   0  0  0  0  0  0  0  0  0  0  0  0
    7.2472    8.0746   23.5050 C   0  0  0  0  0  0  0  0  0  0  0  0
    9.2051    6.9101   23.4604 C   0  0  0  0  0  0  0  0  0  0  0  0
   11.9646    6.0299   21.4251 C   0  0  0  0  0  0  0  0  0  0  0  0
  1  5  1  0
  1 13  1  0
  2 20  2  0
  2 28  1  0
  2 29  1  0
  3 19  4  0
  3 25  4  0
  4 23  4  0
  4 27  1  0
  4 30  4  0
  5 17  1  0
  6  8  1  0
  6 29  1  0
  7 24  4  0
  7 26  4  0
  8 28  1  0
  9 13  2  0
 10 18  1  0
 10 21  4  0
 10 30  4  0
 11 17  2  0
 12 18  1  0
 13 15  1  0
 14 24  1  0
 15 25  1  0
 16 28  2  0
 17 20  1  0
 19 24  4  0
 20 23  1  0
 21 22  4  0
 22 23  4  0
 25 26  4  0
 27 29  2  0
M  END
$$$$

 Created by Python create_sdf_string function

 30 33  0  0  0  0  0  0  0  0999 V2000
    8.3036    9.8571   18.4133 C   0  0  0  0  0  0  0  0  0  0  0  0
    8.3694    7.6612   22.6703 C   0  0  0  0  0  0  0  0  0  0  0  0
    8.4143    6.6863   16.2273 C   0  0  0  0  0  0  0  0  0  0  0  0
   10.7581    6.5674   21.7636 C   0  0  0  0  0  0  0  0  0  0  0  0
    8.4452    8.7960   19.2958 O   0  0  0  0  0  0  0  0  0  0  0  0
    8.7122    6.7842   24.8569 C   0  0  0  0  0  0  0  0  0  0  0  0
   10.3400    6.1726   14.3081 C   0  0  0  0  0  0  0  0  0  0  0  0
    7.4297    7.5873   24.8962 C   0  0  0  0  0  0  0  0  0  0  0  0
    8.1566   10.0536   16.0516 O   0  0  0  0  0  0  0  0  0  0  0  0
   12.4989    6.2074   20.1776 C   0  0  0  0  0  0  0  0  0  0  0  0
    6.9192    9.1053   20.9073 O   0  0  0  0  0  0  0  0  0  0  0  0
   14.3979    6.0729   18.7784 C   0  0  0  0  0  0  0  0  0  0  0  0
    8.6811    9.5354   16.9998 C   0  0  0  0  0  0  0  0  0  0  0  0
    9.2512    4.2713   13.7653 O   0  0  0  0  0  0  0  0  0  0  0  0
    9.6495    8.6317   16.8332 N   0  0  0  0  0  0  0  0  0  0  0  0
    6.2934    8.6988   23.1988 O   0  0  0  0  0  0  0  0  0  0  0  0
    7.9806    8.6543   20.5437 C   0  0  0  0  0  0  0  0  0  0  0  0
   13.7270    5.7144   19.8610 O   0  0  0  0  0  0  0  0  0  0  0  0
    8.3351    5.5235   15.4478 C   0  0  0  0  0  0  0  0  0  0  0  0
    8.7700    7.8434   21.3915 C   0  0  0  0  0  0  0  0  0  0  0  0
   11.7856    6.8851   19.2401 C   0  0  0  0  0  0  0  0  0  0  0  0
   10.5281    7.4276   19.5649 C   0  0  0  0  0  0  0  0  0  0  0  0
   10.0256    7.2907   20.8484 C   0  0  0  0  0  0  0  0  0  0  0  0
    9.3113    5.3049   14.4911 C   0  0  0  0  0  0  0  0  0  0  0  0
    9.4607    7.5646   16.0139 C   0  0  0  0  0  0  0  0  0  0  0  0
   10.4192    7.3157   15.0955 C   0  0  0  0  0  0  0  0  0  0  0  0
   10.2489    6.4227   23.0218 N   0  0  0  0  0  0  0  0  0  0  0  0
    7.2472    8.0746   23.5050 C   0  0  0  0  0  0  0  0  0  0  0  0
    9.2051    6.9101   23.4604 C   0  0  0  0  0  0  0  0  0  0  0  0
   11.9646    6.0299   21.4251 C   0  0  0  0  0  0  0  0  0  0  0  0
  1  5  1  0
  1 13  1  0
  2 20  2  0
  2 28  1  0
  2 29  1  0
  3 19  4  0
  3 25  4  0
  4 23  4  0
  4 27  1  0
  4 30  4  0
  5 17  1  0
  6  8  1  0
  6 29  1  0
  7 24  4  0
  7 26  4  0
  8 28  1  0
  9 13  2  0
 10 18  1  0
 10 21  4  0
 10 30  4  0
 11 17  2  0
 12 18  1  0
 13 15  1  0
 14 24  1  0
 15 25  1  0
 16 28  2  0
 17 20  1  0
 19 24  4  0
 20 23  1  0
 21 22  4  0
 22 23  4  0
 25 26  4  0
 27 29  2  0
M  END
$$$$

 Created by Python create_sdf_string function

 30 33  0  0  0  0  0  0  0  0999 V2000
    8.3036    9.8571   18.4133 C   0  0  0  0  0  0  0  0  0  0  0  0
    8.3694    7.6612   22.6703 C   0  0  0  0  0  0  0  0  0  0  0  0
    8.4143    6.6863   16.2273 C   0  0  0  0  0  0  0  0  0  0  0  0
   10.7581    6.5674   21.7636 C   0  0  0  0  0  0  0  0  0  0  0  0
    8.4452    8.7960   19.2958 O   0  0  0  0  0  0  0  0  0  0  0  0
    8.7122    6.7842   24.8569 C   0  0  0  0  0  0  0  0  0  0  0  0
   10.3400    6.1726   14.3081 C   0  0  0  0  0  0  0  0  0  0  0  0
    7.4297    7.5873   24.8962 C   0  0  0  0  0  0  0  0  0  0  0  0
    8.1566   10.0536   16.0516 O   0  0  0  0  0  0  0  0  0  0  0  0
   12.4989    6.2074   20.1776 C   0  0  0  0  0  0  0  0  0  0  0  0
    6.9192    9.1053   20.9073 O   0  0  0  0  0  0  0  0  0  0  0  0
   14.3979    6.0729   18.7784 C   0  0  0  0  0  0  0  0  0  0  0  0
    8.6811    9.5354   16.9998 C   0  0  0  0  0  0  0  0  0  0  0  0
    9.2512    4.2713   13.7653 O   0  0  0  0  0  0  0  0  0  0  0  0
    9.6495    8.6317   16.8332 N   0  0  0  0  0  0  0  0  0  0  0  0
    6.2934    8.6988   23.1988 O   0  0  0  0  0  0  0  0  0  0  0  0
    7.9806    8.6543   20.5437 C   0  0  0  0  0  0  0  0  0  0  0  0
   13.7270    5.7144   19.8610 O   0  0  0  0  0  0  0  0  0  0  0  0
    8.3351    5.5235   15.4478 C   0  0  0  0  0  0  0  0  0  0  0  0
    8.7700    7.8434   21.3915 C   0  0  0  0  0  0  0  0  0  0  0  0
   11.7856    6.8851   19.2401 C   0  0  0  0  0  0  0  0  0  0  0  0
   10.5281    7.4276   19.5649 C   0  0  0  0  0  0  0  0  0  0  0  0
   10.0256    7.2907   20.8484 C   0  0  0  0  0  0  0  0  0  0  0  0
    9.3113    5.3049   14.4911 C   0  0  0  0  0  0  0  0  0  0  0  0
    9.4607    7.5646   16.0139 C   0  0  0  0  0  0  0  0  0  0  0  0
   10.4192    7.3157   15.0955 C   0  0  0  0  0  0  0  0  0  0  0  0
   10.2489    6.4227   23.0218 N   0  0  0  0  0  0  0  0  0  0  0  0
    7.2472    8.0746   23.5050 C   0  0  0  0  0  0  0  0  0  0  0  0
    9.2051    6.9101   23.4604 C   0  0  0  0  0  0  0  0  0  0  0  0
   11.9646    6.0299   21.4251 C   0  0  0  0  0  0  0  0  0  0  0  0
  1  5  1  0
  1 13  1  0
  2 20  2  0
  2 28  1  0
  2 29  1  0
  3 19  4  0
  3 25  4  0
  4 23  4  0
  4 27  1  0
  4 30  4  0
  5 17  1  0
  6  8  1  0
  6 29  1  0
  7 24  4  0
  7 26  4  0
  8 28  1  0
  9 13  2  0
 10 18  1  0
 10 21  4  0
 10 30  4  0
 11 17  2  0
 12 18  1  0
 13 15  1  0
 14 24  1  0
 15 25  1  0
 16 28  2  0
 17 20  1  0
 19 24  4  0
 20 23  1  0
 21 22  4  0
 22 23  4  0
 25 26  4  0
 27 29  2  0
M  END
$$$$

 Created by Python create_sdf_string function

 30 33  0  0  0  0  0  0  0  0999 V2000
    8.3036    9.8571   18.4133 C   0  0  0  0  0  0  0  0  0  0  0  0
    8.3694    7.6612   22.6703 C   0  0  0  0  0  0  0  0  0  0  0  0
    8.4143    6.6863   16.2273 C   0  0  0  0  0  0  0  0  0  0  0  0
   10.7581    6.5674   21.7636 C   0  0  0  0  0  0  0  0  0  0  0  0
    8.4452    8.7960   19.2958 O   0  0  0  0  0  0  0  0  0  0  0  0
    8.7122    6.7842   24.8569 C   0  0  0  0  0  0  0  0  0  0  0  0
   10.3400    6.1726   14.3081 C   0  0  0  0  0  0  0  0  0  0  0  0
    7.4297    7.5873   24.8962 C   0  0  0  0  0  0  0  0  0  0  0  0
    8.1566   10.0536   16.0516 O   0  0  0  0  0  0  0  0  0  0  0  0
   12.4989    6.2074   20.1776 C   0  0  0  0  0  0  0  0  0  0  0  0
    6.9192    9.1053   20.9073 O   0  0  0  0  0  0  0  0  0  0  0  0
   14.3979    6.0729   18.7784 C   0  0  0  0  0  0  0  0  0  0  0  0
    8.6811    9.5354   16.9998 C   0  0  0  0  0  0  0  0  0  0  0  0
    9.2512    4.2713   13.7653 O   0  0  0  0  0  0  0  0  0  0  0  0
    9.6495    8.6317   16.8332 N   0  0  0  0  0  0  0  0  0  0  0  0
    6.2934    8.6988   23.1988 O   0  0  0  0  0  0  0  0  0  0  0  0
    7.9806    8.6543   20.5437 C   0  0  0  0  0  0  0  0  0  0  0  0
   13.7270    5.7144   19.8610 O   0  0  0  0  0  0  0  0  0  0  0  0
    8.3351    5.5235   15.4478 C   0  0  0  0  0  0  0  0  0  0  0  0
    8.7700    7.8434   21.3915 C   0  0  0  0  0  0  0  0  0  0  0  0
   11.7856    6.8851   19.2401 C   0  0  0  0  0  0  0  0  0  0  0  0
   10.5281    7.4276   19.5649 C   0  0  0  0  0  0  0  0  0  0  0  0
   10.0256    7.2907   20.8484 C   0  0  0  0  0  0  0  0  0  0  0  0
    9.3113    5.3049   14.4911 C   0  0  0  0  0  0  0  0  0  0  0  0
    9.4607    7.5646   16.0139 C   0  0  0  0  0  0  0  0  0  0  0  0
   10.4192    7.3157   15.0955 C   0  0  0  0  0  0  0  0  0  0  0  0
   10.2489    6.4227   23.0218 N   0  0  0  0  0  0  0  0  0  0  0  0
    7.2472    8.0746   23.5050 C   0  0  0  0  0  0  0  0  0  0  0  0
    9.2051    6.9101   23.4604 C   0  0  0  0  0  0  0  0  0  0  0  0
   11.9646    6.0299   21.4251 C   0  0  0  0  0  0  0  0  0  0  0  0
  1  5  1  0
  1 13  1  0
  2 20  2  0
  2 28  1  0
  2 29  1  0
  3 19  4  0
  3 25  4  0
  4 23  4  0
  4 27  1  0
  4 30  4  0
  5 17  1  0
  6  8  1  0
  6 29  1  0
  7 24  4  0
  7 26  4  0
  8 28  1  0
  9 13  2  0
 10 18  1  0
 10 21  4  0
 10 30  4  0
 11 17  2  0
 12 18  1  0
 13 15  1  0
 14 24  1  0
 15 25  1  0
 16 28  2  0
 17 20  1  0
 19 24  4  0
 20 23  1  0
 21 22  4  0
 22 23  4  0
 25 26  4  0
 27 29  2  0
M  END
$$$$

 Created by Python create_sdf_string function

 30 33  0  0  0  0  0  0  0  0999 V2000
    8.3036    9.8571   18.4133 C   0  0  0  0  0  0  0  0  0  0  0  0
    8.3694    7.6612   22.6703 C   0  0  0  0  0  0  0  0  0  0  0  0
    8.4143    6.6863   16.2273 C   0  0  0  0  0  0  0  0  0  0  0  0
   10.7581    6.5674   21.7636 C   0  0  0  0  0  0  0  0  0  0  0  0
    8.4452    8.7960   19.2958 O   0  0  0  0  0  0  0  0  0  0  0  0
    8.7122    6.7842   24.8569 C   0  0  0  0  0  0  0  0  0  0  0  0
   10.3400    6.1726   14.3081 C   0  0  0  0  0  0  0  0  0  0  0  0
    7.4297    7.5873   24.8962 C   0  0  0  0  0  0  0  0  0  0  0  0
    8.1566   10.0536   16.0516 O   0  0  0  0  0  0  0  0  0  0  0  0
   12.4989    6.2074   20.1776 C   0  0  0  0  0  0  0  0  0  0  0  0
    6.9192    9.1053   20.9073 O   0  0  0  0  0  0  0  0  0  0  0  0
   14.3979    6.0729   18.7784 C   0  0  0  0  0  0  0  0  0  0  0  0
    8.6811    9.5354   16.9998 C   0  0  0  0  0  0  0  0  0  0  0  0
    9.2512    4.2713   13.7653 O   0  0  0  0  0  0  0  0  0  0  0  0
    9.6495    8.6317   16.8332 N   0  0  0  0  0  0  0  0  0  0  0  0
    6.2934    8.6988   23.1988 O   0  0  0  0  0  0  0  0  0  0  0  0
    7.9806    8.6543   20.5437 C   0  0  0  0  0  0  0  0  0  0  0  0
   13.7270    5.7144   19.8610 O   0  0  0  0  0  0  0  0  0  0  0  0
    8.3351    5.5235   15.4478 C   0  0  0  0  0  0  0  0  0  0  0  0
    8.7700    7.8434   21.3915 C   0  0  0  0  0  0  0  0  0  0  0  0
   11.7856    6.8851   19.2401 C   0  0  0  0  0  0  0  0  0  0  0  0
   10.5281    7.4276   19.5649 C   0  0  0  0  0  0  0  0  0  0  0  0
   10.0256    7.2907   20.8484 C   0  0  0  0  0  0  0  0  0  0  0  0
    9.3113    5.3049   14.4911 C   0  0  0  0  0  0  0  0  0  0  0  0
    9.4607    7.5646   16.0139 C   0  0  0  0  0  0  0  0  0  0  0  0
   10.4192    7.3157   15.0955 C   0  0  0  0  0  0  0  0  0  0  0  0
   10.2489    6.4227   23.0218 N   0  0  0  0  0  0  0  0  0  0  0  0
    7.2472    8.0746   23.5050 C   0  0  0  0  0  0  0  0  0  0  0  0
    9.2051    6.9101   23.4604 C   0  0  0  0  0  0  0  0  0  0  0  0
   11.9646    6.0299   21.4251 C   0  0  0  0  0  0  0  0  0  0  0  0
  1  5  1  0
  1 13  1  0
  2 20  2  0
  2 28  1  0
  2 29  1  0
  3 19  4  0
  3 25  4  0
  4 23  4  0
  4 27  1  0
  4 30  4  0
  5 17  1  0
  6  8  1  0
  6 29  1  0
  7 24  4  0
  7 26  4  0
  8 28  1  0
  9 13  2  0
 10 18  1  0
 10 21  4  0
 10 30  4  0
 11 17  2  0
 12 18  1  0
 13 15  1  0
 14 24  1  0
 15 25  1  0
 16 28  2  0
 17 20  1  0
 19 24  4  0
 20 23  1  0
 21 22  4  0
 22 23  4  0
 25 26  4  0
 27 29  2  0
M  END
$$$$

 Created by Python create_sdf_string function

 30 33  0  0  0  0  0  0  0  0999 V2000
    8.3036    9.8571   18.4133 C   0  0  0  0  0  0  0  0  0  0  0  0
    8.3694    7.6612   22.6703 C   0  0  0  0  0  0  0  0  0  0  0  0
    8.4143    6.6863   16.2273 C   0  0  0  0  0  0  0  0  0  0  0  0
   10.7581    6.5674   21.7636 C   0  0  0  0  0  0  0  0  0  0  0  0
    8.4452    8.7960   19.2958 O   0  0  0  0  0  0  0  0  0  0  0  0
    8.7122    6.7842   24.8569 C   0  0  0  0  0  0  0  0  0  0  0  0
   10.3400    6.1726   14.3081 C   0  0  0  0  0  0  0  0  0  0  0  0
    7.4297    7.5873   24.8962 C   0  0  0  0  0  0  0  0  0  0  0  0
    8.1566   10.0536   16.0516 O   0  0  0  0  0  0  0  0  0  0  0  0
   12.4989    6.2074   20.1776 C   0  0  0  0  0  0  0  0  0  0  0  0
    6.9192    9.1053   20.9073 O   0  0  0  0  0  0  0  0  0  0  0  0
   14.3979    6.0729   18.7784 C   0  0  0  0  0  0  0  0  0  0  0  0
    8.6811    9.5354   16.9998 C   0  0  0  0  0  0  0  0  0  0  0  0
    9.2512    4.2713   13.7653 O   0  0  0  0  0  0  0  0  0  0  0  0
    9.6495    8.6317   16.8332 N   0  0  0  0  0  0  0  0  0  0  0  0
    6.2934    8.6988   23.1988 O   0  0  0  0  0  0  0  0  0  0  0  0
    7.9806    8.6543   20.5437 C   0  0  0  0  0  0  0  0  0  0  0  0
   13.7270    5.7144   19.8610 O   0  0  0  0  0  0  0  0  0  0  0  0
    8.3351    5.5235   15.4478 C   0  0  0  0  0  0  0  0  0  0  0  0
    8.7700    7.8434   21.3915 C   0  0  0  0  0  0  0  0  0  0  0  0
   11.7856    6.8851   19.2401 C   0  0  0  0  0  0  0  0  0  0  0  0
   10.5281    7.4276   19.5649 C   0  0  0  0  0  0  0  0  0  0  0  0
   10.0256    7.2907   20.8484 C   0  0  0  0  0  0  0  0  0  0  0  0
    9.3113    5.3049   14.4911 C   0  0  0  0  0  0  0  0  0  0  0  0
    9.4607    7.5646   16.0139 C   0  0  0  0  0  0  0  0  0  0  0  0
   10.4192    7.3157   15.0955 C   0  0  0  0  0  0  0  0  0  0  0  0
   10.2489    6.4227   23.0218 N   0  0  0  0  0  0  0  0  0  0  0  0
    7.2472    8.0746   23.5050 C   0  0  0  0  0  0  0  0  0  0  0  0
    9.2051    6.9101   23.4604 C   0  0  0  0  0  0  0  0  0  0  0  0
   11.9646    6.0299   21.4251 C   0  0  0  0  0  0  0  0  0  0  0  0
  1  5  1  0
  1 13  1  0
  2 20  2  0
  2 28  1  0
  2 29  1  0
  3 19  4  0
  3 25  4  0
  4 23  4  0
  4 27  1  0
  4 30  4  0
  5 17  1  0
  6  8  1  0
  6 29  1  0
  7 24  4  0
  7 26  4  0
  8 28  1  0
  9 13  2  0
 10 18  1  0
 10 21  4  0
 10 30  4  0
 11 17  2  0
 12 18  1  0
 13 15  1  0
 14 24  1  0
 15 25  1  0
 16 28  2  0
 17 20  1  0
 19 24  4  0
 20 23  1  0
 21 22  4  0
 22 23  4  0
 25 26  4  0
 27 29  2  0
M  END
$$$$

 Created by Python create_sdf_string function

 30 33  0  0  0  0  0  0  0  0999 V2000
    8.3036    9.8571   18.4133 C   0  0  0  0  0  0  0  0  0  0  0  0
    8.3694    7.6612   22.6703 C   0  0  0  0  0  0  0  0  0  0  0  0
    8.4143    6.6863   16.2273 C   0  0  0  0  0  0  0  0  0  0  0  0
   10.7581    6.5674   21.7636 C   0  0  0  0  0  0  0  0  0  0  0  0
    8.4452    8.7960   19.2958 O   0  0  0  0  0  0  0  0  0  0  0  0
    8.7122    6.7842   24.8569 C   0  0  0  0  0  0  0  0  0  0  0  0
   10.3400    6.1726   14.3081 C   0  0  0  0  0  0  0  0  0  0  0  0
    7.4297    7.5873   24.8962 C   0  0  0  0  0  0  0  0  0  0  0  0
    8.1566   10.0536   16.0516 O   0  0  0  0  0  0  0  0  0  0  0  0
   12.4989    6.2074   20.1776 C   0  0  0  0  0  0  0  0  0  0  0  0
    6.9192    9.1053   20.9073 O   0  0  0  0  0  0  0  0  0  0  0  0
   14.3979    6.0729   18.7784 C   0  0  0  0  0  0  0  0  0  0  0  0
    8.6811    9.5354   16.9998 C   0  0  0  0  0  0  0  0  0  0  0  0
    9.2512    4.2713   13.7653 O   0  0  0  0  0  0  0  0  0  0  0  0
    9.6495    8.6317   16.8332 N   0  0  0  0  0  0  0  0  0  0  0  0
    6.2934    8.6988   23.1988 O   0  0  0  0  0  0  0  0  0  0  0  0
    7.9806    8.6543   20.5437 C   0  0  0  0  0  0  0  0  0  0  0  0
   13.7270    5.7144   19.8610 O   0  0  0  0  0  0  0  0  0  0  0  0
    8.3351    5.5235   15.4478 C   0  0  0  0  0  0  0  0  0  0  0  0
    8.7700    7.8434   21.3915 C   0  0  0  0  0  0  0  0  0  0  0  0
   11.7856    6.8851   19.2401 C   0  0  0  0  0  0  0  0  0  0  0  0
   10.5281    7.4276   19.5649 C   0  0  0  0  0  0  0  0  0  0  0  0
   10.0256    7.2907   20.8484 C   0  0  0  0  0  0  0  0  0  0  0  0
    9.3113    5.3049   14.4911 C   0  0  0  0  0  0  0  0  0  0  0  0
    9.4607    7.5646   16.0139 C   0  0  0  0  0  0  0  0  0  0  0  0
   10.4192    7.3157   15.0955 C   0  0  0  0  0  0  0  0  0  0  0  0
   10.2489    6.4227   23.0218 N   0  0  0  0  0  0  0  0  0  0  0  0
    7.2472    8.0746   23.5050 C   0  0  0  0  0  0  0  0  0  0  0  0
    9.2051    6.9101   23.4604 C   0  0  0  0  0  0  0  0  0  0  0  0
   11.9646    6.0299   21.4251 C   0  0  0  0  0  0  0  0  0  0  0  0
  1  5  1  0
  1 13  1  0
  2 20  2  0
  2 28  1  0
  2 29  1  0
  3 19  4  0
  3 25  4  0
  4 23  4  0
  4 27  1  0
  4 30  4  0
  5 17  1  0
  6  8  1  0
  6 29  1  0
  7 24  4  0
  7 26  4  0
  8 28  1  0
  9 13  2  0
 10 18  1  0
 10 21  4  0
 10 30  4  0
 11 17  2  0
 12 18  1  0
 13 15  1  0
 14 24  1  0
 15 25  1  0
 16 28  2  0
 17 20  1  0
 19 24  4  0
 20 23  1  0
 21 22  4  0
 22 23  4  0
 25 26  4  0
 27 29  2  0
M  END
$$$$

 Created by Python create_sdf_string function

 30 33  0  0  0  0  0  0  0  0999 V2000
    8.3036    9.8571   18.4133 C   0  0  0  0  0  0  0  0  0  0  0  0
    8.3694    7.6612   22.6703 C   0  0  0  0  0  0  0  0  0  0  0  0
    8.4143    6.6863   16.2273 C   0  0  0  0  0  0  0  0  0  0  0  0
   10.7581    6.5674   21.7636 C   0  0  0  0  0  0  0  0  0  0  0  0
    8.4452    8.7960   19.2958 O   0  0  0  0  0  0  0  0  0  0  0  0
    8.7122    6.7842   24.8569 C   0  0  0  0  0  0  0  0  0  0  0  0
   10.3400    6.1726   14.3081 C   0  0  0  0  0  0  0  0  0  0  0  0
    7.4297    7.5873   24.8962 C   0  0  0  0  0  0  0  0  0  0  0  0
    8.1566   10.0536   16.0516 O   0  0  0  0  0  0  0  0  0  0  0  0
   12.4989    6.2074   20.1776 C   0  0  0  0  0  0  0  0  0  0  0  0
    6.9192    9.1053   20.9073 O   0  0  0  0  0  0  0  0  0  0  0  0
   14.3979    6.0729   18.7784 C   0  0  0  0  0  0  0  0  0  0  0  0
    8.6811    9.5354   16.9998 C   0  0  0  0  0  0  0  0  0  0  0  0
    9.2512    4.2713   13.7653 O   0  0  0  0  0  0  0  0  0  0  0  0
    9.6495    8.6317   16.8332 N   0  0  0  0  0  0  0  0  0  0  0  0
    6.2934    8.6988   23.1988 O   0  0  0  0  0  0  0  0  0  0  0  0
    7.9806    8.6543   20.5437 C   0  0  0  0  0  0  0  0  0  0  0  0
   13.7270    5.7144   19.8610 O   0  0  0  0  0  0  0  0  0  0  0  0
    8.3351    5.5235   15.4478 C   0  0  0  0  0  0  0  0  0  0  0  0
    8.7700    7.8434   21.3915 C   0  0  0  0  0  0  0  0  0  0  0  0
   11.7856    6.8851   19.2401 C   0  0  0  0  0  0  0  0  0  0  0  0
   10.5281    7.4276   19.5649 C   0  0  0  0  0  0  0  0  0  0  0  0
   10.0256    7.2907   20.8484 C   0  0  0  0  0  0  0  0  0  0  0  0
    9.3113    5.3049   14.4911 C   0  0  0  0  0  0  0  0  0  0  0  0
    9.4607    7.5646   16.0139 C   0  0  0  0  0  0  0  0  0  0  0  0
   10.4192    7.3157   15.0955 C   0  0  0  0  0  0  0  0  0  0  0  0
   10.2489    6.4227   23.0218 N   0  0  0  0  0  0  0  0  0  0  0  0
    7.2472    8.0746   23.5050 C   0  0  0  0  0  0  0  0  0  0  0  0
    9.2051    6.9101   23.4604 C   0  0  0  0  0  0  0  0  0  0  0  0
   11.9646    6.0299   21.4251 C   0  0  0  0  0  0  0  0  0  0  0  0
  1  5  1  0
  1 13  1  0
  2 20  2  0
  2 28  1  0
  2 29  1  0
  3 19  4  0
  3 25  4  0
  4 23  4  0
  4 27  1  0
  4 30  4  0
  5 17  1  0
  6  8  1  0
  6 29  1  0
  7 24  4  0
  7 26  4  0
  8 28  1  0
  9 13  2  0
 10 18  1  0
 10 21  4  0
 10 30  4  0
 11 17  2  0
 12 18  1  0
 13 15  1  0
 14 24  1  0
 15 25  1  0
 16 28  2  0
 17 20  1  0
 19 24  4  0
 20 23  1  0
 21 22  4  0
 22 23  4  0
 25 26  4  0
 27 29  2  0
M  END
$$$$

 Created by Python create_sdf_string function

 30 33  0  0  0  0  0  0  0  0999 V2000
    8.3036    9.8571   18.4133 C   0  0  0  0  0  0  0  0  0  0  0  0
    8.3694    7.6612   22.6703 C   0  0  0  0  0  0  0  0  0  0  0  0
    8.4143    6.6863   16.2273 C   0  0  0  0  0  0  0  0  0  0  0  0
   10.7581    6.5674   21.7636 C   0  0  0  0  0  0  0  0  0  0  0  0
    8.4452    8.7960   19.2958 O   0  0  0  0  0  0  0  0  0  0  0  0
    8.7122    6.7842   24.8569 C   0  0  0  0  0  0  0  0  0  0  0  0
   10.3400    6.1726   14.3081 C   0  0  0  0  0  0  0  0  0  0  0  0
    7.4297    7.5873   24.8962 C   0  0  0  0  0  0  0  0  0  0  0  0
    8.1566   10.0536   16.0516 O   0  0  0  0  0  0  0  0  0  0  0  0
   12.4989    6.2074   20.1776 C   0  0  0  0  0  0  0  0  0  0  0  0
    6.9192    9.1053   20.9073 O   0  0  0  0  0  0  0  0  0  0  0  0
   14.3979    6.0729   18.7784 C   0  0  0  0  0  0  0  0  0  0  0  0
    8.6811    9.5354   16.9998 C   0  0  0  0  0  0  0  0  0  0  0  0
    9.2512    4.2713   13.7653 O   0  0  0  0  0  0  0  0  0  0  0  0
    9.6495    8.6317   16.8332 N   0  0  0  0  0  0  0  0  0  0  0  0
    6.2934    8.6988   23.1988 O   0  0  0  0  0  0  0  0  0  0  0  0
    7.9806    8.6543   20.5437 C   0  0  0  0  0  0  0  0  0  0  0  0
   13.7270    5.7144   19.8610 O   0  0  0  0  0  0  0  0  0  0  0  0
    8.3351    5.5235   15.4478 C   0  0  0  0  0  0  0  0  0  0  0  0
    8.7700    7.8434   21.3915 C   0  0  0  0  0  0  0  0  0  0  0  0
   11.7856    6.8851   19.2401 C   0  0  0  0  0  0  0  0  0  0  0  0
   10.5281    7.4276   19.5649 C   0  0  0  0  0  0  0  0  0  0  0  0
   10.0256    7.2907   20.8484 C   0  0  0  0  0  0  0  0  0  0  0  0
    9.3113    5.3049   14.4911 C   0  0  0  0  0  0  0  0  0  0  0  0
    9.4607    7.5646   16.0139 C   0  0  0  0  0  0  0  0  0  0  0  0
   10.4192    7.3157   15.0955 C   0  0  0  0  0  0  0  0  0  0  0  0
   10.2489    6.4227   23.0218 N   0  0  0  0  0  0  0  0  0  0  0  0
    7.2472    8.0746   23.5050 C   0  0  0  0  0  0  0  0  0  0  0  0
    9.2051    6.9101   23.4604 C   0  0  0  0  0  0  0  0  0  0  0  0
   11.9646    6.0299   21.4251 C   0  0  0  0  0  0  0  0  0  0  0  0
  1  5  1  0
  1 13  1  0
  2 20  2  0
  2 28  1  0
  2 29  1  0
  3 19  4  0
  3 25  4  0
  4 23  4  0
  4 27  1  0
  4 30  4  0
  5 17  1  0
  6  8  1  0
  6 29  1  0
  7 24  4  0
  7 26  4  0
  8 28  1  0
  9 13  2  0
 10 18  1  0
 10 21  4  0
 10 30  4  0
 11 17  2  0
 12 18  1  0
 13 15  1  0
 14 24  1  0
 15 25  1  0
 16 28  2  0
 17 20  1  0
 19 24  4  0
 20 23  1  0
 21 22  4  0
 22 23  4  0
 25 26  4  0
 27 29  2  0
M  END
$$$$

 Created by Python create_sdf_string function

 30 33  0  0  0  0  0  0  0  0999 V2000
    8.3036    9.8571   18.4133 C   0  0  0  0  0  0  0  0  0  0  0  0
    8.3694    7.6612   22.6703 C   0  0  0  0  0  0  0  0  0  0  0  0
    8.4143    6.6863   16.2273 C   0  0  0  0  0  0  0  0  0  0  0  0
   10.7581    6.5674   21.7636 C   0  0  0  0  0  0  0  0  0  0  0  0
    8.4452    8.7960   19.2958 O   0  0  0  0  0  0  0  0  0  0  0  0
    8.7122    6.7842   24.8569 C   0  0  0  0  0  0  0  0  0  0  0  0
   10.3400    6.1726   14.3081 C   0  0  0  0  0  0  0  0  0  0  0  0
    7.4297    7.5873   24.8962 C   0  0  0  0  0  0  0  0  0  0  0  0
    8.1566   10.0536   16.0516 O   0  0  0  0  0  0  0  0  0  0  0  0
   12.4989    6.2074   20.1776 C   0  0  0  0  0  0  0  0  0  0  0  0
    6.9192    9.1053   20.9073 O   0  0  0  0  0  0  0  0  0  0  0  0
   14.3979    6.0729   18.7784 C   0  0  0  0  0  0  0  0  0  0  0  0
    8.6811    9.5354   16.9998 C   0  0  0  0  0  0  0  0  0  0  0  0
    9.2512    4.2713   13.7653 O   0  0  0  0  0  0  0  0  0  0  0  0
    9.6495    8.6317   16.8332 N   0  0  0  0  0  0  0  0  0  0  0  0
    6.2934    8.6988   23.1988 O   0  0  0  0  0  0  0  0  0  0  0  0
    7.9806    8.6543   20.5437 C   0  0  0  0  0  0  0  0  0  0  0  0
   13.7270    5.7144   19.8610 O   0  0  0  0  0  0  0  0  0  0  0  0
    8.3351    5.5235   15.4478 C   0  0  0  0  0  0  0  0  0  0  0  0
    8.7700    7.8434   21.3915 C   0  0  0  0  0  0  0  0  0  0  0  0
   11.7856    6.8851   19.2401 C   0  0  0  0  0  0  0  0  0  0  0  0
   10.5281    7.4276   19.5649 C   0  0  0  0  0  0  0  0  0  0  0  0
   10.0256    7.2907   20.8484 C   0  0  0  0  0  0  0  0  0  0  0  0
    9.3113    5.3049   14.4911 C   0  0  0  0  0  0  0  0  0  0  0  0
    9.4607    7.5646   16.0139 C   0  0  0  0  0  0  0  0  0  0  0  0
   10.4192    7.3157   15.0955 C   0  0  0  0  0  0  0  0  0  0  0  0
   10.2489    6.4227   23.0218 N   0  0  0  0  0  0  0  0  0  0  0  0
    7.2472    8.0746   23.5050 C   0  0  0  0  0  0  0  0  0  0  0  0
    9.2051    6.9101   23.4604 C   0  0  0  0  0  0  0  0  0  0  0  0
   11.9646    6.0299   21.4251 C   0  0  0  0  0  0  0  0  0  0  0  0
  1  5  1  0
  1 13  1  0
  2 20  2  0
  2 28  1  0
  2 29  1  0
  3 19  4  0
  3 25  4  0
  4 23  4  0
  4 27  1  0
  4 30  4  0
  5 17  1  0
  6  8  1  0
  6 29  1  0
  7 24  4  0
  7 26  4  0
  8 28  1  0
  9 13  2  0
 10 18  1  0
 10 21  4  0
 10 30  4  0
 11 17  2  0
 12 18  1  0
 13 15  1  0
 14 24  1  0
 15 25  1  0
 16 28  2  0
 17 20  1  0
 19 24  4  0
 20 23  1  0
 21 22  4  0
 22 23  4  0
 25 26  4  0
 27 29  2  0
M  END
$$$$

 Created by Python create_sdf_string function

 30 33  0  0  0  0  0  0  0  0999 V2000
    8.3036    9.8571   18.4133 C   0  0  0  0  0  0  0  0  0  0  0  0
    8.3694    7.6612   22.6703 C   0  0  0  0  0  0  0  0  0  0  0  0
    8.4143    6.6863   16.2273 C   0  0  0  0  0  0  0  0  0  0  0  0
   10.7581    6.5674   21.7636 C   0  0  0  0  0  0  0  0  0  0  0  0
    8.4452    8.7960   19.2958 O   0  0  0  0  0  0  0  0  0  0  0  0
    8.7122    6.7842   24.8569 C   0  0  0  0  0  0  0  0  0  0  0  0
   10.3400    6.1726   14.3081 C   0  0  0  0  0  0  0  0  0  0  0  0
    7.4297    7.5873   24.8962 C   0  0  0  0  0  0  0  0  0  0  0  0
    8.1566   10.0536   16.0516 O   0  0  0  0  0  0  0  0  0  0  0  0
   12.4989    6.2074   20.1776 C   0  0  0  0  0  0  0  0  0  0  0  0
    6.9192    9.1053   20.9073 O   0  0  0  0  0  0  0  0  0  0  0  0
   14.3979    6.0729   18.7784 C   0  0  0  0  0  0  0  0  0  0  0  0
    8.6811    9.5354   16.9998 C   0  0  0  0  0  0  0  0  0  0  0  0
    9.2512    4.2713   13.7653 O   0  0  0  0  0  0  0  0  0  0  0  0
    9.6495    8.6317   16.8332 N   0  0  0  0  0  0  0  0  0  0  0  0
    6.2934    8.6988   23.1988 O   0  0  0  0  0  0  0  0  0  0  0  0
    7.9806    8.6543   20.5437 C   0  0  0  0  0  0  0  0  0  0  0  0
   13.7270    5.7144   19.8610 O   0  0  0  0  0  0  0  0  0  0  0  0
    8.3351    5.5235   15.4478 C   0  0  0  0  0  0  0  0  0  0  0  0
    8.7700    7.8434   21.3915 C   0  0  0  0  0  0  0  0  0  0  0  0
   11.7856    6.8851   19.2401 C   0  0  0  0  0  0  0  0  0  0  0  0
   10.5281    7.4276   19.5649 C   0  0  0  0  0  0  0  0  0  0  0  0
   10.0256    7.2907   20.8484 C   0  0  0  0  0  0  0  0  0  0  0  0
    9.3113    5.3049   14.4911 C   0  0  0  0  0  0  0  0  0  0  0  0
    9.4607    7.5646   16.0139 C   0  0  0  0  0  0  0  0  0  0  0  0
   10.4192    7.3157   15.0955 C   0  0  0  0  0  0  0  0  0  0  0  0
   10.2489    6.4227   23.0218 N   0  0  0  0  0  0  0  0  0  0  0  0
    7.2472    8.0746   23.5050 C   0  0  0  0  0  0  0  0  0  0  0  0
    9.2051    6.9101   23.4604 C   0  0  0  0  0  0  0  0  0  0  0  0
   11.9646    6.0299   21.4251 C   0  0  0  0  0  0  0  0  0  0  0  0
  1  5  1  0
  1 13  1  0
  2 20  2  0
  2 28  1  0
  2 29  1  0
  3 19  4  0
  3 25  4  0
  4 23  4  0
  4 27  1  0
  4 30  4  0
  5 17  1  0
  6  8  1  0
  6 29  1  0
  7 24  4  0
  7 26  4  0
  8 28  1  0
  9 13  2  0
 10 18  1  0
 10 21  4  0
 10 30  4  0
 11 17  2  0
 12 18  1  0
 13 15  1  0
 14 24  1  0
 15 25  1  0
 16 28  2  0
 17 20  1  0
 19 24  4  0
 20 23  1  0
 21 22  4  0
 22 23  4  0
 25 26  4  0
 27 29  2  0
M  END
$$$$

 Created by Python create_sdf_string function

 30 33  0  0  0  0  0  0  0  0999 V2000
    8.3036    9.8571   18.4133 C   0  0  0  0  0  0  0  0  0  0  0  0
    8.3694    7.6612   22.6703 C   0  0  0  0  0  0  0  0  0  0  0  0
    8.4143    6.6863   16.2273 C   0  0  0  0  0  0  0  0  0  0  0  0
   10.7581    6.5674   21.7636 C   0  0  0  0  0  0  0  0  0  0  0  0
    8.4452    8.7960   19.2958 O   0  0  0  0  0  0  0  0  0  0  0  0
    8.7122    6.7842   24.8569 C   0  0  0  0  0  0  0  0  0  0  0  0
   10.3400    6.1726   14.3081 C   0  0  0  0  0  0  0  0  0  0  0  0
    7.4297    7.5873   24.8962 C   0  0  0  0  0  0  0  0  0  0  0  0
    8.1566   10.0536   16.0516 O   0  0  0  0  0  0  0  0  0  0  0  0
   12.4989    6.2074   20.1776 C   0  0  0  0  0  0  0  0  0  0  0  0
    6.9192    9.1053   20.9073 O   0  0  0  0  0  0  0  0  0  0  0  0
   14.3979    6.0729   18.7784 C   0  0  0  0  0  0  0  0  0  0  0  0
    8.6811    9.5354   16.9998 C   0  0  0  0  0  0  0  0  0  0  0  0
    9.2512    4.2713   13.7653 O   0  0  0  0  0  0  0  0  0  0  0  0
    9.6495    8.6317   16.8332 N   0  0  0  0  0  0  0  0  0  0  0  0
    6.2934    8.6988   23.1988 O   0  0  0  0  0  0  0  0  0  0  0  0
    7.9806    8.6543   20.5437 C   0  0  0  0  0  0  0  0  0  0  0  0
   13.7270    5.7144   19.8610 O   0  0  0  0  0  0  0  0  0  0  0  0
    8.3351    5.5235   15.4478 C   0  0  0  0  0  0  0  0  0  0  0  0
    8.7700    7.8434   21.3915 C   0  0  0  0  0  0  0  0  0  0  0  0
   11.7856    6.8851   19.2401 C   0  0  0  0  0  0  0  0  0  0  0  0
   10.5281    7.4276   19.5649 C   0  0  0  0  0  0  0  0  0  0  0  0
   10.0256    7.2907   20.8484 C   0  0  0  0  0  0  0  0  0  0  0  0
    9.3113    5.3049   14.4911 C   0  0  0  0  0  0  0  0  0  0  0  0
    9.4607    7.5646   16.0139 C   0  0  0  0  0  0  0  0  0  0  0  0
   10.4192    7.3157   15.0955 C   0  0  0  0  0  0  0  0  0  0  0  0
   10.2489    6.4227   23.0218 N   0  0  0  0  0  0  0  0  0  0  0  0
    7.2472    8.0746   23.5050 C   0  0  0  0  0  0  0  0  0  0  0  0
    9.2051    6.9101   23.4604 C   0  0  0  0  0  0  0  0  0  0  0  0
   11.9646    6.0299   21.4251 C   0  0  0  0  0  0  0  0  0  0  0  0
  1  5  1  0
  1 13  1  0
  2 20  2  0
  2 28  1  0
  2 29  1  0
  3 19  4  0
  3 25  4  0
  4 23  4  0
  4 27  1  0
  4 30  4  0
  5 17  1  0
  6  8  1  0
  6 29  1  0
  7 24  4  0
  7 26  4  0
  8 28  1  0
  9 13  2  0
 10 18  1  0
 10 21  4  0
 10 30  4  0
 11 17  2  0
 12 18  1  0
 13 15  1  0
 14 24  1  0
 15 25  1  0
 16 28  2  0
 17 20  1  0
 19 24  4  0
 20 23  1  0
 21 22  4  0
 22 23  4  0
 25 26  4  0
 27 29  2  0
M  END
$$$$

 Created by Python create_sdf_string function

 30 33  0  0  0  0  0  0  0  0999 V2000
    8.3036    9.8571   18.4133 C   0  0  0  0  0  0  0  0  0  0  0  0
    8.3694    7.6612   22.6703 C   0  0  0  0  0  0  0  0  0  0  0  0
    8.4143    6.6863   16.2273 C   0  0  0  0  0  0  0  0  0  0  0  0
   10.7581    6.5674   21.7636 C   0  0  0  0  0  0  0  0  0  0  0  0
    8.4452    8.7960   19.2958 O   0  0  0  0  0  0  0  0  0  0  0  0
    8.7122    6.7842   24.8569 C   0  0  0  0  0  0  0  0  0  0  0  0
   10.3400    6.1726   14.3081 C   0  0  0  0  0  0  0  0  0  0  0  0
    7.4297    7.5873   24.8962 C   0  0  0  0  0  0  0  0  0  0  0  0
    8.1566   10.0536   16.0516 O   0  0  0  0  0  0  0  0  0  0  0  0
   12.4989    6.2074   20.1776 C   0  0  0  0  0  0  0  0  0  0  0  0
    6.9192    9.1053   20.9073 O   0  0  0  0  0  0  0  0  0  0  0  0
   14.3979    6.0729   18.7784 C   0  0  0  0  0  0  0  0  0  0  0  0
    8.6811    9.5354   16.9998 C   0  0  0  0  0  0  0  0  0  0  0  0
    9.2512    4.2713   13.7653 O   0  0  0  0  0  0  0  0  0  0  0  0
    9.6495    8.6317   16.8332 N   0  0  0  0  0  0  0  0  0  0  0  0
    6.2934    8.6988   23.1988 O   0  0  0  0  0  0  0  0  0  0  0  0
    7.9806    8.6543   20.5437 C   0  0  0  0  0  0  0  0  0  0  0  0
   13.7270    5.7144   19.8610 O   0  0  0  0  0  0  0  0  0  0  0  0
    8.3351    5.5235   15.4478 C   0  0  0  0  0  0  0  0  0  0  0  0
    8.7700    7.8434   21.3915 C   0  0  0  0  0  0  0  0  0  0  0  0
   11.7856    6.8851   19.2401 C   0  0  0  0  0  0  0  0  0  0  0  0
   10.5281    7.4276   19.5649 C   0  0  0  0  0  0  0  0  0  0  0  0
   10.0256    7.2907   20.8484 C   0  0  0  0  0  0  0  0  0  0  0  0
    9.3113    5.3049   14.4911 C   0  0  0  0  0  0  0  0  0  0  0  0
    9.4607    7.5646   16.0139 C   0  0  0  0  0  0  0  0  0  0  0  0
   10.4192    7.3157   15.0955 C   0  0  0  0  0  0  0  0  0  0  0  0
   10.2489    6.4227   23.0218 N   0  0  0  0  0  0  0  0  0  0  0  0
    7.2472    8.0746   23.5050 C   0  0  0  0  0  0  0  0  0  0  0  0
    9.2051    6.9101   23.4604 C   0  0  0  0  0  0  0  0  0  0  0  0
   11.9646    6.0299   21.4251 C   0  0  0  0  0  0  0  0  0  0  0  0
  1  5  1  0
  1 13  1  0
  2 20  2  0
  2 28  1  0
  2 29  1  0
  3 19  4  0
  3 25  4  0
  4 23  4  0
  4 27  1  0
  4 30  4  0
  5 17  1  0
  6  8  1  0
  6 29  1  0
  7 24  4  0
  7 26  4  0
  8 28  1  0
  9 13  2  0
 10 18  1  0
 10 21  4  0
 10 30  4  0
 11 17  2  0
 12 18  1  0
 13 15  1  0
 14 24  1  0
 15 25  1  0
 16 28  2  0
 17 20  1  0
 19 24  4  0
 20 23  1  0
 21 22  4  0
 22 23  4  0
 25 26  4  0
 27 29  2  0
M  END
$$$$

 Created by Python create_sdf_string function

 30 33  0  0  0  0  0  0  0  0999 V2000
    8.3036    9.8571   18.4133 C   0  0  0  0  0  0  0  0  0  0  0  0
    8.3694    7.6612   22.6703 C   0  0  0  0  0  0  0  0  0  0  0  0
    8.4143    6.6863   16.2273 C   0  0  0  0  0  0  0  0  0  0  0  0
   10.7581    6.5674   21.7636 C   0  0  0  0  0  0  0  0  0  0  0  0
    8.4452    8.7960   19.2958 O   0  0  0  0  0  0  0  0  0  0  0  0
    8.7122    6.7842   24.8569 C   0  0  0  0  0  0  0  0  0  0  0  0
   10.3400    6.1726   14.3081 C   0  0  0  0  0  0  0  0  0  0  0  0
    7.4297    7.5873   24.8962 C   0  0  0  0  0  0  0  0  0  0  0  0
    8.1566   10.0536   16.0516 O   0  0  0  0  0  0  0  0  0  0  0  0
   12.4989    6.2074   20.1776 C   0  0  0  0  0  0  0  0  0  0  0  0
    6.9192    9.1053   20.9073 O   0  0  0  0  0  0  0  0  0  0  0  0
   14.3979    6.0729   18.7784 C   0  0  0  0  0  0  0  0  0  0  0  0
    8.6811    9.5354   16.9998 C   0  0  0  0  0  0  0  0  0  0  0  0
    9.2512    4.2713   13.7653 O   0  0  0  0  0  0  0  0  0  0  0  0
    9.6495    8.6317   16.8332 N   0  0  0  0  0  0  0  0  0  0  0  0
    6.2934    8.6988   23.1988 O   0  0  0  0  0  0  0  0  0  0  0  0
    7.9806    8.6543   20.5437 C   0  0  0  0  0  0  0  0  0  0  0  0
   13.7270    5.7144   19.8610 O   0  0  0  0  0  0  0  0  0  0  0  0
    8.3351    5.5235   15.4478 C   0  0  0  0  0  0  0  0  0  0  0  0
    8.7700    7.8434   21.3915 C   0  0  0  0  0  0  0  0  0  0  0  0
   11.7856    6.8851   19.2401 C   0  0  0  0  0  0  0  0  0  0  0  0
   10.5281    7.4276   19.5649 C   0  0  0  0  0  0  0  0  0  0  0  0
   10.0256    7.2907   20.8484 C   0  0  0  0  0  0  0  0  0  0  0  0
    9.3113    5.3049   14.4911 C   0  0  0  0  0  0  0  0  0  0  0  0
    9.4607    7.5646   16.0139 C   0  0  0  0  0  0  0  0  0  0  0  0
   10.4192    7.3157   15.0955 C   0  0  0  0  0  0  0  0  0  0  0  0
   10.2489    6.4227   23.0218 N   0  0  0  0  0  0  0  0  0  0  0  0
    7.2472    8.0746   23.5050 C   0  0  0  0  0  0  0  0  0  0  0  0
    9.2051    6.9101   23.4604 C   0  0  0  0  0  0  0  0  0  0  0  0
   11.9646    6.0299   21.4251 C   0  0  0  0  0  0  0  0  0  0  0  0
  1  5  1  0
  1 13  1  0
  2 20  2  0
  2 28  1  0
  2 29  1  0
  3 19  4  0
  3 25  4  0
  4 23  4  0
  4 27  1  0
  4 30  4  0
  5 17  1  0
  6  8  1  0
  6 29  1  0
  7 24  4  0
  7 26  4  0
  8 28  1  0
  9 13  2  0
 10 18  1  0
 10 21  4  0
 10 30  4  0
 11 17  2  0
 12 18  1  0
 13 15  1  0
 14 24  1  0
 15 25  1  0
 16 28  2  0
 17 20  1  0
 19 24  4  0
 20 23  1  0
 21 22  4  0
 22 23  4  0
 25 26  4  0
 27 29  2  0
M  END
$$$$

 Created by Python create_sdf_string function

 30 33  0  0  0  0  0  0  0  0999 V2000
    8.3036    9.8571   18.4133 C   0  0  0  0  0  0  0  0  0  0  0  0
    8.3694    7.6612   22.6703 C   0  0  0  0  0  0  0  0  0  0  0  0
    8.4143    6.6863   16.2273 C   0  0  0  0  0  0  0  0  0  0  0  0
   10.7581    6.5674   21.7636 C   0  0  0  0  0  0  0  0  0  0  0  0
    8.4452    8.7960   19.2958 O   0  0  0  0  0  0  0  0  0  0  0  0
    8.7122    6.7842   24.8569 C   0  0  0  0  0  0  0  0  0  0  0  0
   10.3400    6.1726   14.3081 C   0  0  0  0  0  0  0  0  0  0  0  0
    7.4297    7.5873   24.8962 C   0  0  0  0  0  0  0  0  0  0  0  0
    8.1566   10.0536   16.0516 O   0  0  0  0  0  0  0  0  0  0  0  0
   12.4989    6.2074   20.1776 C   0  0  0  0  0  0  0  0  0  0  0  0
    6.9192    9.1053   20.9073 O   0  0  0  0  0  0  0  0  0  0  0  0
   14.3979    6.0729   18.7784 C   0  0  0  0  0  0  0  0  0  0  0  0
    8.6811    9.5354   16.9998 C   0  0  0  0  0  0  0  0  0  0  0  0
    9.2512    4.2713   13.7653 O   0  0  0  0  0  0  0  0  0  0  0  0
    9.6495    8.6317   16.8332 N   0  0  0  0  0  0  0  0  0  0  0  0
    6.2934    8.6988   23.1988 O   0  0  0  0  0  0  0  0  0  0  0  0
    7.9806    8.6543   20.5437 C   0  0  0  0  0  0  0  0  0  0  0  0
   13.7270    5.7144   19.8610 O   0  0  0  0  0  0  0  0  0  0  0  0
    8.3351    5.5235   15.4478 C   0  0  0  0  0  0  0  0  0  0  0  0
    8.7700    7.8434   21.3915 C   0  0  0  0  0  0  0  0  0  0  0  0
   11.7856    6.8851   19.2401 C   0  0  0  0  0  0  0  0  0  0  0  0
   10.5281    7.4276   19.5649 C   0  0  0  0  0  0  0  0  0  0  0  0
   10.0256    7.2907   20.8484 C   0  0  0  0  0  0  0  0  0  0  0  0
    9.3113    5.3049   14.4911 C   0  0  0  0  0  0  0  0  0  0  0  0
    9.4607    7.5646   16.0139 C   0  0  0  0  0  0  0  0  0  0  0  0
   10.4192    7.3157   15.0955 C   0  0  0  0  0  0  0  0  0  0  0  0
   10.2489    6.4227   23.0218 N   0  0  0  0  0  0  0  0  0  0  0  0
    7.2472    8.0746   23.5050 C   0  0  0  0  0  0  0  0  0  0  0  0
    9.2051    6.9101   23.4604 C   0  0  0  0  0  0  0  0  0  0  0  0
   11.9646    6.0299   21.4251 C   0  0  0  0  0  0  0  0  0  0  0  0
  1  5  1  0
  1 13  1  0
  2 20  2  0
  2 28  1  0
  2 29  1  0
  3 19  4  0
  3 25  4  0
  4 23  4  0
  4 27  1  0
  4 30  4  0
  5 17  1  0
  6  8  1  0
  6 29  1  0
  7 24  4  0
  7 26  4  0
  8 28  1  0
  9 13  2  0
 10 18  1  0
 10 21  4  0
 10 30  4  0
 11 17  2  0
 12 18  1  0
 13 15  1  0
 14 24  1  0
 15 25  1  0
 16 28  2  0
 17 20  1  0
 19 24  4  0
 20 23  1  0
 21 22  4  0
 22 23  4  0
 25 26  4  0
 27 29  2  0
M  END
$$$$

 Created by Python create_sdf_string function

 30 33  0  0  0  0  0  0  0  0999 V2000
    8.3036    9.8571   18.4133 C   0  0  0  0  0  0  0  0  0  0  0  0
    8.3694    7.6612   22.6703 C   0  0  0  0  0  0  0  0  0  0  0  0
    8.4143    6.6863   16.2273 C   0  0  0  0  0  0  0  0  0  0  0  0
   10.7581    6.5674   21.7636 C   0  0  0  0  0  0  0  0  0  0  0  0
    8.4452    8.7960   19.2958 O   0  0  0  0  0  0  0  0  0  0  0  0
    8.7122    6.7842   24.8569 C   0  0  0  0  0  0  0  0  0  0  0  0
   10.3400    6.1726   14.3081 C   0  0  0  0  0  0  0  0  0  0  0  0
    7.4297    7.5873   24.8962 C   0  0  0  0  0  0  0  0  0  0  0  0
    8.1566   10.0536   16.0516 O   0  0  0  0  0  0  0  0  0  0  0  0
   12.4989    6.2074   20.1776 C   0  0  0  0  0  0  0  0  0  0  0  0
    6.9192    9.1053   20.9073 O   0  0  0  0  0  0  0  0  0  0  0  0
   14.3979    6.0729   18.7784 C   0  0  0  0  0  0  0  0  0  0  0  0
    8.6811    9.5354   16.9998 C   0  0  0  0  0  0  0  0  0  0  0  0
    9.2512    4.2713   13.7653 O   0  0  0  0  0  0  0  0  0  0  0  0
    9.6495    8.6317   16.8332 N   0  0  0  0  0  0  0  0  0  0  0  0
    6.2934    8.6988   23.1988 O   0  0  0  0  0  0  0  0  0  0  0  0
    7.9806    8.6543   20.5437 C   0  0  0  0  0  0  0  0  0  0  0  0
   13.7270    5.7144   19.8610 O   0  0  0  0  0  0  0  0  0  0  0  0
    8.3351    5.5235   15.4478 C   0  0  0  0  0  0  0  0  0  0  0  0
    8.7700    7.8434   21.3915 C   0  0  0  0  0  0  0  0  0  0  0  0
   11.7856    6.8851   19.2401 C   0  0  0  0  0  0  0  0  0  0  0  0
   10.5281    7.4276   19.5649 C   0  0  0  0  0  0  0  0  0  0  0  0
   10.0256    7.2907   20.8484 C   0  0  0  0  0  0  0  0  0  0  0  0
    9.3113    5.3049   14.4911 C   0  0  0  0  0  0  0  0  0  0  0  0
    9.4607    7.5646   16.0139 C   0  0  0  0  0  0  0  0  0  0  0  0
   10.4192    7.3157   15.0955 C   0  0  0  0  0  0  0  0  0  0  0  0
   10.2489    6.4227   23.0218 N   0  0  0  0  0  0  0  0  0  0  0  0
    7.2472    8.0746   23.5050 C   0  0  0  0  0  0  0  0  0  0  0  0
    9.2051    6.9101   23.4604 C   0  0  0  0  0  0  0  0  0  0  0  0
   11.9646    6.0299   21.4251 C   0  0  0  0  0  0  0  0  0  0  0  0
  1  5  1  0
  1 13  1  0
  2 20  2  0
  2 28  1  0
  2 29  1  0
  3 19  4  0
  3 25  4  0
  4 23  4  0
  4 27  1  0
  4 30  4  0
  5 17  1  0
  6  8  1  0
  6 29  1  0
  7 24  4  0
  7 26  4  0
  8 28  1  0
  9 13  2  0
 10 18  1  0
 10 21  4  0
 10 30  4  0
 11 17  2  0
 12 18  1  0
 13 15  1  0
 14 24  1  0
 15 25  1  0
 16 28  2  0
 17 20  1  0
 19 24  4  0
 20 23  1  0
 21 22  4  0
 22 23  4  0
 25 26  4  0
 27 29  2  0
M  END
$$$$

 Created by Python create_sdf_string function

 30 33  0  0  0  0  0  0  0  0999 V2000
    8.3036    9.8571   18.4133 C   0  0  0  0  0  0  0  0  0  0  0  0
    8.3694    7.6612   22.6703 C   0  0  0  0  0  0  0  0  0  0  0  0
    8.4143    6.6863   16.2273 C   0  0  0  0  0  0  0  0  0  0  0  0
   10.7581    6.5674   21.7636 C   0  0  0  0  0  0  0  0  0  0  0  0
    8.4452    8.7960   19.2958 O   0  0  0  0  0  0  0  0  0  0  0  0
    8.7122    6.7842   24.8569 C   0  0  0  0  0  0  0  0  0  0  0  0
   10.3400    6.1726   14.3081 C   0  0  0  0  0  0  0  0  0  0  0  0
    7.4297    7.5873   24.8962 C   0  0  0  0  0  0  0  0  0  0  0  0
    8.1566   10.0536   16.0516 O   0  0  0  0  0  0  0  0  0  0  0  0
   12.4989    6.2074   20.1776 C   0  0  0  0  0  0  0  0  0  0  0  0
    6.9192    9.1053   20.9073 O   0  0  0  0  0  0  0  0  0  0  0  0
   14.3979    6.0729   18.7784 C   0  0  0  0  0  0  0  0  0  0  0  0
    8.6811    9.5354   16.9998 C   0  0  0  0  0  0  0  0  0  0  0  0
    9.2512    4.2713   13.7653 O   0  0  0  0  0  0  0  0  0  0  0  0
    9.6495    8.6317   16.8332 N   0  0  0  0  0  0  0  0  0  0  0  0
    6.2934    8.6988   23.1988 O   0  0  0  0  0  0  0  0  0  0  0  0
    7.9806    8.6543   20.5437 C   0  0  0  0  0  0  0  0  0  0  0  0
   13.7270    5.7144   19.8610 O   0  0  0  0  0  0  0  0  0  0  0  0
    8.3351    5.5235   15.4478 C   0  0  0  0  0  0  0  0  0  0  0  0
    8.7700    7.8434   21.3915 C   0  0  0  0  0  0  0  0  0  0  0  0
   11.7856    6.8851   19.2401 C   0  0  0  0  0  0  0  0  0  0  0  0
   10.5281    7.4276   19.5649 C   0  0  0  0  0  0  0  0  0  0  0  0
   10.0256    7.2907   20.8484 C   0  0  0  0  0  0  0  0  0  0  0  0
    9.3113    5.3049   14.4911 C   0  0  0  0  0  0  0  0  0  0  0  0
    9.4607    7.5646   16.0139 C   0  0  0  0  0  0  0  0  0  0  0  0
   10.4192    7.3157   15.0955 C   0  0  0  0  0  0  0  0  0  0  0  0
   10.2489    6.4227   23.0218 N   0  0  0  0  0  0  0  0  0  0  0  0
    7.2472    8.0746   23.5050 C   0  0  0  0  0  0  0  0  0  0  0  0
    9.2051    6.9101   23.4604 C   0  0  0  0  0  0  0  0  0  0  0  0
   11.9646    6.0299   21.4251 C   0  0  0  0  0  0  0  0  0  0  0  0
  1  5  1  0
  1 13  1  0
  2 20  2  0
  2 28  1  0
  2 29  1  0
  3 19  4  0
  3 25  4  0
  4 23  4  0
  4 27  1  0
  4 30  4  0
  5 17  1  0
  6  8  1  0
  6 29  1  0
  7 24  4  0
  7 26  4  0
  8 28  1  0
  9 13  2  0
 10 18  1  0
 10 21  4  0
 10 30  4  0
 11 17  2  0
 12 18  1  0
 13 15  1  0
 14 24  1  0
 15 25  1  0
 16 28  2  0
 17 20  1  0
 19 24  4  0
 20 23  1  0
 21 22  4  0
 22 23  4  0
 25 26  4  0
 27 29  2  0
M  END
$$$$

 Created by Python create_sdf_string function

 30 33  0  0  0  0  0  0  0  0999 V2000
    8.3036    9.8571   18.4133 C   0  0  0  0  0  0  0  0  0  0  0  0
    8.3694    7.6612   22.6703 C   0  0  0  0  0  0  0  0  0  0  0  0
    8.4143    6.6863   16.2273 C   0  0  0  0  0  0  0  0  0  0  0  0
   10.7581    6.5674   21.7636 C   0  0  0  0  0  0  0  0  0  0  0  0
    8.4452    8.7960   19.2958 O   0  0  0  0  0  0  0  0  0  0  0  0
    8.7122    6.7842   24.8569 C   0  0  0  0  0  0  0  0  0  0  0  0
   10.3400    6.1726   14.3081 C   0  0  0  0  0  0  0  0  0  0  0  0
    7.4297    7.5873   24.8962 C   0  0  0  0  0  0  0  0  0  0  0  0
    8.1566   10.0536   16.0516 O   0  0  0  0  0  0  0  0  0  0  0  0
   12.4989    6.2074   20.1776 C   0  0  0  0  0  0  0  0  0  0  0  0
    6.9192    9.1053   20.9073 O   0  0  0  0  0  0  0  0  0  0  0  0
   14.3979    6.0729   18.7784 C   0  0  0  0  0  0  0  0  0  0  0  0
    8.6811    9.5354   16.9998 C   0  0  0  0  0  0  0  0  0  0  0  0
    9.2512    4.2713   13.7653 O   0  0  0  0  0  0  0  0  0  0  0  0
    9.6495    8.6317   16.8332 N   0  0  0  0  0  0  0  0  0  0  0  0
    6.2934    8.6988   23.1988 O   0  0  0  0  0  0  0  0  0  0  0  0
    7.9806    8.6543   20.5437 C   0  0  0  0  0  0  0  0  0  0  0  0
   13.7270    5.7144   19.8610 O   0  0  0  0  0  0  0  0  0  0  0  0
    8.3351    5.5235   15.4478 C   0  0  0  0  0  0  0  0  0  0  0  0
    8.7700    7.8434   21.3915 C   0  0  0  0  0  0  0  0  0  0  0  0
   11.7856    6.8851   19.2401 C   0  0  0  0  0  0  0  0  0  0  0  0
   10.5281    7.4276   19.5649 C   0  0  0  0  0  0  0  0  0  0  0  0
   10.0256    7.2907   20.8484 C   0  0  0  0  0  0  0  0  0  0  0  0
    9.3113    5.3049   14.4911 C   0  0  0  0  0  0  0  0  0  0  0  0
    9.4607    7.5646   16.0139 C   0  0  0  0  0  0  0  0  0  0  0  0
   10.4192    7.3157   15.0955 C   0  0  0  0  0  0  0  0  0  0  0  0
   10.2489    6.4227   23.0218 N   0  0  0  0  0  0  0  0  0  0  0  0
    7.2472    8.0746   23.5050 C   0  0  0  0  0  0  0  0  0  0  0  0
    9.2051    6.9101   23.4604 C   0  0  0  0  0  0  0  0  0  0  0  0
   11.9646    6.0299   21.4251 C   0  0  0  0  0  0  0  0  0  0  0  0
  1  5  1  0
  1 13  1  0
  2 20  2  0
  2 28  1  0
  2 29  1  0
  3 19  4  0
  3 25  4  0
  4 23  4  0
  4 27  1  0
  4 30  4  0
  5 17  1  0
  6  8  1  0
  6 29  1  0
  7 24  4  0
  7 26  4  0
  8 28  1  0
  9 13  2  0
 10 18  1  0
 10 21  4  0
 10 30  4  0
 11 17  2  0
 12 18  1  0
 13 15  1  0
 14 24  1  0
 15 25  1  0
 16 28  2  0
 17 20  1  0
 19 24  4  0
 20 23  1  0
 21 22  4  0
 22 23  4  0
 25 26  4  0
 27 29  2  0
M  END
$$$$

 Created by Python create_sdf_string function

 30 33  0  0  0  0  0  0  0  0999 V2000
    8.3036    9.8571   18.4133 C   0  0  0  0  0  0  0  0  0  0  0  0
    8.3694    7.6612   22.6703 C   0  0  0  0  0  0  0  0  0  0  0  0
    8.4143    6.6863   16.2273 C   0  0  0  0  0  0  0  0  0  0  0  0
   10.7581    6.5674   21.7636 C   0  0  0  0  0  0  0  0  0  0  0  0
    8.4452    8.7960   19.2958 O   0  0  0  0  0  0  0  0  0  0  0  0
    8.7122    6.7842   24.8569 C   0  0  0  0  0  0  0  0  0  0  0  0
   10.3400    6.1726   14.3081 C   0  0  0  0  0  0  0  0  0  0  0  0
    7.4297    7.5873   24.8962 C   0  0  0  0  0  0  0  0  0  0  0  0
    8.1566   10.0536   16.0516 O   0  0  0  0  0  0  0  0  0  0  0  0
   12.4989    6.2074   20.1776 C   0  0  0  0  0  0  0  0  0  0  0  0
    6.9192    9.1053   20.9073 O   0  0  0  0  0  0  0  0  0  0  0  0
   14.3979    6.0729   18.7784 C   0  0  0  0  0  0  0  0  0  0  0  0
    8.6811    9.5354   16.9998 C   0  0  0  0  0  0  0  0  0  0  0  0
    9.2512    4.2713   13.7653 O   0  0  0  0  0  0  0  0  0  0  0  0
    9.6495    8.6317   16.8332 N   0  0  0  0  0  0  0  0  0  0  0  0
    6.2934    8.6988   23.1988 O   0  0  0  0  0  0  0  0  0  0  0  0
    7.9806    8.6543   20.5437 C   0  0  0  0  0  0  0  0  0  0  0  0
   13.7270    5.7144   19.8610 O   0  0  0  0  0  0  0  0  0  0  0  0
    8.3351    5.5235   15.4478 C   0  0  0  0  0  0  0  0  0  0  0  0
    8.7700    7.8434   21.3915 C   0  0  0  0  0  0  0  0  0  0  0  0
   11.7856    6.8851   19.2401 C   0  0  0  0  0  0  0  0  0  0  0  0
   10.5281    7.4276   19.5649 C   0  0  0  0  0  0  0  0  0  0  0  0
   10.0256    7.2907   20.8484 C   0  0  0  0  0  0  0  0  0  0  0  0
    9.3113    5.3049   14.4911 C   0  0  0  0  0  0  0  0  0  0  0  0
    9.4607    7.5646   16.0139 C   0  0  0  0  0  0  0  0  0  0  0  0
   10.4192    7.3157   15.0955 C   0  0  0  0  0  0  0  0  0  0  0  0
   10.2489    6.4227   23.0218 N   0  0  0  0  0  0  0  0  0  0  0  0
    7.2472    8.0746   23.5050 C   0  0  0  0  0  0  0  0  0  0  0  0
    9.2051    6.9101   23.4604 C   0  0  0  0  0  0  0  0  0  0  0  0
   11.9646    6.0299   21.4251 C   0  0  0  0  0  0  0  0  0  0  0  0
  1  5  1  0
  1 13  1  0
  2 20  2  0
  2 28  1  0
  2 29  1  0
  3 19  4  0
  3 25  4  0
  4 23  4  0
  4 27  1  0
  4 30  4  0
  5 17  1  0
  6  8  1  0
  6 29  1  0
  7 24  4  0
  7 26  4  0
  8 28  1  0
  9 13  2  0
 10 18  1  0
 10 21  4  0
 10 30  4  0
 11 17  2  0
 12 18  1  0
 13 15  1  0
 14 24  1  0
 15 25  1  0
 16 28  2  0
 17 20  1  0
 19 24  4  0
 20 23  1  0
 21 22  4  0
 22 23  4  0
 25 26  4  0
 27 29  2  0
M  END
$$$$

 Created by Python create_sdf_string function

 30 33  0  0  0  0  0  0  0  0999 V2000
    8.3036    9.8571   18.4133 C   0  0  0  0  0  0  0  0  0  0  0  0
    8.3694    7.6612   22.6703 C   0  0  0  0  0  0  0  0  0  0  0  0
    8.4143    6.6863   16.2273 C   0  0  0  0  0  0  0  0  0  0  0  0
   10.7581    6.5674   21.7636 C   0  0  0  0  0  0  0  0  0  0  0  0
    8.4452    8.7960   19.2958 O   0  0  0  0  0  0  0  0  0  0  0  0
    8.7122    6.7842   24.8569 C   0  0  0  0  0  0  0  0  0  0  0  0
   10.3400    6.1726   14.3081 C   0  0  0  0  0  0  0  0  0  0  0  0
    7.4297    7.5873   24.8962 C   0  0  0  0  0  0  0  0  0  0  0  0
    8.1566   10.0536   16.0516 O   0  0  0  0  0  0  0  0  0  0  0  0
   12.4989    6.2074   20.1776 C   0  0  0  0  0  0  0  0  0  0  0  0
    6.9192    9.1053   20.9073 O   0  0  0  0  0  0  0  0  0  0  0  0
   14.3979    6.0729   18.7784 C   0  0  0  0  0  0  0  0  0  0  0  0
    8.6811    9.5354   16.9998 C   0  0  0  0  0  0  0  0  0  0  0  0
    9.2512    4.2713   13.7653 O   0  0  0  0  0  0  0  0  0  0  0  0
    9.6495    8.6317   16.8332 N   0  0  0  0  0  0  0  0  0  0  0  0
    6.2934    8.6988   23.1988 O   0  0  0  0  0  0  0  0  0  0  0  0
    7.9806    8.6543   20.5437 C   0  0  0  0  0  0  0  0  0  0  0  0
   13.7270    5.7144   19.8610 O   0  0  0  0  0  0  0  0  0  0  0  0
    8.3351    5.5235   15.4478 C   0  0  0  0  0  0  0  0  0  0  0  0
    8.7700    7.8434   21.3915 C   0  0  0  0  0  0  0  0  0  0  0  0
   11.7856    6.8851   19.2401 C   0  0  0  0  0  0  0  0  0  0  0  0
   10.5281    7.4276   19.5649 C   0  0  0  0  0  0  0  0  0  0  0  0
   10.0256    7.2907   20.8484 C   0  0  0  0  0  0  0  0  0  0  0  0
    9.3113    5.3049   14.4911 C   0  0  0  0  0  0  0  0  0  0  0  0
    9.4607    7.5646   16.0139 C   0  0  0  0  0  0  0  0  0  0  0  0
   10.4192    7.3157   15.0955 C   0  0  0  0  0  0  0  0  0  0  0  0
   10.2489    6.4227   23.0218 N   0  0  0  0  0  0  0  0  0  0  0  0
    7.2472    8.0746   23.5050 C   0  0  0  0  0  0  0  0  0  0  0  0
    9.2051    6.9101   23.4604 C   0  0  0  0  0  0  0  0  0  0  0  0
   11.9646    6.0299   21.4251 C   0  0  0  0  0  0  0  0  0  0  0  0
  1  5  1  0
  1 13  1  0
  2 20  2  0
  2 28  1  0
  2 29  1  0
  3 19  4  0
  3 25  4  0
  4 23  4  0
  4 27  1  0
  4 30  4  0
  5 17  1  0
  6  8  1  0
  6 29  1  0
  7 24  4  0
  7 26  4  0
  8 28  1  0
  9 13  2  0
 10 18  1  0
 10 21  4  0
 10 30  4  0
 11 17  2  0
 12 18  1  0
 13 15  1  0
 14 24  1  0
 15 25  1  0
 16 28  2  0
 17 20  1  0
 19 24  4  0
 20 23  1  0
 21 22  4  0
 22 23  4  0
 25 26  4  0
 27 29  2  0
M  END
$$$$

 Created by Python create_sdf_string function

 30 33  0  0  0  0  0  0  0  0999 V2000
    8.3036    9.8571   18.4133 C   0  0  0  0  0  0  0  0  0  0  0  0
    8.3694    7.6612   22.6703 C   0  0  0  0  0  0  0  0  0  0  0  0
    8.4143    6.6863   16.2273 C   0  0  0  0  0  0  0  0  0  0  0  0
   10.7581    6.5674   21.7636 C   0  0  0  0  0  0  0  0  0  0  0  0
    8.4452    8.7960   19.2958 O   0  0  0  0  0  0  0  0  0  0  0  0
    8.7122    6.7842   24.8569 C   0  0  0  0  0  0  0  0  0  0  0  0
   10.3400    6.1726   14.3081 C   0  0  0  0  0  0  0  0  0  0  0  0
    7.4297    7.5873   24.8962 C   0  0  0  0  0  0  0  0  0  0  0  0
    8.1566   10.0536   16.0516 O   0  0  0  0  0  0  0  0  0  0  0  0
   12.4989    6.2074   20.1776 C   0  0  0  0  0  0  0  0  0  0  0  0
    6.9192    9.1053   20.9073 O   0  0  0  0  0  0  0  0  0  0  0  0
   14.3979    6.0729   18.7784 C   0  0  0  0  0  0  0  0  0  0  0  0
    8.6811    9.5354   16.9998 C   0  0  0  0  0  0  0  0  0  0  0  0
    9.2512    4.2713   13.7653 O   0  0  0  0  0  0  0  0  0  0  0  0
    9.6495    8.6317   16.8332 N   0  0  0  0  0  0  0  0  0  0  0  0
    6.2934    8.6988   23.1988 O   0  0  0  0  0  0  0  0  0  0  0  0
    7.9806    8.6543   20.5437 C   0  0  0  0  0  0  0  0  0  0  0  0
   13.7270    5.7144   19.8610 O   0  0  0  0  0  0  0  0  0  0  0  0
    8.3351    5.5235   15.4478 C   0  0  0  0  0  0  0  0  0  0  0  0
    8.7700    7.8434   21.3915 C   0  0  0  0  0  0  0  0  0  0  0  0
   11.7856    6.8851   19.2401 C   0  0  0  0  0  0  0  0  0  0  0  0
   10.5281    7.4276   19.5649 C   0  0  0  0  0  0  0  0  0  0  0  0
   10.0256    7.2907   20.8484 C   0  0  0  0  0  0  0  0  0  0  0  0
    9.3113    5.3049   14.4911 C   0  0  0  0  0  0  0  0  0  0  0  0
    9.4607    7.5646   16.0139 C   0  0  0  0  0  0  0  0  0  0  0  0
   10.4192    7.3157   15.0955 C   0  0  0  0  0  0  0  0  0  0  0  0
   10.2489    6.4227   23.0218 N   0  0  0  0  0  0  0  0  0  0  0  0
    7.2472    8.0746   23.5050 C   0  0  0  0  0  0  0  0  0  0  0  0
    9.2051    6.9101   23.4604 C   0  0  0  0  0  0  0  0  0  0  0  0
   11.9646    6.0299   21.4251 C   0  0  0  0  0  0  0  0  0  0  0  0
  1  5  1  0
  1 13  1  0
  2 20  2  0
  2 28  1  0
  2 29  1  0
  3 19  4  0
  3 25  4  0
  4 23  4  0
  4 27  1  0
  4 30  4  0
  5 17  1  0
  6  8  1  0
  6 29  1  0
  7 24  4  0
  7 26  4  0
  8 28  1  0
  9 13  2  0
 10 18  1  0
 10 21  4  0
 10 30  4  0
 11 17  2  0
 12 18  1  0
 13 15  1  0
 14 24  1  0
 15 25  1  0
 16 28  2  0
 17 20  1  0
 19 24  4  0
 20 23  1  0
 21 22  4  0
 22 23  4  0
 25 26  4  0
 27 29  2  0
M  END
$$$$

 Created by Python create_sdf_string function

 30 33  0  0  0  0  0  0  0  0999 V2000
    8.3036    9.8571   18.4133 C   0  0  0  0  0  0  0  0  0  0  0  0
    8.3694    7.6612   22.6703 C   0  0  0  0  0  0  0  0  0  0  0  0
    8.4143    6.6863   16.2273 C   0  0  0  0  0  0  0  0  0  0  0  0
   10.7581    6.5674   21.7636 C   0  0  0  0  0  0  0  0  0  0  0  0
    8.4452    8.7960   19.2958 O   0  0  0  0  0  0  0  0  0  0  0  0
    8.7122    6.7842   24.8569 C   0  0  0  0  0  0  0  0  0  0  0  0
   10.3400    6.1726   14.3081 C   0  0  0  0  0  0  0  0  0  0  0  0
    7.4297    7.5873   24.8962 C   0  0  0  0  0  0  0  0  0  0  0  0
    8.1566   10.0536   16.0516 O   0  0  0  0  0  0  0  0  0  0  0  0
   12.4989    6.2074   20.1776 C   0  0  0  0  0  0  0  0  0  0  0  0
    6.9192    9.1053   20.9073 O   0  0  0  0  0  0  0  0  0  0  0  0
   14.3979    6.0729   18.7784 C   0  0  0  0  0  0  0  0  0  0  0  0
    8.6811    9.5354   16.9998 C   0  0  0  0  0  0  0  0  0  0  0  0
    9.2512    4.2713   13.7653 O   0  0  0  0  0  0  0  0  0  0  0  0
    9.6495    8.6317   16.8332 N   0  0  0  0  0  0  0  0  0  0  0  0
    6.2934    8.6988   23.1988 O   0  0  0  0  0  0  0  0  0  0  0  0
    7.9806    8.6543   20.5437 C   0  0  0  0  0  0  0  0  0  0  0  0
   13.7270    5.7144   19.8610 O   0  0  0  0  0  0  0  0  0  0  0  0
    8.3351    5.5235   15.4478 C   0  0  0  0  0  0  0  0  0  0  0  0
    8.7700    7.8434   21.3915 C   0  0  0  0  0  0  0  0  0  0  0  0
   11.7856    6.8851   19.2401 C   0  0  0  0  0  0  0  0  0  0  0  0
   10.5281    7.4276   19.5649 C   0  0  0  0  0  0  0  0  0  0  0  0
   10.0256    7.2907   20.8484 C   0  0  0  0  0  0  0  0  0  0  0  0
    9.3113    5.3049   14.4911 C   0  0  0  0  0  0  0  0  0  0  0  0
    9.4607    7.5646   16.0139 C   0  0  0  0  0  0  0  0  0  0  0  0
   10.4192    7.3157   15.0955 C   0  0  0  0  0  0  0  0  0  0  0  0
   10.2489    6.4227   23.0218 N   0  0  0  0  0  0  0  0  0  0  0  0
    7.2472    8.0746   23.5050 C   0  0  0  0  0  0  0  0  0  0  0  0
    9.2051    6.9101   23.4604 C   0  0  0  0  0  0  0  0  0  0  0  0
   11.9646    6.0299   21.4251 C   0  0  0  0  0  0  0  0  0  0  0  0
  1  5  1  0
  1 13  1  0
  2 20  2  0
  2 28  1  0
  2 29  1  0
  3 19  4  0
  3 25  4  0
  4 23  4  0
  4 27  1  0
  4 30  4  0
  5 17  1  0
  6  8  1  0
  6 29  1  0
  7 24  4  0
  7 26  4  0
  8 28  1  0
  9 13  2  0
 10 18  1  0
 10 21  4  0
 10 30  4  0
 11 17  2  0
 12 18  1  0
 13 15  1  0
 14 24  1  0
 15 25  1  0
 16 28  2  0
 17 20  1  0
 19 24  4  0
 20 23  1  0
 21 22  4  0
 22 23  4  0
 25 26  4  0
 27 29  2  0
M  END
$$$$

 Created by Python create_sdf_string function

 30 33  0  0  0  0  0  0  0  0999 V2000
    8.3036    9.8571   18.4133 C   0  0  0  0  0  0  0  0  0  0  0  0
    8.3694    7.6612   22.6703 C   0  0  0  0  0  0  0  0  0  0  0  0
    8.4143    6.6863   16.2273 C   0  0  0  0  0  0  0  0  0  0  0  0
   10.7581    6.5674   21.7636 C   0  0  0  0  0  0  0  0  0  0  0  0
    8.4452    8.7960   19.2958 O   0  0  0  0  0  0  0  0  0  0  0  0
    8.7122    6.7842   24.8569 C   0  0  0  0  0  0  0  0  0  0  0  0
   10.3400    6.1726   14.3081 C   0  0  0  0  0  0  0  0  0  0  0  0
    7.4297    7.5873   24.8962 C   0  0  0  0  0  0  0  0  0  0  0  0
    8.1566   10.0536   16.0516 O   0  0  0  0  0  0  0  0  0  0  0  0
   12.4989    6.2074   20.1776 C   0  0  0  0  0  0  0  0  0  0  0  0
    6.9192    9.1053   20.9073 O   0  0  0  0  0  0  0  0  0  0  0  0
   14.3979    6.0729   18.7784 C   0  0  0  0  0  0  0  0  0  0  0  0
    8.6811    9.5354   16.9998 C   0  0  0  0  0  0  0  0  0  0  0  0
    9.2512    4.2713   13.7653 O   0  0  0  0  0  0  0  0  0  0  0  0
    9.6495    8.6317   16.8332 N   0  0  0  0  0  0  0  0  0  0  0  0
    6.2934    8.6988   23.1988 O   0  0  0  0  0  0  0  0  0  0  0  0
    7.9806    8.6543   20.5437 C   0  0  0  0  0  0  0  0  0  0  0  0
   13.7270    5.7144   19.8610 O   0  0  0  0  0  0  0  0  0  0  0  0
    8.3351    5.5235   15.4478 C   0  0  0  0  0  0  0  0  0  0  0  0
    8.7700    7.8434   21.3915 C   0  0  0  0  0  0  0  0  0  0  0  0
   11.7856    6.8851   19.2401 C   0  0  0  0  0  0  0  0  0  0  0  0
   10.5281    7.4276   19.5649 C   0  0  0  0  0  0  0  0  0  0  0  0
   10.0256    7.2907   20.8484 C   0  0  0  0  0  0  0  0  0  0  0  0
    9.3113    5.3049   14.4911 C   0  0  0  0  0  0  0  0  0  0  0  0
    9.4607    7.5646   16.0139 C   0  0  0  0  0  0  0  0  0  0  0  0
   10.4192    7.3157   15.0955 C   0  0  0  0  0  0  0  0  0  0  0  0
   10.2489    6.4227   23.0218 N   0  0  0  0  0  0  0  0  0  0  0  0
    7.2472    8.0746   23.5050 C   0  0  0  0  0  0  0  0  0  0  0  0
    9.2051    6.9101   23.4604 C   0  0  0  0  0  0  0  0  0  0  0  0
   11.9646    6.0299   21.4251 C   0  0  0  0  0  0  0  0  0  0  0  0
  1  5  1  0
  1 13  1  0
  2 20  2  0
  2 28  1  0
  2 29  1  0
  3 19  4  0
  3 25  4  0
  4 23  4  0
  4 27  1  0
  4 30  4  0
  5 17  1  0
  6  8  1  0
  6 29  1  0
  7 24  4  0
  7 26  4  0
  8 28  1  0
  9 13  2  0
 10 18  1  0
 10 21  4  0
 10 30  4  0
 11 17  2  0
 12 18  1  0
 13 15  1  0
 14 24  1  0
 15 25  1  0
 16 28  2  0
 17 20  1  0
 19 24  4  0
 20 23  1  0
 21 22  4  0
 22 23  4  0
 25 26  4  0
 27 29  2  0
M  END
$$$$

 Created by Python create_sdf_string function

 30 33  0  0  0  0  0  0  0  0999 V2000
    8.3036    9.8571   18.4133 C   0  0  0  0  0  0  0  0  0  0  0  0
    8.3694    7.6612   22.6703 C   0  0  0  0  0  0  0  0  0  0  0  0
    8.4143    6.6863   16.2273 C   0  0  0  0  0  0  0  0  0  0  0  0
   10.7581    6.5674   21.7636 C   0  0  0  0  0  0  0  0  0  0  0  0
    8.4452    8.7960   19.2958 O   0  0  0  0  0  0  0  0  0  0  0  0
    8.7122    6.7842   24.8569 C   0  0  0  0  0  0  0  0  0  0  0  0
   10.3400    6.1726   14.3081 C   0  0  0  0  0  0  0  0  0  0  0  0
    7.4297    7.5873   24.8962 C   0  0  0  0  0  0  0  0  0  0  0  0
    8.1566   10.0536   16.0516 O   0  0  0  0  0  0  0  0  0  0  0  0
   12.4989    6.2074   20.1776 C   0  0  0  0  0  0  0  0  0  0  0  0
    6.9192    9.1053   20.9073 O   0  0  0  0  0  0  0  0  0  0  0  0
   14.3979    6.0729   18.7784 C   0  0  0  0  0  0  0  0  0  0  0  0
    8.6811    9.5354   16.9998 C   0  0  0  0  0  0  0  0  0  0  0  0
    9.2512    4.2713   13.7653 O   0  0  0  0  0  0  0  0  0  0  0  0
    9.6495    8.6317   16.8332 N   0  0  0  0  0  0  0  0  0  0  0  0
    6.2934    8.6988   23.1988 O   0  0  0  0  0  0  0  0  0  0  0  0
    7.9806    8.6543   20.5437 C   0  0  0  0  0  0  0  0  0  0  0  0
   13.7270    5.7144   19.8610 O   0  0  0  0  0  0  0  0  0  0  0  0
    8.3351    5.5235   15.4478 C   0  0  0  0  0  0  0  0  0  0  0  0
    8.7700    7.8434   21.3915 C   0  0  0  0  0  0  0  0  0  0  0  0
   11.7856    6.8851   19.2401 C   0  0  0  0  0  0  0  0  0  0  0  0
   10.5281    7.4276   19.5649 C   0  0  0  0  0  0  0  0  0  0  0  0
   10.0256    7.2907   20.8484 C   0  0  0  0  0  0  0  0  0  0  0  0
    9.3113    5.3049   14.4911 C   0  0  0  0  0  0  0  0  0  0  0  0
    9.4607    7.5646   16.0139 C   0  0  0  0  0  0  0  0  0  0  0  0
   10.4192    7.3157   15.0955 C   0  0  0  0  0  0  0  0  0  0  0  0
   10.2489    6.4227   23.0218 N   0  0  0  0  0  0  0  0  0  0  0  0
    7.2472    8.0746   23.5050 C   0  0  0  0  0  0  0  0  0  0  0  0
    9.2051    6.9101   23.4604 C   0  0  0  0  0  0  0  0  0  0  0  0
   11.9646    6.0299   21.4251 C   0  0  0  0  0  0  0  0  0  0  0  0
  1  5  1  0
  1 13  1  0
  2 20  2  0
  2 28  1  0
  2 29  1  0
  3 19  4  0
  3 25  4  0
  4 23  4  0
  4 27  1  0
  4 30  4  0
  5 17  1  0
  6  8  1  0
  6 29  1  0
  7 24  4  0
  7 26  4  0
  8 28  1  0
  9 13  2  0
 10 18  1  0
 10 21  4  0
 10 30  4  0
 11 17  2  0
 12 18  1  0
 13 15  1  0
 14 24  1  0
 15 25  1  0
 16 28  2  0
 17 20  1  0
 19 24  4  0
 20 23  1  0
 21 22  4  0
 22 23  4  0
 25 26  4  0
 27 29  2  0
M  END
$$$$

 Created by Python create_sdf_string function

 30 33  0  0  0  0  0  0  0  0999 V2000
    8.3036    9.8571   18.4133 C   0  0  0  0  0  0  0  0  0  0  0  0
    8.3694    7.6612   22.6703 C   0  0  0  0  0  0  0  0  0  0  0  0
    8.4143    6.6863   16.2273 C   0  0  0  0  0  0  0  0  0  0  0  0
   10.7581    6.5674   21.7636 C   0  0  0  0  0  0  0  0  0  0  0  0
    8.4452    8.7960   19.2958 O   0  0  0  0  0  0  0  0  0  0  0  0
    8.7122    6.7842   24.8569 C   0  0  0  0  0  0  0  0  0  0  0  0
   10.3400    6.1726   14.3081 C   0  0  0  0  0  0  0  0  0  0  0  0
    7.4297    7.5873   24.8962 C   0  0  0  0  0  0  0  0  0  0  0  0
    8.1566   10.0536   16.0516 O   0  0  0  0  0  0  0  0  0  0  0  0
   12.4989    6.2074   20.1776 C   0  0  0  0  0  0  0  0  0  0  0  0
    6.9192    9.1053   20.9073 O   0  0  0  0  0  0  0  0  0  0  0  0
   14.3979    6.0729   18.7784 C   0  0  0  0  0  0  0  0  0  0  0  0
    8.6811    9.5354   16.9998 C   0  0  0  0  0  0  0  0  0  0  0  0
    9.2512    4.2713   13.7653 O   0  0  0  0  0  0  0  0  0  0  0  0
    9.6495    8.6317   16.8332 N   0  0  0  0  0  0  0  0  0  0  0  0
    6.2934    8.6988   23.1988 O   0  0  0  0  0  0  0  0  0  0  0  0
    7.9806    8.6543   20.5437 C   0  0  0  0  0  0  0  0  0  0  0  0
   13.7270    5.7144   19.8610 O   0  0  0  0  0  0  0  0  0  0  0  0
    8.3351    5.5235   15.4478 C   0  0  0  0  0  0  0  0  0  0  0  0
    8.7700    7.8434   21.3915 C   0  0  0  0  0  0  0  0  0  0  0  0
   11.7856    6.8851   19.2401 C   0  0  0  0  0  0  0  0  0  0  0  0
   10.5281    7.4276   19.5649 C   0  0  0  0  0  0  0  0  0  0  0  0
   10.0256    7.2907   20.8484 C   0  0  0  0  0  0  0  0  0  0  0  0
    9.3113    5.3049   14.4911 C   0  0  0  0  0  0  0  0  0  0  0  0
    9.4607    7.5646   16.0139 C   0  0  0  0  0  0  0  0  0  0  0  0
   10.4192    7.3157   15.0955 C   0  0  0  0  0  0  0  0  0  0  0  0
   10.2489    6.4227   23.0218 N   0  0  0  0  0  0  0  0  0  0  0  0
    7.2472    8.0746   23.5050 C   0  0  0  0  0  0  0  0  0  0  0  0
    9.2051    6.9101   23.4604 C   0  0  0  0  0  0  0  0  0  0  0  0
   11.9646    6.0299   21.4251 C   0  0  0  0  0  0  0  0  0  0  0  0
  1  5  1  0
  1 13  1  0
  2 20  2  0
  2 28  1  0
  2 29  1  0
  3 19  4  0
  3 25  4  0
  4 23  4  0
  4 27  1  0
  4 30  4  0
  5 17  1  0
  6  8  1  0
  6 29  1  0
  7 24  4  0
  7 26  4  0
  8 28  1  0
  9 13  2  0
 10 18  1  0
 10 21  4  0
 10 30  4  0
 11 17  2  0
 12 18  1  0
 13 15  1  0
 14 24  1  0
 15 25  1  0
 16 28  2  0
 17 20  1  0
 19 24  4  0
 20 23  1  0
 21 22  4  0
 22 23  4  0
 25 26  4  0
 27 29  2  0
M  END
$$$$

 Created by Python create_sdf_string function

 30 33  0  0  0  0  0  0  0  0999 V2000
    8.3036    9.8571   18.4133 C   0  0  0  0  0  0  0  0  0  0  0  0
    8.3694    7.6612   22.6703 C   0  0  0  0  0  0  0  0  0  0  0  0
    8.4143    6.6863   16.2273 C   0  0  0  0  0  0  0  0  0  0  0  0
   10.7581    6.5674   21.7636 C   0  0  0  0  0  0  0  0  0  0  0  0
    8.4452    8.7960   19.2958 O   0  0  0  0  0  0  0  0  0  0  0  0
    8.7122    6.7842   24.8569 C   0  0  0  0  0  0  0  0  0  0  0  0
   10.3400    6.1726   14.3081 C   0  0  0  0  0  0  0  0  0  0  0  0
    7.4297    7.5873   24.8962 C   0  0  0  0  0  0  0  0  0  0  0  0
    8.1566   10.0536   16.0516 O   0  0  0  0  0  0  0  0  0  0  0  0
   12.4989    6.2074   20.1776 C   0  0  0  0  0  0  0  0  0  0  0  0
    6.9192    9.1053   20.9073 O   0  0  0  0  0  0  0  0  0  0  0  0
   14.3979    6.0729   18.7784 C   0  0  0  0  0  0  0  0  0  0  0  0
    8.6811    9.5354   16.9998 C   0  0  0  0  0  0  0  0  0  0  0  0
    9.2512    4.2713   13.7653 O   0  0  0  0  0  0  0  0  0  0  0  0
    9.6495    8.6317   16.8332 N   0  0  0  0  0  0  0  0  0  0  0  0
    6.2934    8.6988   23.1988 O   0  0  0  0  0  0  0  0  0  0  0  0
    7.9806    8.6543   20.5437 C   0  0  0  0  0  0  0  0  0  0  0  0
   13.7270    5.7144   19.8610 O   0  0  0  0  0  0  0  0  0  0  0  0
    8.3351    5.5235   15.4478 C   0  0  0  0  0  0  0  0  0  0  0  0
    8.7700    7.8434   21.3915 C   0  0  0  0  0  0  0  0  0  0  0  0
   11.7856    6.8851   19.2401 C   0  0  0  0  0  0  0  0  0  0  0  0
   10.5281    7.4276   19.5649 C   0  0  0  0  0  0  0  0  0  0  0  0
   10.0256    7.2907   20.8484 C   0  0  0  0  0  0  0  0  0  0  0  0
    9.3113    5.3049   14.4911 C   0  0  0  0  0  0  0  0  0  0  0  0
    9.4607    7.5646   16.0139 C   0  0  0  0  0  0  0  0  0  0  0  0
   10.4192    7.3157   15.0955 C   0  0  0  0  0  0  0  0  0  0  0  0
   10.2489    6.4227   23.0218 N   0  0  0  0  0  0  0  0  0  0  0  0
    7.2472    8.0746   23.5050 C   0  0  0  0  0  0  0  0  0  0  0  0
    9.2051    6.9101   23.4604 C   0  0  0  0  0  0  0  0  0  0  0  0
   11.9646    6.0299   21.4251 C   0  0  0  0  0  0  0  0  0  0  0  0
  1  5  1  0
  1 13  1  0
  2 20  2  0
  2 28  1  0
  2 29  1  0
  3 19  4  0
  3 25  4  0
  4 23  4  0
  4 27  1  0
  4 30  4  0
  5 17  1  0
  6  8  1  0
  6 29  1  0
  7 24  4  0
  7 26  4  0
  8 28  1  0
  9 13  2  0
 10 18  1  0
 10 21  4  0
 10 30  4  0
 11 17  2  0
 12 18  1  0
 13 15  1  0
 14 24  1  0
 15 25  1  0
 16 28  2  0
 17 20  1  0
 19 24  4  0
 20 23  1  0
 21 22  4  0
 22 23  4  0
 25 26  4  0
 27 29  2  0
M  END
$$$$

 Created by Python create_sdf_string function

 30 33  0  0  0  0  0  0  0  0999 V2000
    8.3036    9.8571   18.4133 C   0  0  0  0  0  0  0  0  0  0  0  0
    8.3694    7.6612   22.6703 C   0  0  0  0  0  0  0  0  0  0  0  0
    8.4143    6.6863   16.2273 C   0  0  0  0  0  0  0  0  0  0  0  0
   10.7581    6.5674   21.7636 C   0  0  0  0  0  0  0  0  0  0  0  0
    8.4452    8.7960   19.2958 O   0  0  0  0  0  0  0  0  0  0  0  0
    8.7122    6.7842   24.8569 C   0  0  0  0  0  0  0  0  0  0  0  0
   10.3400    6.1726   14.3081 C   0  0  0  0  0  0  0  0  0  0  0  0
    7.4297    7.5873   24.8962 C   0  0  0  0  0  0  0  0  0  0  0  0
    8.1566   10.0536   16.0516 O   0  0  0  0  0  0  0  0  0  0  0  0
   12.4989    6.2074   20.1776 C   0  0  0  0  0  0  0  0  0  0  0  0
    6.9192    9.1053   20.9073 O   0  0  0  0  0  0  0  0  0  0  0  0
   14.3979    6.0729   18.7784 C   0  0  0  0  0  0  0  0  0  0  0  0
    8.6811    9.5354   16.9998 C   0  0  0  0  0  0  0  0  0  0  0  0
    9.2512    4.2713   13.7653 O   0  0  0  0  0  0  0  0  0  0  0  0
    9.6495    8.6317   16.8332 N   0  0  0  0  0  0  0  0  0  0  0  0
    6.2934    8.6988   23.1988 O   0  0  0  0  0  0  0  0  0  0  0  0
    7.9806    8.6543   20.5437 C   0  0  0  0  0  0  0  0  0  0  0  0
   13.7270    5.7144   19.8610 O   0  0  0  0  0  0  0  0  0  0  0  0
    8.3351    5.5235   15.4478 C   0  0  0  0  0  0  0  0  0  0  0  0
    8.7700    7.8434   21.3915 C   0  0  0  0  0  0  0  0  0  0  0  0
   11.7856    6.8851   19.2401 C   0  0  0  0  0  0  0  0  0  0  0  0
   10.5281    7.4276   19.5649 C   0  0  0  0  0  0  0  0  0  0  0  0
   10.0256    7.2907   20.8484 C   0  0  0  0  0  0  0  0  0  0  0  0
    9.3113    5.3049   14.4911 C   0  0  0  0  0  0  0  0  0  0  0  0
    9.4607    7.5646   16.0139 C   0  0  0  0  0  0  0  0  0  0  0  0
   10.4192    7.3157   15.0955 C   0  0  0  0  0  0  0  0  0  0  0  0
   10.2489    6.4227   23.0218 N   0  0  0  0  0  0  0  0  0  0  0  0
    7.2472    8.0746   23.5050 C   0  0  0  0  0  0  0  0  0  0  0  0
    9.2051    6.9101   23.4604 C   0  0  0  0  0  0  0  0  0  0  0  0
   11.9646    6.0299   21.4251 C   0  0  0  0  0  0  0  0  0  0  0  0
  1  5  1  0
  1 13  1  0
  2 20  2  0
  2 28  1  0
  2 29  1  0
  3 19  4  0
  3 25  4  0
  4 23  4  0
  4 27  1  0
  4 30  4  0
  5 17  1  0
  6  8  1  0
  6 29  1  0
  7 24  4  0
  7 26  4  0
  8 28  1  0
  9 13  2  0
 10 18  1  0
 10 21  4  0
 10 30  4  0
 11 17  2  0
 12 18  1  0
 13 15  1  0
 14 24  1  0
 15 25  1  0
 16 28  2  0
 17 20  1  0
 19 24  4  0
 20 23  1  0
 21 22  4  0
 22 23  4  0
 25 26  4  0
 27 29  2  0
M  END
$$$$

 Created by Python create_sdf_string function

 30 33  0  0  0  0  0  0  0  0999 V2000
    8.3036    9.8571   18.4133 C   0  0  0  0  0  0  0  0  0  0  0  0
    8.3694    7.6612   22.6703 C   0  0  0  0  0  0  0  0  0  0  0  0
    8.4143    6.6863   16.2273 C   0  0  0  0  0  0  0  0  0  0  0  0
   10.7581    6.5674   21.7636 C   0  0  0  0  0  0  0  0  0  0  0  0
    8.4452    8.7960   19.2958 O   0  0  0  0  0  0  0  0  0  0  0  0
    8.7122    6.7842   24.8569 C   0  0  0  0  0  0  0  0  0  0  0  0
   10.3400    6.1726   14.3081 C   0  0  0  0  0  0  0  0  0  0  0  0
    7.4297    7.5873   24.8962 C   0  0  0  0  0  0  0  0  0  0  0  0
    8.1566   10.0536   16.0516 O   0  0  0  0  0  0  0  0  0  0  0  0
   12.4989    6.2074   20.1776 C   0  0  0  0  0  0  0  0  0  0  0  0
    6.9192    9.1053   20.9073 O   0  0  0  0  0  0  0  0  0  0  0  0
   14.3979    6.0729   18.7784 C   0  0  0  0  0  0  0  0  0  0  0  0
    8.6811    9.5354   16.9998 C   0  0  0  0  0  0  0  0  0  0  0  0
    9.2512    4.2713   13.7653 O   0  0  0  0  0  0  0  0  0  0  0  0
    9.6495    8.6317   16.8332 N   0  0  0  0  0  0  0  0  0  0  0  0
    6.2934    8.6988   23.1988 O   0  0  0  0  0  0  0  0  0  0  0  0
    7.9806    8.6543   20.5437 C   0  0  0  0  0  0  0  0  0  0  0  0
   13.7270    5.7144   19.8610 O   0  0  0  0  0  0  0  0  0  0  0  0
    8.3351    5.5235   15.4478 C   0  0  0  0  0  0  0  0  0  0  0  0
    8.7700    7.8434   21.3915 C   0  0  0  0  0  0  0  0  0  0  0  0
   11.7856    6.8851   19.2401 C   0  0  0  0  0  0  0  0  0  0  0  0
   10.5281    7.4276   19.5649 C   0  0  0  0  0  0  0  0  0  0  0  0
   10.0256    7.2907   20.8484 C   0  0  0  0  0  0  0  0  0  0  0  0
    9.3113    5.3049   14.4911 C   0  0  0  0  0  0  0  0  0  0  0  0
    9.4607    7.5646   16.0139 C   0  0  0  0  0  0  0  0  0  0  0  0
   10.4192    7.3157   15.0955 C   0  0  0  0  0  0  0  0  0  0  0  0
   10.2489    6.4227   23.0218 N   0  0  0  0  0  0  0  0  0  0  0  0
    7.2472    8.0746   23.5050 C   0  0  0  0  0  0  0  0  0  0  0  0
    9.2051    6.9101   23.4604 C   0  0  0  0  0  0  0  0  0  0  0  0
   11.9646    6.0299   21.4251 C   0  0  0  0  0  0  0  0  0  0  0  0
  1  5  1  0
  1 13  1  0
  2 20  2  0
  2 28  1  0
  2 29  1  0
  3 19  4  0
  3 25  4  0
  4 23  4  0
  4 27  1  0
  4 30  4  0
  5 17  1  0
  6  8  1  0
  6 29  1  0
  7 24  4  0
  7 26  4  0
  8 28  1  0
  9 13  2  0
 10 18  1  0
 10 21  4  0
 10 30  4  0
 11 17  2  0
 12 18  1  0
 13 15  1  0
 14 24  1  0
 15 25  1  0
 16 28  2  0
 17 20  1  0
 19 24  4  0
 20 23  1  0
 21 22  4  0
 22 23  4  0
 25 26  4  0
 27 29  2  0
M  END
$$$$

 Created by Python create_sdf_string function

 30 33  0  0  0  0  0  0  0  0999 V2000
    8.3036    9.8571   18.4133 C   0  0  0  0  0  0  0  0  0  0  0  0
    8.3694    7.6612   22.6703 C   0  0  0  0  0  0  0  0  0  0  0  0
    8.4143    6.6863   16.2273 C   0  0  0  0  0  0  0  0  0  0  0  0
   10.7581    6.5674   21.7636 C   0  0  0  0  0  0  0  0  0  0  0  0
    8.4452    8.7960   19.2958 O   0  0  0  0  0  0  0  0  0  0  0  0
    8.7122    6.7842   24.8569 C   0  0  0  0  0  0  0  0  0  0  0  0
   10.3400    6.1726   14.3081 C   0  0  0  0  0  0  0  0  0  0  0  0
    7.4297    7.5873   24.8962 C   0  0  0  0  0  0  0  0  0  0  0  0
    8.1566   10.0536   16.0516 O   0  0  0  0  0  0  0  0  0  0  0  0
   12.4989    6.2074   20.1776 C   0  0  0  0  0  0  0  0  0  0  0  0
    6.9192    9.1053   20.9073 O   0  0  0  0  0  0  0  0  0  0  0  0
   14.3979    6.0729   18.7784 C   0  0  0  0  0  0  0  0  0  0  0  0
    8.6811    9.5354   16.9998 C   0  0  0  0  0  0  0  0  0  0  0  0
    9.2512    4.2713   13.7653 O   0  0  0  0  0  0  0  0  0  0  0  0
    9.6495    8.6317   16.8332 N   0  0  0  0  0  0  0  0  0  0  0  0
    6.2934    8.6988   23.1988 O   0  0  0  0  0  0  0  0  0  0  0  0
    7.9806    8.6543   20.5437 C   0  0  0  0  0  0  0  0  0  0  0  0
   13.7270    5.7144   19.8610 O   0  0  0  0  0  0  0  0  0  0  0  0
    8.3351    5.5235   15.4478 C   0  0  0  0  0  0  0  0  0  0  0  0
    8.7700    7.8434   21.3915 C   0  0  0  0  0  0  0  0  0  0  0  0
   11.7856    6.8851   19.2401 C   0  0  0  0  0  0  0  0  0  0  0  0
   10.5281    7.4276   19.5649 C   0  0  0  0  0  0  0  0  0  0  0  0
   10.0256    7.2907   20.8484 C   0  0  0  0  0  0  0  0  0  0  0  0
    9.3113    5.3049   14.4911 C   0  0  0  0  0  0  0  0  0  0  0  0
    9.4607    7.5646   16.0139 C   0  0  0  0  0  0  0  0  0  0  0  0
   10.4192    7.3157   15.0955 C   0  0  0  0  0  0  0  0  0  0  0  0
   10.2489    6.4227   23.0218 N   0  0  0  0  0  0  0  0  0  0  0  0
    7.2472    8.0746   23.5050 C   0  0  0  0  0  0  0  0  0  0  0  0
    9.2051    6.9101   23.4604 C   0  0  0  0  0  0  0  0  0  0  0  0
   11.9646    6.0299   21.4251 C   0  0  0  0  0  0  0  0  0  0  0  0
  1  5  1  0
  1 13  1  0
  2 20  2  0
  2 28  1  0
  2 29  1  0
  3 19  4  0
  3 25  4  0
  4 23  4  0
  4 27  1  0
  4 30  4  0
  5 17  1  0
  6  8  1  0
  6 29  1  0
  7 24  4  0
  7 26  4  0
  8 28  1  0
  9 13  2  0
 10 18  1  0
 10 21  4  0
 10 30  4  0
 11 17  2  0
 12 18  1  0
 13 15  1  0
 14 24  1  0
 15 25  1  0
 16 28  2  0
 17 20  1  0
 19 24  4  0
 20 23  1  0
 21 22  4  0
 22 23  4  0
 25 26  4  0
 27 29  2  0
M  END
$$$$

 Created by Python create_sdf_string function

 30 33  0  0  0  0  0  0  0  0999 V2000
    8.3036    9.8571   18.4133 C   0  0  0  0  0  0  0  0  0  0  0  0
    8.3694    7.6612   22.6703 C   0  0  0  0  0  0  0  0  0  0  0  0
    8.4143    6.6863   16.2273 C   0  0  0  0  0  0  0  0  0  0  0  0
   10.7581    6.5674   21.7636 C   0  0  0  0  0  0  0  0  0  0  0  0
    8.4452    8.7960   19.2958 O   0  0  0  0  0  0  0  0  0  0  0  0
    8.7122    6.7842   24.8569 C   0  0  0  0  0  0  0  0  0  0  0  0
   10.3400    6.1726   14.3081 C   0  0  0  0  0  0  0  0  0  0  0  0
    7.4297    7.5873   24.8962 C   0  0  0  0  0  0  0  0  0  0  0  0
    8.1566   10.0536   16.0516 O   0  0  0  0  0  0  0  0  0  0  0  0
   12.4989    6.2074   20.1776 C   0  0  0  0  0  0  0  0  0  0  0  0
    6.9192    9.1053   20.9073 O   0  0  0  0  0  0  0  0  0  0  0  0
   14.3979    6.0729   18.7784 C   0  0  0  0  0  0  0  0  0  0  0  0
    8.6811    9.5354   16.9998 C   0  0  0  0  0  0  0  0  0  0  0  0
    9.2512    4.2713   13.7653 O   0  0  0  0  0  0  0  0  0  0  0  0
    9.6495    8.6317   16.8332 N   0  0  0  0  0  0  0  0  0  0  0  0
    6.2934    8.6988   23.1988 O   0  0  0  0  0  0  0  0  0  0  0  0
    7.9806    8.6543   20.5437 C   0  0  0  0  0  0  0  0  0  0  0  0
   13.7270    5.7144   19.8610 O   0  0  0  0  0  0  0  0  0  0  0  0
    8.3351    5.5235   15.4478 C   0  0  0  0  0  0  0  0  0  0  0  0
    8.7700    7.8434   21.3915 C   0  0  0  0  0  0  0  0  0  0  0  0
   11.7856    6.8851   19.2401 C   0  0  0  0  0  0  0  0  0  0  0  0
   10.5281    7.4276   19.5649 C   0  0  0  0  0  0  0  0  0  0  0  0
   10.0256    7.2907   20.8484 C   0  0  0  0  0  0  0  0  0  0  0  0
    9.3113    5.3049   14.4911 C   0  0  0  0  0  0  0  0  0  0  0  0
    9.4607    7.5646   16.0139 C   0  0  0  0  0  0  0  0  0  0  0  0
   10.4192    7.3157   15.0955 C   0  0  0  0  0  0  0  0  0  0  0  0
   10.2489    6.4227   23.0218 N   0  0  0  0  0  0  0  0  0  0  0  0
    7.2472    8.0746   23.5050 C   0  0  0  0  0  0  0  0  0  0  0  0
    9.2051    6.9101   23.4604 C   0  0  0  0  0  0  0  0  0  0  0  0
   11.9646    6.0299   21.4251 C   0  0  0  0  0  0  0  0  0  0  0  0
  1  5  1  0
  1 13  1  0
  2 20  2  0
  2 28  1  0
  2 29  1  0
  3 19  4  0
  3 25  4  0
  4 23  4  0
  4 27  1  0
  4 30  4  0
  5 17  1  0
  6  8  1  0
  6 29  1  0
  7 24  4  0
  7 26  4  0
  8 28  1  0
  9 13  2  0
 10 18  1  0
 10 21  4  0
 10 30  4  0
 11 17  2  0
 12 18  1  0
 13 15  1  0
 14 24  1  0
 15 25  1  0
 16 28  2  0
 17 20  1  0
 19 24  4  0
 20 23  1  0
 21 22  4  0
 22 23  4  0
 25 26  4  0
 27 29  2  0
M  END
$$$$

 Created by Python create_sdf_string function

 30 33  0  0  0  0  0  0  0  0999 V2000
    8.3036    9.8571   18.4133 C   0  0  0  0  0  0  0  0  0  0  0  0
    8.3694    7.6612   22.6703 C   0  0  0  0  0  0  0  0  0  0  0  0
    8.4143    6.6863   16.2273 C   0  0  0  0  0  0  0  0  0  0  0  0
   10.7581    6.5674   21.7636 C   0  0  0  0  0  0  0  0  0  0  0  0
    8.4452    8.7960   19.2958 O   0  0  0  0  0  0  0  0  0  0  0  0
    8.7122    6.7842   24.8569 C   0  0  0  0  0  0  0  0  0  0  0  0
   10.3400    6.1726   14.3081 C   0  0  0  0  0  0  0  0  0  0  0  0
    7.4297    7.5873   24.8962 C   0  0  0  0  0  0  0  0  0  0  0  0
    8.1566   10.0536   16.0516 O   0  0  0  0  0  0  0  0  0  0  0  0
   12.4989    6.2074   20.1776 C   0  0  0  0  0  0  0  0  0  0  0  0
    6.9192    9.1053   20.9073 O   0  0  0  0  0  0  0  0  0  0  0  0
   14.3979    6.0729   18.7784 C   0  0  0  0  0  0  0  0  0  0  0  0
    8.6811    9.5354   16.9998 C   0  0  0  0  0  0  0  0  0  0  0  0
    9.2512    4.2713   13.7653 O   0  0  0  0  0  0  0  0  0  0  0  0
    9.6495    8.6317   16.8332 N   0  0  0  0  0  0  0  0  0  0  0  0
    6.2934    8.6988   23.1988 O   0  0  0  0  0  0  0  0  0  0  0  0
    7.9806    8.6543   20.5437 C   0  0  0  0  0  0  0  0  0  0  0  0
   13.7270    5.7144   19.8610 O   0  0  0  0  0  0  0  0  0  0  0  0
    8.3351    5.5235   15.4478 C   0  0  0  0  0  0  0  0  0  0  0  0
    8.7700    7.8434   21.3915 C   0  0  0  0  0  0  0  0  0  0  0  0
   11.7856    6.8851   19.2401 C   0  0  0  0  0  0  0  0  0  0  0  0
   10.5281    7.4276   19.5649 C   0  0  0  0  0  0  0  0  0  0  0  0
   10.0256    7.2907   20.8484 C   0  0  0  0  0  0  0  0  0  0  0  0
    9.3113    5.3049   14.4911 C   0  0  0  0  0  0  0  0  0  0  0  0
    9.4607    7.5646   16.0139 C   0  0  0  0  0  0  0  0  0  0  0  0
   10.4192    7.3157   15.0955 C   0  0  0  0  0  0  0  0  0  0  0  0
   10.2489    6.4227   23.0218 N   0  0  0  0  0  0  0  0  0  0  0  0
    7.2472    8.0746   23.5050 C   0  0  0  0  0  0  0  0  0  0  0  0
    9.2051    6.9101   23.4604 C   0  0  0  0  0  0  0  0  0  0  0  0
   11.9646    6.0299   21.4251 C   0  0  0  0  0  0  0  0  0  0  0  0
  1  5  1  0
  1 13  1  0
  2 20  2  0
  2 28  1  0
  2 29  1  0
  3 19  4  0
  3 25  4  0
  4 23  4  0
  4 27  1  0
  4 30  4  0
  5 17  1  0
  6  8  1  0
  6 29  1  0
  7 24  4  0
  7 26  4  0
  8 28  1  0
  9 13  2  0
 10 18  1  0
 10 21  4  0
 10 30  4  0
 11 17  2  0
 12 18  1  0
 13 15  1  0
 14 24  1  0
 15 25  1  0
 16 28  2  0
 17 20  1  0
 19 24  4  0
 20 23  1  0
 21 22  4  0
 22 23  4  0
 25 26  4  0
 27 29  2  0
M  END
$$$$

 Created by Python create_sdf_string function

 30 33  0  0  0  0  0  0  0  0999 V2000
    8.3036    9.8571   18.4133 C   0  0  0  0  0  0  0  0  0  0  0  0
    8.3694    7.6612   22.6703 C   0  0  0  0  0  0  0  0  0  0  0  0
    8.4143    6.6863   16.2273 C   0  0  0  0  0  0  0  0  0  0  0  0
   10.7581    6.5674   21.7636 C   0  0  0  0  0  0  0  0  0  0  0  0
    8.4452    8.7960   19.2958 O   0  0  0  0  0  0  0  0  0  0  0  0
    8.7122    6.7842   24.8569 C   0  0  0  0  0  0  0  0  0  0  0  0
   10.3400    6.1726   14.3081 C   0  0  0  0  0  0  0  0  0  0  0  0
    7.4297    7.5873   24.8962 C   0  0  0  0  0  0  0  0  0  0  0  0
    8.1566   10.0536   16.0516 O   0  0  0  0  0  0  0  0  0  0  0  0
   12.4989    6.2074   20.1776 C   0  0  0  0  0  0  0  0  0  0  0  0
    6.9192    9.1053   20.9073 O   0  0  0  0  0  0  0  0  0  0  0  0
   14.3979    6.0729   18.7784 C   0  0  0  0  0  0  0  0  0  0  0  0
    8.6811    9.5354   16.9998 C   0  0  0  0  0  0  0  0  0  0  0  0
    9.2512    4.2713   13.7653 O   0  0  0  0  0  0  0  0  0  0  0  0
    9.6495    8.6317   16.8332 N   0  0  0  0  0  0  0  0  0  0  0  0
    6.2934    8.6988   23.1988 O   0  0  0  0  0  0  0  0  0  0  0  0
    7.9806    8.6543   20.5437 C   0  0  0  0  0  0  0  0  0  0  0  0
   13.7270    5.7144   19.8610 O   0  0  0  0  0  0  0  0  0  0  0  0
    8.3351    5.5235   15.4478 C   0  0  0  0  0  0  0  0  0  0  0  0
    8.7700    7.8434   21.3915 C   0  0  0  0  0  0  0  0  0  0  0  0
   11.7856    6.8851   19.2401 C   0  0  0  0  0  0  0  0  0  0  0  0
   10.5281    7.4276   19.5649 C   0  0  0  0  0  0  0  0  0  0  0  0
   10.0256    7.2907   20.8484 C   0  0  0  0  0  0  0  0  0  0  0  0
    9.3113    5.3049   14.4911 C   0  0  0  0  0  0  0  0  0  0  0  0
    9.4607    7.5646   16.0139 C   0  0  0  0  0  0  0  0  0  0  0  0
   10.4192    7.3157   15.0955 C   0  0  0  0  0  0  0  0  0  0  0  0
   10.2489    6.4227   23.0218 N   0  0  0  0  0  0  0  0  0  0  0  0
    7.2472    8.0746   23.5050 C   0  0  0  0  0  0  0  0  0  0  0  0
    9.2051    6.9101   23.4604 C   0  0  0  0  0  0  0  0  0  0  0  0
   11.9646    6.0299   21.4251 C   0  0  0  0  0  0  0  0  0  0  0  0
  1  5  1  0
  1 13  1  0
  2 20  2  0
  2 28  1  0
  2 29  1  0
  3 19  4  0
  3 25  4  0
  4 23  4  0
  4 27  1  0
  4 30  4  0
  5 17  1  0
  6  8  1  0
  6 29  1  0
  7 24  4  0
  7 26  4  0
  8 28  1  0
  9 13  2  0
 10 18  1  0
 10 21  4  0
 10 30  4  0
 11 17  2  0
 12 18  1  0
 13 15  1  0
 14 24  1  0
 15 25  1  0
 16 28  2  0
 17 20  1  0
 19 24  4  0
 20 23  1  0
 21 22  4  0
 22 23  4  0
 25 26  4  0
 27 29  2  0
M  END
$$$$

 Created by Python create_sdf_string function

 30 33  0  0  0  0  0  0  0  0999 V2000
    8.3036    9.8571   18.4133 C   0  0  0  0  0  0  0  0  0  0  0  0
    8.3694    7.6612   22.6703 C   0  0  0  0  0  0  0  0  0  0  0  0
    8.4143    6.6863   16.2273 C   0  0  0  0  0  0  0  0  0  0  0  0
   10.7581    6.5674   21.7636 C   0  0  0  0  0  0  0  0  0  0  0  0
    8.4452    8.7960   19.2958 O   0  0  0  0  0  0  0  0  0  0  0  0
    8.7122    6.7842   24.8569 C   0  0  0  0  0  0  0  0  0  0  0  0
   10.3400    6.1726   14.3081 C   0  0  0  0  0  0  0  0  0  0  0  0
    7.4297    7.5873   24.8962 C   0  0  0  0  0  0  0  0  0  0  0  0
    8.1566   10.0536   16.0516 O   0  0  0  0  0  0  0  0  0  0  0  0
   12.4989    6.2074   20.1776 C   0  0  0  0  0  0  0  0  0  0  0  0
    6.9192    9.1053   20.9073 O   0  0  0  0  0  0  0  0  0  0  0  0
   14.3979    6.0729   18.7784 C   0  0  0  0  0  0  0  0  0  0  0  0
    8.6811    9.5354   16.9998 C   0  0  0  0  0  0  0  0  0  0  0  0
    9.2512    4.2713   13.7653 O   0  0  0  0  0  0  0  0  0  0  0  0
    9.6495    8.6317   16.8332 N   0  0  0  0  0  0  0  0  0  0  0  0
    6.2934    8.6988   23.1988 O   0  0  0  0  0  0  0  0  0  0  0  0
    7.9806    8.6543   20.5437 C   0  0  0  0  0  0  0  0  0  0  0  0
   13.7270    5.7144   19.8610 O   0  0  0  0  0  0  0  0  0  0  0  0
    8.3351    5.5235   15.4478 C   0  0  0  0  0  0  0  0  0  0  0  0
    8.7700    7.8434   21.3915 C   0  0  0  0  0  0  0  0  0  0  0  0
   11.7856    6.8851   19.2401 C   0  0  0  0  0  0  0  0  0  0  0  0
   10.5281    7.4276   19.5649 C   0  0  0  0  0  0  0  0  0  0  0  0
   10.0256    7.2907   20.8484 C   0  0  0  0  0  0  0  0  0  0  0  0
    9.3113    5.3049   14.4911 C   0  0  0  0  0  0  0  0  0  0  0  0
    9.4607    7.5646   16.0139 C   0  0  0  0  0  0  0  0  0  0  0  0
   10.4192    7.3157   15.0955 C   0  0  0  0  0  0  0  0  0  0  0  0
   10.2489    6.4227   23.0218 N   0  0  0  0  0  0  0  0  0  0  0  0
    7.2472    8.0746   23.5050 C   0  0  0  0  0  0  0  0  0  0  0  0
    9.2051    6.9101   23.4604 C   0  0  0  0  0  0  0  0  0  0  0  0
   11.9646    6.0299   21.4251 C   0  0  0  0  0  0  0  0  0  0  0  0
  1  5  1  0
  1 13  1  0
  2 20  2  0
  2 28  1  0
  2 29  1  0
  3 19  4  0
  3 25  4  0
  4 23  4  0
  4 27  1  0
  4 30  4  0
  5 17  1  0
  6  8  1  0
  6 29  1  0
  7 24  4  0
  7 26  4  0
  8 28  1  0
  9 13  2  0
 10 18  1  0
 10 21  4  0
 10 30  4  0
 11 17  2  0
 12 18  1  0
 13 15  1  0
 14 24  1  0
 15 25  1  0
 16 28  2  0
 17 20  1  0
 19 24  4  0
 20 23  1  0
 21 22  4  0
 22 23  4  0
 25 26  4  0
 27 29  2  0
M  END
$$$$

 Created by Python create_sdf_string function

 30 33  0  0  0  0  0  0  0  0999 V2000
    8.3036    9.8571   18.4133 C   0  0  0  0  0  0  0  0  0  0  0  0
    8.3694    7.6612   22.6703 C   0  0  0  0  0  0  0  0  0  0  0  0
    8.4143    6.6863   16.2273 C   0  0  0  0  0  0  0  0  0  0  0  0
   10.7581    6.5674   21.7636 C   0  0  0  0  0  0  0  0  0  0  0  0
    8.4452    8.7960   19.2958 O   0  0  0  0  0  0  0  0  0  0  0  0
    8.7122    6.7842   24.8569 C   0  0  0  0  0  0  0  0  0  0  0  0
   10.3400    6.1726   14.3081 C   0  0  0  0  0  0  0  0  0  0  0  0
    7.4297    7.5873   24.8962 C   0  0  0  0  0  0  0  0  0  0  0  0
    8.1566   10.0536   16.0516 O   0  0  0  0  0  0  0  0  0  0  0  0
   12.4989    6.2074   20.1776 C   0  0  0  0  0  0  0  0  0  0  0  0
    6.9192    9.1053   20.9073 O   0  0  0  0  0  0  0  0  0  0  0  0
   14.3979    6.0729   18.7784 C   0  0  0  0  0  0  0  0  0  0  0  0
    8.6811    9.5354   16.9998 C   0  0  0  0  0  0  0  0  0  0  0  0
    9.2512    4.2713   13.7653 O   0  0  0  0  0  0  0  0  0  0  0  0
    9.6495    8.6317   16.8332 N   0  0  0  0  0  0  0  0  0  0  0  0
    6.2934    8.6988   23.1988 O   0  0  0  0  0  0  0  0  0  0  0  0
    7.9806    8.6543   20.5437 C   0  0  0  0  0  0  0  0  0  0  0  0
   13.7270    5.7144   19.8610 O   0  0  0  0  0  0  0  0  0  0  0  0
    8.3351    5.5235   15.4478 C   0  0  0  0  0  0  0  0  0  0  0  0
    8.7700    7.8434   21.3915 C   0  0  0  0  0  0  0  0  0  0  0  0
   11.7856    6.8851   19.2401 C   0  0  0  0  0  0  0  0  0  0  0  0
   10.5281    7.4276   19.5649 C   0  0  0  0  0  0  0  0  0  0  0  0
   10.0256    7.2907   20.8484 C   0  0  0  0  0  0  0  0  0  0  0  0
    9.3113    5.3049   14.4911 C   0  0  0  0  0  0  0  0  0  0  0  0
    9.4607    7.5646   16.0139 C   0  0  0  0  0  0  0  0  0  0  0  0
   10.4192    7.3157   15.0955 C   0  0  0  0  0  0  0  0  0  0  0  0
   10.2489    6.4227   23.0218 N   0  0  0  0  0  0  0  0  0  0  0  0
    7.2472    8.0746   23.5050 C   0  0  0  0  0  0  0  0  0  0  0  0
    9.2051    6.9101   23.4604 C   0  0  0  0  0  0  0  0  0  0  0  0
   11.9646    6.0299   21.4251 C   0  0  0  0  0  0  0  0  0  0  0  0
  1  5  1  0
  1 13  1  0
  2 20  2  0
  2 28  1  0
  2 29  1  0
  3 19  4  0
  3 25  4  0
  4 23  4  0
  4 27  1  0
  4 30  4  0
  5 17  1  0
  6  8  1  0
  6 29  1  0
  7 24  4  0
  7 26  4  0
  8 28  1  0
  9 13  2  0
 10 18  1  0
 10 21  4  0
 10 30  4  0
 11 17  2  0
 12 18  1  0
 13 15  1  0
 14 24  1  0
 15 25  1  0
 16 28  2  0
 17 20  1  0
 19 24  4  0
 20 23  1  0
 21 22  4  0
 22 23  4  0
 25 26  4  0
 27 29  2  0
M  END
$$$$

 Created by Python create_sdf_string function

 30 33  0  0  0  0  0  0  0  0999 V2000
    8.3036    9.8571   18.4133 C   0  0  0  0  0  0  0  0  0  0  0  0
    8.3694    7.6612   22.6703 C   0  0  0  0  0  0  0  0  0  0  0  0
    8.4143    6.6863   16.2273 C   0  0  0  0  0  0  0  0  0  0  0  0
   10.7581    6.5674   21.7636 C   0  0  0  0  0  0  0  0  0  0  0  0
    8.4452    8.7960   19.2958 O   0  0  0  0  0  0  0  0  0  0  0  0
    8.7122    6.7842   24.8569 C   0  0  0  0  0  0  0  0  0  0  0  0
   10.3400    6.1726   14.3081 C   0  0  0  0  0  0  0  0  0  0  0  0
    7.4297    7.5873   24.8962 C   0  0  0  0  0  0  0  0  0  0  0  0
    8.1566   10.0536   16.0516 O   0  0  0  0  0  0  0  0  0  0  0  0
   12.4989    6.2074   20.1776 C   0  0  0  0  0  0  0  0  0  0  0  0
    6.9192    9.1053   20.9073 O   0  0  0  0  0  0  0  0  0  0  0  0
   14.3979    6.0729   18.7784 C   0  0  0  0  0  0  0  0  0  0  0  0
    8.6811    9.5354   16.9998 C   0  0  0  0  0  0  0  0  0  0  0  0
    9.2512    4.2713   13.7653 O   0  0  0  0  0  0  0  0  0  0  0  0
    9.6495    8.6317   16.8332 N   0  0  0  0  0  0  0  0  0  0  0  0
    6.2934    8.6988   23.1988 O   0  0  0  0  0  0  0  0  0  0  0  0
    7.9806    8.6543   20.5437 C   0  0  0  0  0  0  0  0  0  0  0  0
   13.7270    5.7144   19.8610 O   0  0  0  0  0  0  0  0  0  0  0  0
    8.3351    5.5235   15.4478 C   0  0  0  0  0  0  0  0  0  0  0  0
    8.7700    7.8434   21.3915 C   0  0  0  0  0  0  0  0  0  0  0  0
   11.7856    6.8851   19.2401 C   0  0  0  0  0  0  0  0  0  0  0  0
   10.5281    7.4276   19.5649 C   0  0  0  0  0  0  0  0  0  0  0  0
   10.0256    7.2907   20.8484 C   0  0  0  0  0  0  0  0  0  0  0  0
    9.3113    5.3049   14.4911 C   0  0  0  0  0  0  0  0  0  0  0  0
    9.4607    7.5646   16.0139 C   0  0  0  0  0  0  0  0  0  0  0  0
   10.4192    7.3157   15.0955 C   0  0  0  0  0  0  0  0  0  0  0  0
   10.2489    6.4227   23.0218 N   0  0  0  0  0  0  0  0  0  0  0  0
    7.2472    8.0746   23.5050 C   0  0  0  0  0  0  0  0  0  0  0  0
    9.2051    6.9101   23.4604 C   0  0  0  0  0  0  0  0  0  0  0  0
   11.9646    6.0299   21.4251 C   0  0  0  0  0  0  0  0  0  0  0  0
  1  5  1  0
  1 13  1  0
  2 20  2  0
  2 28  1  0
  2 29  1  0
  3 19  4  0
  3 25  4  0
  4 23  4  0
  4 27  1  0
  4 30  4  0
  5 17  1  0
  6  8  1  0
  6 29  1  0
  7 24  4  0
  7 26  4  0
  8 28  1  0
  9 13  2  0
 10 18  1  0
 10 21  4  0
 10 30  4  0
 11 17  2  0
 12 18  1  0
 13 15  1  0
 14 24  1  0
 15 25  1  0
 16 28  2  0
 17 20  1  0
 19 24  4  0
 20 23  1  0
 21 22  4  0
 22 23  4  0
 25 26  4  0
 27 29  2  0
M  END
$$$$

 Created by Python create_sdf_string function

 30 33  0  0  0  0  0  0  0  0999 V2000
    8.3036    9.8571   18.4133 C   0  0  0  0  0  0  0  0  0  0  0  0
    8.3694    7.6612   22.6703 C   0  0  0  0  0  0  0  0  0  0  0  0
    8.4143    6.6863   16.2273 C   0  0  0  0  0  0  0  0  0  0  0  0
   10.7581    6.5674   21.7636 C   0  0  0  0  0  0  0  0  0  0  0  0
    8.4452    8.7960   19.2958 O   0  0  0  0  0  0  0  0  0  0  0  0
    8.7122    6.7842   24.8569 C   0  0  0  0  0  0  0  0  0  0  0  0
   10.3400    6.1726   14.3081 C   0  0  0  0  0  0  0  0  0  0  0  0
    7.4297    7.5873   24.8962 C   0  0  0  0  0  0  0  0  0  0  0  0
    8.1566   10.0536   16.0516 O   0  0  0  0  0  0  0  0  0  0  0  0
   12.4989    6.2074   20.1776 C   0  0  0  0  0  0  0  0  0  0  0  0
    6.9192    9.1053   20.9073 O   0  0  0  0  0  0  0  0  0  0  0  0
   14.3979    6.0729   18.7784 C   0  0  0  0  0  0  0  0  0  0  0  0
    8.6811    9.5354   16.9998 C   0  0  0  0  0  0  0  0  0  0  0  0
    9.2512    4.2713   13.7653 O   0  0  0  0  0  0  0  0  0  0  0  0
    9.6495    8.6317   16.8332 N   0  0  0  0  0  0  0  0  0  0  0  0
    6.2934    8.6988   23.1988 O   0  0  0  0  0  0  0  0  0  0  0  0
    7.9806    8.6543   20.5437 C   0  0  0  0  0  0  0  0  0  0  0  0
   13.7270    5.7144   19.8610 O   0  0  0  0  0  0  0  0  0  0  0  0
    8.3351    5.5235   15.4478 C   0  0  0  0  0  0  0  0  0  0  0  0
    8.7700    7.8434   21.3915 C   0  0  0  0  0  0  0  0  0  0  0  0
   11.7856    6.8851   19.2401 C   0  0  0  0  0  0  0  0  0  0  0  0
   10.5281    7.4276   19.5649 C   0  0  0  0  0  0  0  0  0  0  0  0
   10.0256    7.2907   20.8484 C   0  0  0  0  0  0  0  0  0  0  0  0
    9.3113    5.3049   14.4911 C   0  0  0  0  0  0  0  0  0  0  0  0
    9.4607    7.5646   16.0139 C   0  0  0  0  0  0  0  0  0  0  0  0
   10.4192    7.3157   15.0955 C   0  0  0  0  0  0  0  0  0  0  0  0
   10.2489    6.4227   23.0218 N   0  0  0  0  0  0  0  0  0  0  0  0
    7.2472    8.0746   23.5050 C   0  0  0  0  0  0  0  0  0  0  0  0
    9.2051    6.9101   23.4604 C   0  0  0  0  0  0  0  0  0  0  0  0
   11.9646    6.0299   21.4251 C   0  0  0  0  0  0  0  0  0  0  0  0
  1  5  1  0
  1 13  1  0
  2 20  2  0
  2 28  1  0
  2 29  1  0
  3 19  4  0
  3 25  4  0
  4 23  4  0
  4 27  1  0
  4 30  4  0
  5 17  1  0
  6  8  1  0
  6 29  1  0
  7 24  4  0
  7 26  4  0
  8 28  1  0
  9 13  2  0
 10 18  1  0
 10 21  4  0
 10 30  4  0
 11 17  2  0
 12 18  1  0
 13 15  1  0
 14 24  1  0
 15 25  1  0
 16 28  2  0
 17 20  1  0
 19 24  4  0
 20 23  1  0
 21 22  4  0
 22 23  4  0
 25 26  4  0
 27 29  2  0
M  END
$$$$

 Created by Python create_sdf_string function

 30 33  0  0  0  0  0  0  0  0999 V2000
    8.3036    9.8571   18.4133 C   0  0  0  0  0  0  0  0  0  0  0  0
    8.3694    7.6612   22.6703 C   0  0  0  0  0  0  0  0  0  0  0  0
    8.4143    6.6863   16.2273 C   0  0  0  0  0  0  0  0  0  0  0  0
   10.7581    6.5674   21.7636 C   0  0  0  0  0  0  0  0  0  0  0  0
    8.4452    8.7960   19.2958 O   0  0  0  0  0  0  0  0  0  0  0  0
    8.7122    6.7842   24.8569 C   0  0  0  0  0  0  0  0  0  0  0  0
   10.3400    6.1726   14.3081 C   0  0  0  0  0  0  0  0  0  0  0  0
    7.4297    7.5873   24.8962 C   0  0  0  0  0  0  0  0  0  0  0  0
    8.1566   10.0536   16.0516 O   0  0  0  0  0  0  0  0  0  0  0  0
   12.4989    6.2074   20.1776 C   0  0  0  0  0  0  0  0  0  0  0  0
    6.9192    9.1053   20.9073 O   0  0  0  0  0  0  0  0  0  0  0  0
   14.3979    6.0729   18.7784 C   0  0  0  0  0  0  0  0  0  0  0  0
    8.6811    9.5354   16.9998 C   0  0  0  0  0  0  0  0  0  0  0  0
    9.2512    4.2713   13.7653 O   0  0  0  0  0  0  0  0  0  0  0  0
    9.6495    8.6317   16.8332 N   0  0  0  0  0  0  0  0  0  0  0  0
    6.2934    8.6988   23.1988 O   0  0  0  0  0  0  0  0  0  0  0  0
    7.9806    8.6543   20.5437 C   0  0  0  0  0  0  0  0  0  0  0  0
   13.7270    5.7144   19.8610 O   0  0  0  0  0  0  0  0  0  0  0  0
    8.3351    5.5235   15.4478 C   0  0  0  0  0  0  0  0  0  0  0  0
    8.7700    7.8434   21.3915 C   0  0  0  0  0  0  0  0  0  0  0  0
   11.7856    6.8851   19.2401 C   0  0  0  0  0  0  0  0  0  0  0  0
   10.5281    7.4276   19.5649 C   0  0  0  0  0  0  0  0  0  0  0  0
   10.0256    7.2907   20.8484 C   0  0  0  0  0  0  0  0  0  0  0  0
    9.3113    5.3049   14.4911 C   0  0  0  0  0  0  0  0  0  0  0  0
    9.4607    7.5646   16.0139 C   0  0  0  0  0  0  0  0  0  0  0  0
   10.4192    7.3157   15.0955 C   0  0  0  0  0  0  0  0  0  0  0  0
   10.2489    6.4227   23.0218 N   0  0  0  0  0  0  0  0  0  0  0  0
    7.2472    8.0746   23.5050 C   0  0  0  0  0  0  0  0  0  0  0  0
    9.2051    6.9101   23.4604 C   0  0  0  0  0  0  0  0  0  0  0  0
   11.9646    6.0299   21.4251 C   0  0  0  0  0  0  0  0  0  0  0  0
  1  5  1  0
  1 13  1  0
  2 20  2  0
  2 28  1  0
  2 29  1  0
  3 19  4  0
  3 25  4  0
  4 23  4  0
  4 27  1  0
  4 30  4  0
  5 17  1  0
  6  8  1  0
  6 29  1  0
  7 24  4  0
  7 26  4  0
  8 28  1  0
  9 13  2  0
 10 18  1  0
 10 21  4  0
 10 30  4  0
 11 17  2  0
 12 18  1  0
 13 15  1  0
 14 24  1  0
 15 25  1  0
 16 28  2  0
 17 20  1  0
 19 24  4  0
 20 23  1  0
 21 22  4  0
 22 23  4  0
 25 26  4  0
 27 29  2  0
M  END
$$$$

 Created by Python create_sdf_string function

 30 33  0  0  0  0  0  0  0  0999 V2000
    8.3036    9.8571   18.4133 C   0  0  0  0  0  0  0  0  0  0  0  0
    8.3694    7.6612   22.6703 C   0  0  0  0  0  0  0  0  0  0  0  0
    8.4143    6.6863   16.2273 C   0  0  0  0  0  0  0  0  0  0  0  0
   10.7581    6.5674   21.7636 C   0  0  0  0  0  0  0  0  0  0  0  0
    8.4452    8.7960   19.2958 O   0  0  0  0  0  0  0  0  0  0  0  0
    8.7122    6.7842   24.8569 C   0  0  0  0  0  0  0  0  0  0  0  0
   10.3400    6.1726   14.3081 C   0  0  0  0  0  0  0  0  0  0  0  0
    7.4297    7.5873   24.8962 C   0  0  0  0  0  0  0  0  0  0  0  0
    8.1566   10.0536   16.0516 O   0  0  0  0  0  0  0  0  0  0  0  0
   12.4989    6.2074   20.1776 C   0  0  0  0  0  0  0  0  0  0  0  0
    6.9192    9.1053   20.9073 O   0  0  0  0  0  0  0  0  0  0  0  0
   14.3979    6.0729   18.7784 C   0  0  0  0  0  0  0  0  0  0  0  0
    8.6811    9.5354   16.9998 C   0  0  0  0  0  0  0  0  0  0  0  0
    9.2512    4.2713   13.7653 O   0  0  0  0  0  0  0  0  0  0  0  0
    9.6495    8.6317   16.8332 N   0  0  0  0  0  0  0  0  0  0  0  0
    6.2934    8.6988   23.1988 O   0  0  0  0  0  0  0  0  0  0  0  0
    7.9806    8.6543   20.5437 C   0  0  0  0  0  0  0  0  0  0  0  0
   13.7270    5.7144   19.8610 O   0  0  0  0  0  0  0  0  0  0  0  0
    8.3351    5.5235   15.4478 C   0  0  0  0  0  0  0  0  0  0  0  0
    8.7700    7.8434   21.3915 C   0  0  0  0  0  0  0  0  0  0  0  0
   11.7856    6.8851   19.2401 C   0  0  0  0  0  0  0  0  0  0  0  0
   10.5281    7.4276   19.5649 C   0  0  0  0  0  0  0  0  0  0  0  0
   10.0256    7.2907   20.8484 C   0  0  0  0  0  0  0  0  0  0  0  0
    9.3113    5.3049   14.4911 C   0  0  0  0  0  0  0  0  0  0  0  0
    9.4607    7.5646   16.0139 C   0  0  0  0  0  0  0  0  0  0  0  0
   10.4192    7.3157   15.0955 C   0  0  0  0  0  0  0  0  0  0  0  0
   10.2489    6.4227   23.0218 N   0  0  0  0  0  0  0  0  0  0  0  0
    7.2472    8.0746   23.5050 C   0  0  0  0  0  0  0  0  0  0  0  0
    9.2051    6.9101   23.4604 C   0  0  0  0  0  0  0  0  0  0  0  0
   11.9646    6.0299   21.4251 C   0  0  0  0  0  0  0  0  0  0  0  0
  1  5  1  0
  1 13  1  0
  2 20  2  0
  2 28  1  0
  2 29  1  0
  3 19  4  0
  3 25  4  0
  4 23  4  0
  4 27  1  0
  4 30  4  0
  5 17  1  0
  6  8  1  0
  6 29  1  0
  7 24  4  0
  7 26  4  0
  8 28  1  0
  9 13  2  0
 10 18  1  0
 10 21  4  0
 10 30  4  0
 11 17  2  0
 12 18  1  0
 13 15  1  0
 14 24  1  0
 15 25  1  0
 16 28  2  0
 17 20  1  0
 19 24  4  0
 20 23  1  0
 21 22  4  0
 22 23  4  0
 25 26  4  0
 27 29  2  0
M  END
$$$$

 Created by Python create_sdf_string function

 30 33  0  0  0  0  0  0  0  0999 V2000
    8.3036    9.8571   18.4133 C   0  0  0  0  0  0  0  0  0  0  0  0
    8.3694    7.6612   22.6703 C   0  0  0  0  0  0  0  0  0  0  0  0
    8.4143    6.6863   16.2273 C   0  0  0  0  0  0  0  0  0  0  0  0
   10.7581    6.5674   21.7636 C   0  0  0  0  0  0  0  0  0  0  0  0
    8.4452    8.7960   19.2958 O   0  0  0  0  0  0  0  0  0  0  0  0
    8.7122    6.7842   24.8569 C   0  0  0  0  0  0  0  0  0  0  0  0
   10.3400    6.1726   14.3081 C   0  0  0  0  0  0  0  0  0  0  0  0
    7.4297    7.5873   24.8962 C   0  0  0  0  0  0  0  0  0  0  0  0
    8.1566   10.0536   16.0516 O   0  0  0  0  0  0  0  0  0  0  0  0
   12.4989    6.2074   20.1776 C   0  0  0  0  0  0  0  0  0  0  0  0
    6.9192    9.1053   20.9073 O   0  0  0  0  0  0  0  0  0  0  0  0
   14.3979    6.0729   18.7784 C   0  0  0  0  0  0  0  0  0  0  0  0
    8.6811    9.5354   16.9998 C   0  0  0  0  0  0  0  0  0  0  0  0
    9.2512    4.2713   13.7653 O   0  0  0  0  0  0  0  0  0  0  0  0
    9.6495    8.6317   16.8332 N   0  0  0  0  0  0  0  0  0  0  0  0
    6.2934    8.6988   23.1988 O   0  0  0  0  0  0  0  0  0  0  0  0
    7.9806    8.6543   20.5437 C   0  0  0  0  0  0  0  0  0  0  0  0
   13.7270    5.7144   19.8610 O   0  0  0  0  0  0  0  0  0  0  0  0
    8.3351    5.5235   15.4478 C   0  0  0  0  0  0  0  0  0  0  0  0
    8.7700    7.8434   21.3915 C   0  0  0  0  0  0  0  0  0  0  0  0
   11.7856    6.8851   19.2401 C   0  0  0  0  0  0  0  0  0  0  0  0
   10.5281    7.4276   19.5649 C   0  0  0  0  0  0  0  0  0  0  0  0
   10.0256    7.2907   20.8484 C   0  0  0  0  0  0  0  0  0  0  0  0
    9.3113    5.3049   14.4911 C   0  0  0  0  0  0  0  0  0  0  0  0
    9.4607    7.5646   16.0139 C   0  0  0  0  0  0  0  0  0  0  0  0
   10.4192    7.3157   15.0955 C   0  0  0  0  0  0  0  0  0  0  0  0
   10.2489    6.4227   23.0218 N   0  0  0  0  0  0  0  0  0  0  0  0
    7.2472    8.0746   23.5050 C   0  0  0  0  0  0  0  0  0  0  0  0
    9.2051    6.9101   23.4604 C   0  0  0  0  0  0  0  0  0  0  0  0
   11.9646    6.0299   21.4251 C   0  0  0  0  0  0  0  0  0  0  0  0
  1  5  1  0
  1 13  1  0
  2 20  2  0
  2 28  1  0
  2 29  1  0
  3 19  4  0
  3 25  4  0
  4 23  4  0
  4 27  1  0
  4 30  4  0
  5 17  1  0
  6  8  1  0
  6 29  1  0
  7 24  4  0
  7 26  4  0
  8 28  1  0
  9 13  2  0
 10 18  1  0
 10 21  4  0
 10 30  4  0
 11 17  2  0
 12 18  1  0
 13 15  1  0
 14 24  1  0
 15 25  1  0
 16 28  2  0
 17 20  1  0
 19 24  4  0
 20 23  1  0
 21 22  4  0
 22 23  4  0
 25 26  4  0
 27 29  2  0
M  END
$$$$

 Created by Python create_sdf_string function

 30 33  0  0  0  0  0  0  0  0999 V2000
    8.3036    9.8571   18.4133 C   0  0  0  0  0  0  0  0  0  0  0  0
    8.3694    7.6612   22.6703 C   0  0  0  0  0  0  0  0  0  0  0  0
    8.4143    6.6863   16.2273 C   0  0  0  0  0  0  0  0  0  0  0  0
   10.7581    6.5674   21.7636 C   0  0  0  0  0  0  0  0  0  0  0  0
    8.4452    8.7960   19.2958 O   0  0  0  0  0  0  0  0  0  0  0  0
    8.7122    6.7842   24.8569 C   0  0  0  0  0  0  0  0  0  0  0  0
   10.3400    6.1726   14.3081 C   0  0  0  0  0  0  0  0  0  0  0  0
    7.4297    7.5873   24.8962 C   0  0  0  0  0  0  0  0  0  0  0  0
    8.1566   10.0536   16.0516 O   0  0  0  0  0  0  0  0  0  0  0  0
   12.4989    6.2074   20.1776 C   0  0  0  0  0  0  0  0  0  0  0  0
    6.9192    9.1053   20.9073 O   0  0  0  0  0  0  0  0  0  0  0  0
   14.3979    6.0729   18.7784 C   0  0  0  0  0  0  0  0  0  0  0  0
    8.6811    9.5354   16.9998 C   0  0  0  0  0  0  0  0  0  0  0  0
    9.2512    4.2713   13.7653 O   0  0  0  0  0  0  0  0  0  0  0  0
    9.6495    8.6317   16.8332 N   0  0  0  0  0  0  0  0  0  0  0  0
    6.2934    8.6988   23.1988 O   0  0  0  0  0  0  0  0  0  0  0  0
    7.9806    8.6543   20.5437 C   0  0  0  0  0  0  0  0  0  0  0  0
   13.7270    5.7144   19.8610 O   0  0  0  0  0  0  0  0  0  0  0  0
    8.3351    5.5235   15.4478 C   0  0  0  0  0  0  0  0  0  0  0  0
    8.7700    7.8434   21.3915 C   0  0  0  0  0  0  0  0  0  0  0  0
   11.7856    6.8851   19.2401 C   0  0  0  0  0  0  0  0  0  0  0  0
   10.5281    7.4276   19.5649 C   0  0  0  0  0  0  0  0  0  0  0  0
   10.0256    7.2907   20.8484 C   0  0  0  0  0  0  0  0  0  0  0  0
    9.3113    5.3049   14.4911 C   0  0  0  0  0  0  0  0  0  0  0  0
    9.4607    7.5646   16.0139 C   0  0  0  0  0  0  0  0  0  0  0  0
   10.4192    7.3157   15.0955 C   0  0  0  0  0  0  0  0  0  0  0  0
   10.2489    6.4227   23.0218 N   0  0  0  0  0  0  0  0  0  0  0  0
    7.2472    8.0746   23.5050 C   0  0  0  0  0  0  0  0  0  0  0  0
    9.2051    6.9101   23.4604 C   0  0  0  0  0  0  0  0  0  0  0  0
   11.9646    6.0299   21.4251 C   0  0  0  0  0  0  0  0  0  0  0  0
  1  5  1  0
  1 13  1  0
  2 20  2  0
  2 28  1  0
  2 29  1  0
  3 19  4  0
  3 25  4  0
  4 23  4  0
  4 27  1  0
  4 30  4  0
  5 17  1  0
  6  8  1  0
  6 29  1  0
  7 24  4  0
  7 26  4  0
  8 28  1  0
  9 13  2  0
 10 18  1  0
 10 21  4  0
 10 30  4  0
 11 17  2  0
 12 18  1  0
 13 15  1  0
 14 24  1  0
 15 25  1  0
 16 28  2  0
 17 20  1  0
 19 24  4  0
 20 23  1  0
 21 22  4  0
 22 23  4  0
 25 26  4  0
 27 29  2  0
M  END
$$$$

 Created by Python create_sdf_string function

 30 33  0  0  0  0  0  0  0  0999 V2000
    8.3036    9.8571   18.4133 C   0  0  0  0  0  0  0  0  0  0  0  0
    8.3694    7.6612   22.6703 C   0  0  0  0  0  0  0  0  0  0  0  0
    8.4143    6.6863   16.2273 C   0  0  0  0  0  0  0  0  0  0  0  0
   10.7581    6.5674   21.7636 C   0  0  0  0  0  0  0  0  0  0  0  0
    8.4452    8.7960   19.2958 O   0  0  0  0  0  0  0  0  0  0  0  0
    8.7122    6.7842   24.8569 C   0  0  0  0  0  0  0  0  0  0  0  0
   10.3400    6.1726   14.3081 C   0  0  0  0  0  0  0  0  0  0  0  0
    7.4297    7.5873   24.8962 C   0  0  0  0  0  0  0  0  0  0  0  0
    8.1566   10.0536   16.0516 O   0  0  0  0  0  0  0  0  0  0  0  0
   12.4989    6.2074   20.1776 C   0  0  0  0  0  0  0  0  0  0  0  0
    6.9192    9.1053   20.9073 O   0  0  0  0  0  0  0  0  0  0  0  0
   14.3979    6.0729   18.7784 C   0  0  0  0  0  0  0  0  0  0  0  0
    8.6811    9.5354   16.9998 C   0  0  0  0  0  0  0  0  0  0  0  0
    9.2512    4.2713   13.7653 O   0  0  0  0  0  0  0  0  0  0  0  0
    9.6495    8.6317   16.8332 N   0  0  0  0  0  0  0  0  0  0  0  0
    6.2934    8.6988   23.1988 O   0  0  0  0  0  0  0  0  0  0  0  0
    7.9806    8.6543   20.5437 C   0  0  0  0  0  0  0  0  0  0  0  0
   13.7270    5.7144   19.8610 O   0  0  0  0  0  0  0  0  0  0  0  0
    8.3351    5.5235   15.4478 C   0  0  0  0  0  0  0  0  0  0  0  0
    8.7700    7.8434   21.3915 C   0  0  0  0  0  0  0  0  0  0  0  0
   11.7856    6.8851   19.2401 C   0  0  0  0  0  0  0  0  0  0  0  0
   10.5281    7.4276   19.5649 C   0  0  0  0  0  0  0  0  0  0  0  0
   10.0256    7.2907   20.8484 C   0  0  0  0  0  0  0  0  0  0  0  0
    9.3113    5.3049   14.4911 C   0  0  0  0  0  0  0  0  0  0  0  0
    9.4607    7.5646   16.0139 C   0  0  0  0  0  0  0  0  0  0  0  0
   10.4192    7.3157   15.0955 C   0  0  0  0  0  0  0  0  0  0  0  0
   10.2489    6.4227   23.0218 N   0  0  0  0  0  0  0  0  0  0  0  0
    7.2472    8.0746   23.5050 C   0  0  0  0  0  0  0  0  0  0  0  0
    9.2051    6.9101   23.4604 C   0  0  0  0  0  0  0  0  0  0  0  0
   11.9646    6.0299   21.4251 C   0  0  0  0  0  0  0  0  0  0  0  0
  1  5  1  0
  1 13  1  0
  2 20  2  0
  2 28  1  0
  2 29  1  0
  3 19  4  0
  3 25  4  0
  4 23  4  0
  4 27  1  0
  4 30  4  0
  5 17  1  0
  6  8  1  0
  6 29  1  0
  7 24  4  0
  7 26  4  0
  8 28  1  0
  9 13  2  0
 10 18  1  0
 10 21  4  0
 10 30  4  0
 11 17  2  0
 12 18  1  0
 13 15  1  0
 14 24  1  0
 15 25  1  0
 16 28  2  0
 17 20  1  0
 19 24  4  0
 20 23  1  0
 21 22  4  0
 22 23  4  0
 25 26  4  0
 27 29  2  0
M  END
$$$$

 Created by Python create_sdf_string function

 30 33  0  0  0  0  0  0  0  0999 V2000
    8.3036    9.8571   18.4133 C   0  0  0  0  0  0  0  0  0  0  0  0
    8.3694    7.6612   22.6703 C   0  0  0  0  0  0  0  0  0  0  0  0
    8.4143    6.6863   16.2273 C   0  0  0  0  0  0  0  0  0  0  0  0
   10.7581    6.5674   21.7636 C   0  0  0  0  0  0  0  0  0  0  0  0
    8.4452    8.7960   19.2958 O   0  0  0  0  0  0  0  0  0  0  0  0
    8.7122    6.7842   24.8569 C   0  0  0  0  0  0  0  0  0  0  0  0
   10.3400    6.1726   14.3081 C   0  0  0  0  0  0  0  0  0  0  0  0
    7.4297    7.5873   24.8962 C   0  0  0  0  0  0  0  0  0  0  0  0
    8.1566   10.0536   16.0516 O   0  0  0  0  0  0  0  0  0  0  0  0
   12.4989    6.2074   20.1776 C   0  0  0  0  0  0  0  0  0  0  0  0
    6.9192    9.1053   20.9073 O   0  0  0  0  0  0  0  0  0  0  0  0
   14.3979    6.0729   18.7784 C   0  0  0  0  0  0  0  0  0  0  0  0
    8.6811    9.5354   16.9998 C   0  0  0  0  0  0  0  0  0  0  0  0
    9.2512    4.2713   13.7653 O   0  0  0  0  0  0  0  0  0  0  0  0
    9.6495    8.6317   16.8332 N   0  0  0  0  0  0  0  0  0  0  0  0
    6.2934    8.6988   23.1988 O   0  0  0  0  0  0  0  0  0  0  0  0
    7.9806    8.6543   20.5437 C   0  0  0  0  0  0  0  0  0  0  0  0
   13.7270    5.7144   19.8610 O   0  0  0  0  0  0  0  0  0  0  0  0
    8.3351    5.5235   15.4478 C   0  0  0  0  0  0  0  0  0  0  0  0
    8.7700    7.8434   21.3915 C   0  0  0  0  0  0  0  0  0  0  0  0
   11.7856    6.8851   19.2401 C   0  0  0  0  0  0  0  0  0  0  0  0
   10.5281    7.4276   19.5649 C   0  0  0  0  0  0  0  0  0  0  0  0
   10.0256    7.2907   20.8484 C   0  0  0  0  0  0  0  0  0  0  0  0
    9.3113    5.3049   14.4911 C   0  0  0  0  0  0  0  0  0  0  0  0
    9.4607    7.5646   16.0139 C   0  0  0  0  0  0  0  0  0  0  0  0
   10.4192    7.3157   15.0955 C   0  0  0  0  0  0  0  0  0  0  0  0
   10.2489    6.4227   23.0218 N   0  0  0  0  0  0  0  0  0  0  0  0
    7.2472    8.0746   23.5050 C   0  0  0  0  0  0  0  0  0  0  0  0
    9.2051    6.9101   23.4604 C   0  0  0  0  0  0  0  0  0  0  0  0
   11.9646    6.0299   21.4251 C   0  0  0  0  0  0  0  0  0  0  0  0
  1  5  1  0
  1 13  1  0
  2 20  2  0
  2 28  1  0
  2 29  1  0
  3 19  4  0
  3 25  4  0
  4 23  4  0
  4 27  1  0
  4 30  4  0
  5 17  1  0
  6  8  1  0
  6 29  1  0
  7 24  4  0
  7 26  4  0
  8 28  1  0
  9 13  2  0
 10 18  1  0
 10 21  4  0
 10 30  4  0
 11 17  2  0
 12 18  1  0
 13 15  1  0
 14 24  1  0
 15 25  1  0
 16 28  2  0
 17 20  1  0
 19 24  4  0
 20 23  1  0
 21 22  4  0
 22 23  4  0
 25 26  4  0
 27 29  2  0
M  END
$$$$

 Created by Python create_sdf_string function

 30 33  0  0  0  0  0  0  0  0999 V2000
    8.3036    9.8571   18.4133 C   0  0  0  0  0  0  0  0  0  0  0  0
    8.3694    7.6612   22.6703 C   0  0  0  0  0  0  0  0  0  0  0  0
    8.4143    6.6863   16.2273 C   0  0  0  0  0  0  0  0  0  0  0  0
   10.7581    6.5674   21.7636 C   0  0  0  0  0  0  0  0  0  0  0  0
    8.4452    8.7960   19.2958 O   0  0  0  0  0  0  0  0  0  0  0  0
    8.7122    6.7842   24.8569 C   0  0  0  0  0  0  0  0  0  0  0  0
   10.3400    6.1726   14.3081 C   0  0  0  0  0  0  0  0  0  0  0  0
    7.4297    7.5873   24.8962 C   0  0  0  0  0  0  0  0  0  0  0  0
    8.1566   10.0536   16.0516 O   0  0  0  0  0  0  0  0  0  0  0  0
   12.4989    6.2074   20.1776 C   0  0  0  0  0  0  0  0  0  0  0  0
    6.9192    9.1053   20.9073 O   0  0  0  0  0  0  0  0  0  0  0  0
   14.3979    6.0729   18.7784 C   0  0  0  0  0  0  0  0  0  0  0  0
    8.6811    9.5354   16.9998 C   0  0  0  0  0  0  0  0  0  0  0  0
    9.2512    4.2713   13.7653 O   0  0  0  0  0  0  0  0  0  0  0  0
    9.6495    8.6317   16.8332 N   0  0  0  0  0  0  0  0  0  0  0  0
    6.2934    8.6988   23.1988 O   0  0  0  0  0  0  0  0  0  0  0  0
    7.9806    8.6543   20.5437 C   0  0  0  0  0  0  0  0  0  0  0  0
   13.7270    5.7144   19.8610 O   0  0  0  0  0  0  0  0  0  0  0  0
    8.3351    5.5235   15.4478 C   0  0  0  0  0  0  0  0  0  0  0  0
    8.7700    7.8434   21.3915 C   0  0  0  0  0  0  0  0  0  0  0  0
   11.7856    6.8851   19.2401 C   0  0  0  0  0  0  0  0  0  0  0  0
   10.5281    7.4276   19.5649 C   0  0  0  0  0  0  0  0  0  0  0  0
   10.0256    7.2907   20.8484 C   0  0  0  0  0  0  0  0  0  0  0  0
    9.3113    5.3049   14.4911 C   0  0  0  0  0  0  0  0  0  0  0  0
    9.4607    7.5646   16.0139 C   0  0  0  0  0  0  0  0  0  0  0  0
   10.4192    7.3157   15.0955 C   0  0  0  0  0  0  0  0  0  0  0  0
   10.2489    6.4227   23.0218 N   0  0  0  0  0  0  0  0  0  0  0  0
    7.2472    8.0746   23.5050 C   0  0  0  0  0  0  0  0  0  0  0  0
    9.2051    6.9101   23.4604 C   0  0  0  0  0  0  0  0  0  0  0  0
   11.9646    6.0299   21.4251 C   0  0  0  0  0  0  0  0  0  0  0  0
  1  5  1  0
  1 13  1  0
  2 20  2  0
  2 28  1  0
  2 29  1  0
  3 19  4  0
  3 25  4  0
  4 23  4  0
  4 27  1  0
  4 30  4  0
  5 17  1  0
  6  8  1  0
  6 29  1  0
  7 24  4  0
  7 26  4  0
  8 28  1  0
  9 13  2  0
 10 18  1  0
 10 21  4  0
 10 30  4  0
 11 17  2  0
 12 18  1  0
 13 15  1  0
 14 24  1  0
 15 25  1  0
 16 28  2  0
 17 20  1  0
 19 24  4  0
 20 23  1  0
 21 22  4  0
 22 23  4  0
 25 26  4  0
 27 29  2  0
M  END
$$$$

 Created by Python create_sdf_string function

 30 33  0  0  0  0  0  0  0  0999 V2000
    8.3036    9.8571   18.4133 C   0  0  0  0  0  0  0  0  0  0  0  0
    8.3694    7.6612   22.6703 C   0  0  0  0  0  0  0  0  0  0  0  0
    8.4143    6.6863   16.2273 C   0  0  0  0  0  0  0  0  0  0  0  0
   10.7581    6.5674   21.7636 C   0  0  0  0  0  0  0  0  0  0  0  0
    8.4452    8.7960   19.2958 O   0  0  0  0  0  0  0  0  0  0  0  0
    8.7122    6.7842   24.8569 C   0  0  0  0  0  0  0  0  0  0  0  0
   10.3400    6.1726   14.3081 C   0  0  0  0  0  0  0  0  0  0  0  0
    7.4297    7.5873   24.8962 C   0  0  0  0  0  0  0  0  0  0  0  0
    8.1566   10.0536   16.0516 O   0  0  0  0  0  0  0  0  0  0  0  0
   12.4989    6.2074   20.1776 C   0  0  0  0  0  0  0  0  0  0  0  0
    6.9192    9.1053   20.9073 O   0  0  0  0  0  0  0  0  0  0  0  0
   14.3979    6.0729   18.7784 C   0  0  0  0  0  0  0  0  0  0  0  0
    8.6811    9.5354   16.9998 C   0  0  0  0  0  0  0  0  0  0  0  0
    9.2512    4.2713   13.7653 O   0  0  0  0  0  0  0  0  0  0  0  0
    9.6495    8.6317   16.8332 N   0  0  0  0  0  0  0  0  0  0  0  0
    6.2934    8.6988   23.1988 O   0  0  0  0  0  0  0  0  0  0  0  0
    7.9806    8.6543   20.5437 C   0  0  0  0  0  0  0  0  0  0  0  0
   13.7270    5.7144   19.8610 O   0  0  0  0  0  0  0  0  0  0  0  0
    8.3351    5.5235   15.4478 C   0  0  0  0  0  0  0  0  0  0  0  0
    8.7700    7.8434   21.3915 C   0  0  0  0  0  0  0  0  0  0  0  0
   11.7856    6.8851   19.2401 C   0  0  0  0  0  0  0  0  0  0  0  0
   10.5281    7.4276   19.5649 C   0  0  0  0  0  0  0  0  0  0  0  0
   10.0256    7.2907   20.8484 C   0  0  0  0  0  0  0  0  0  0  0  0
    9.3113    5.3049   14.4911 C   0  0  0  0  0  0  0  0  0  0  0  0
    9.4607    7.5646   16.0139 C   0  0  0  0  0  0  0  0  0  0  0  0
   10.4192    7.3157   15.0955 C   0  0  0  0  0  0  0  0  0  0  0  0
   10.2489    6.4227   23.0218 N   0  0  0  0  0  0  0  0  0  0  0  0
    7.2472    8.0746   23.5050 C   0  0  0  0  0  0  0  0  0  0  0  0
    9.2051    6.9101   23.4604 C   0  0  0  0  0  0  0  0  0  0  0  0
   11.9646    6.0299   21.4251 C   0  0  0  0  0  0  0  0  0  0  0  0
  1  5  1  0
  1 13  1  0
  2 20  2  0
  2 28  1  0
  2 29  1  0
  3 19  4  0
  3 25  4  0
  4 23  4  0
  4 27  1  0
  4 30  4  0
  5 17  1  0
  6  8  1  0
  6 29  1  0
  7 24  4  0
  7 26  4  0
  8 28  1  0
  9 13  2  0
 10 18  1  0
 10 21  4  0
 10 30  4  0
 11 17  2  0
 12 18  1  0
 13 15  1  0
 14 24  1  0
 15 25  1  0
 16 28  2  0
 17 20  1  0
 19 24  4  0
 20 23  1  0
 21 22  4  0
 22 23  4  0
 25 26  4  0
 27 29  2  0
M  END
$$$$

 Created by Python create_sdf_string function

 30 33  0  0  0  0  0  0  0  0999 V2000
    8.3036    9.8571   18.4133 C   0  0  0  0  0  0  0  0  0  0  0  0
    8.3694    7.6612   22.6703 C   0  0  0  0  0  0  0  0  0  0  0  0
    8.4143    6.6863   16.2273 C   0  0  0  0  0  0  0  0  0  0  0  0
   10.7581    6.5674   21.7636 C   0  0  0  0  0  0  0  0  0  0  0  0
    8.4452    8.7960   19.2958 O   0  0  0  0  0  0  0  0  0  0  0  0
    8.7122    6.7842   24.8569 C   0  0  0  0  0  0  0  0  0  0  0  0
   10.3400    6.1726   14.3081 C   0  0  0  0  0  0  0  0  0  0  0  0
    7.4297    7.5873   24.8962 C   0  0  0  0  0  0  0  0  0  0  0  0
    8.1566   10.0536   16.0516 O   0  0  0  0  0  0  0  0  0  0  0  0
   12.4989    6.2074   20.1776 C   0  0  0  0  0  0  0  0  0  0  0  0
    6.9192    9.1053   20.9073 O   0  0  0  0  0  0  0  0  0  0  0  0
   14.3979    6.0729   18.7784 C   0  0  0  0  0  0  0  0  0  0  0  0
    8.6811    9.5354   16.9998 C   0  0  0  0  0  0  0  0  0  0  0  0
    9.2512    4.2713   13.7653 O   0  0  0  0  0  0  0  0  0  0  0  0
    9.6495    8.6317   16.8332 N   0  0  0  0  0  0  0  0  0  0  0  0
    6.2934    8.6988   23.1988 O   0  0  0  0  0  0  0  0  0  0  0  0
    7.9806    8.6543   20.5437 C   0  0  0  0  0  0  0  0  0  0  0  0
   13.7270    5.7144   19.8610 O   0  0  0  0  0  0  0  0  0  0  0  0
    8.3351    5.5235   15.4478 C   0  0  0  0  0  0  0  0  0  0  0  0
    8.7700    7.8434   21.3915 C   0  0  0  0  0  0  0  0  0  0  0  0
   11.7856    6.8851   19.2401 C   0  0  0  0  0  0  0  0  0  0  0  0
   10.5281    7.4276   19.5649 C   0  0  0  0  0  0  0  0  0  0  0  0
   10.0256    7.2907   20.8484 C   0  0  0  0  0  0  0  0  0  0  0  0
    9.3113    5.3049   14.4911 C   0  0  0  0  0  0  0  0  0  0  0  0
    9.4607    7.5646   16.0139 C   0  0  0  0  0  0  0  0  0  0  0  0
   10.4192    7.3157   15.0955 C   0  0  0  0  0  0  0  0  0  0  0  0
   10.2489    6.4227   23.0218 N   0  0  0  0  0  0  0  0  0  0  0  0
    7.2472    8.0746   23.5050 C   0  0  0  0  0  0  0  0  0  0  0  0
    9.2051    6.9101   23.4604 C   0  0  0  0  0  0  0  0  0  0  0  0
   11.9646    6.0299   21.4251 C   0  0  0  0  0  0  0  0  0  0  0  0
  1  5  1  0
  1 13  1  0
  2 20  2  0
  2 28  1  0
  2 29  1  0
  3 19  4  0
  3 25  4  0
  4 23  4  0
  4 27  1  0
  4 30  4  0
  5 17  1  0
  6  8  1  0
  6 29  1  0
  7 24  4  0
  7 26  4  0
  8 28  1  0
  9 13  2  0
 10 18  1  0
 10 21  4  0
 10 30  4  0
 11 17  2  0
 12 18  1  0
 13 15  1  0
 14 24  1  0
 15 25  1  0
 16 28  2  0
 17 20  1  0
 19 24  4  0
 20 23  1  0
 21 22  4  0
 22 23  4  0
 25 26  4  0
 27 29  2  0
M  END
$$$$

 Created by Python create_sdf_string function

 30 33  0  0  0  0  0  0  0  0999 V2000
    8.3036    9.8571   18.4133 C   0  0  0  0  0  0  0  0  0  0  0  0
    8.3694    7.6612   22.6703 C   0  0  0  0  0  0  0  0  0  0  0  0
    8.4143    6.6863   16.2273 C   0  0  0  0  0  0  0  0  0  0  0  0
   10.7581    6.5674   21.7636 C   0  0  0  0  0  0  0  0  0  0  0  0
    8.4452    8.7960   19.2958 O   0  0  0  0  0  0  0  0  0  0  0  0
    8.7122    6.7842   24.8569 C   0  0  0  0  0  0  0  0  0  0  0  0
   10.3400    6.1726   14.3081 C   0  0  0  0  0  0  0  0  0  0  0  0
    7.4297    7.5873   24.8962 C   0  0  0  0  0  0  0  0  0  0  0  0
    8.1566   10.0536   16.0516 O   0  0  0  0  0  0  0  0  0  0  0  0
   12.4989    6.2074   20.1776 C   0  0  0  0  0  0  0  0  0  0  0  0
    6.9192    9.1053   20.9073 O   0  0  0  0  0  0  0  0  0  0  0  0
   14.3979    6.0729   18.7784 C   0  0  0  0  0  0  0  0  0  0  0  0
    8.6811    9.5354   16.9998 C   0  0  0  0  0  0  0  0  0  0  0  0
    9.2512    4.2713   13.7653 O   0  0  0  0  0  0  0  0  0  0  0  0
    9.6495    8.6317   16.8332 N   0  0  0  0  0  0  0  0  0  0  0  0
    6.2934    8.6988   23.1988 O   0  0  0  0  0  0  0  0  0  0  0  0
    7.9806    8.6543   20.5437 C   0  0  0  0  0  0  0  0  0  0  0  0
   13.7270    5.7144   19.8610 O   0  0  0  0  0  0  0  0  0  0  0  0
    8.3351    5.5235   15.4478 C   0  0  0  0  0  0  0  0  0  0  0  0
    8.7700    7.8434   21.3915 C   0  0  0  0  0  0  0  0  0  0  0  0
   11.7856    6.8851   19.2401 C   0  0  0  0  0  0  0  0  0  0  0  0
   10.5281    7.4276   19.5649 C   0  0  0  0  0  0  0  0  0  0  0  0
   10.0256    7.2907   20.8484 C   0  0  0  0  0  0  0  0  0  0  0  0
    9.3113    5.3049   14.4911 C   0  0  0  0  0  0  0  0  0  0  0  0
    9.4607    7.5646   16.0139 C   0  0  0  0  0  0  0  0  0  0  0  0
   10.4192    7.3157   15.0955 C   0  0  0  0  0  0  0  0  0  0  0  0
   10.2489    6.4227   23.0218 N   0  0  0  0  0  0  0  0  0  0  0  0
    7.2472    8.0746   23.5050 C   0  0  0  0  0  0  0  0  0  0  0  0
    9.2051    6.9101   23.4604 C   0  0  0  0  0  0  0  0  0  0  0  0
   11.9646    6.0299   21.4251 C   0  0  0  0  0  0  0  0  0  0  0  0
  1  5  1  0
  1 13  1  0
  2 20  2  0
  2 28  1  0
  2 29  1  0
  3 19  4  0
  3 25  4  0
  4 23  4  0
  4 27  1  0
  4 30  4  0
  5 17  1  0
  6  8  1  0
  6 29  1  0
  7 24  4  0
  7 26  4  0
  8 28  1  0
  9 13  2  0
 10 18  1  0
 10 21  4  0
 10 30  4  0
 11 17  2  0
 12 18  1  0
 13 15  1  0
 14 24  1  0
 15 25  1  0
 16 28  2  0
 17 20  1  0
 19 24  4  0
 20 23  1  0
 21 22  4  0
 22 23  4  0
 25 26  4  0
 27 29  2  0
M  END
$$$$

 Created by Python create_sdf_string function

 30 33  0  0  0  0  0  0  0  0999 V2000
    8.3036    9.8571   18.4133 C   0  0  0  0  0  0  0  0  0  0  0  0
    8.3694    7.6612   22.6703 C   0  0  0  0  0  0  0  0  0  0  0  0
    8.4143    6.6863   16.2273 C   0  0  0  0  0  0  0  0  0  0  0  0
   10.7581    6.5674   21.7636 C   0  0  0  0  0  0  0  0  0  0  0  0
    8.4452    8.7960   19.2958 O   0  0  0  0  0  0  0  0  0  0  0  0
    8.7122    6.7842   24.8569 C   0  0  0  0  0  0  0  0  0  0  0  0
   10.3400    6.1726   14.3081 C   0  0  0  0  0  0  0  0  0  0  0  0
    7.4297    7.5873   24.8962 C   0  0  0  0  0  0  0  0  0  0  0  0
    8.1566   10.0536   16.0516 O   0  0  0  0  0  0  0  0  0  0  0  0
   12.4989    6.2074   20.1776 C   0  0  0  0  0  0  0  0  0  0  0  0
    6.9192    9.1053   20.9073 O   0  0  0  0  0  0  0  0  0  0  0  0
   14.3979    6.0729   18.7784 C   0  0  0  0  0  0  0  0  0  0  0  0
    8.6811    9.5354   16.9998 C   0  0  0  0  0  0  0  0  0  0  0  0
    9.2512    4.2713   13.7653 O   0  0  0  0  0  0  0  0  0  0  0  0
    9.6495    8.6317   16.8332 N   0  0  0  0  0  0  0  0  0  0  0  0
    6.2934    8.6988   23.1988 O   0  0  0  0  0  0  0  0  0  0  0  0
    7.9806    8.6543   20.5437 C   0  0  0  0  0  0  0  0  0  0  0  0
   13.7270    5.7144   19.8610 O   0  0  0  0  0  0  0  0  0  0  0  0
    8.3351    5.5235   15.4478 C   0  0  0  0  0  0  0  0  0  0  0  0
    8.7700    7.8434   21.3915 C   0  0  0  0  0  0  0  0  0  0  0  0
   11.7856    6.8851   19.2401 C   0  0  0  0  0  0  0  0  0  0  0  0
   10.5281    7.4276   19.5649 C   0  0  0  0  0  0  0  0  0  0  0  0
   10.0256    7.2907   20.8484 C   0  0  0  0  0  0  0  0  0  0  0  0
    9.3113    5.3049   14.4911 C   0  0  0  0  0  0  0  0  0  0  0  0
    9.4607    7.5646   16.0139 C   0  0  0  0  0  0  0  0  0  0  0  0
   10.4192    7.3157   15.0955 C   0  0  0  0  0  0  0  0  0  0  0  0
   10.2489    6.4227   23.0218 N   0  0  0  0  0  0  0  0  0  0  0  0
    7.2472    8.0746   23.5050 C   0  0  0  0  0  0  0  0  0  0  0  0
    9.2051    6.9101   23.4604 C   0  0  0  0  0  0  0  0  0  0  0  0
   11.9646    6.0299   21.4251 C   0  0  0  0  0  0  0  0  0  0  0  0
  1  5  1  0
  1 13  1  0
  2 20  2  0
  2 28  1  0
  2 29  1  0
  3 19  4  0
  3 25  4  0
  4 23  4  0
  4 27  1  0
  4 30  4  0
  5 17  1  0
  6  8  1  0
  6 29  1  0
  7 24  4  0
  7 26  4  0
  8 28  1  0
  9 13  2  0
 10 18  1  0
 10 21  4  0
 10 30  4  0
 11 17  2  0
 12 18  1  0
 13 15  1  0
 14 24  1  0
 15 25  1  0
 16 28  2  0
 17 20  1  0
 19 24  4  0
 20 23  1  0
 21 22  4  0
 22 23  4  0
 25 26  4  0
 27 29  2  0
M  END
$$$$

 Created by Python create_sdf_string function

 30 33  0  0  0  0  0  0  0  0999 V2000
    8.3036    9.8571   18.4133 C   0  0  0  0  0  0  0  0  0  0  0  0
    8.3694    7.6612   22.6703 C   0  0  0  0  0  0  0  0  0  0  0  0
    8.4143    6.6863   16.2273 C   0  0  0  0  0  0  0  0  0  0  0  0
   10.7581    6.5674   21.7636 C   0  0  0  0  0  0  0  0  0  0  0  0
    8.4452    8.7960   19.2958 O   0  0  0  0  0  0  0  0  0  0  0  0
    8.7122    6.7842   24.8569 C   0  0  0  0  0  0  0  0  0  0  0  0
   10.3400    6.1726   14.3081 C   0  0  0  0  0  0  0  0  0  0  0  0
    7.4297    7.5873   24.8962 C   0  0  0  0  0  0  0  0  0  0  0  0
    8.1566   10.0536   16.0516 O   0  0  0  0  0  0  0  0  0  0  0  0
   12.4989    6.2074   20.1776 C   0  0  0  0  0  0  0  0  0  0  0  0
    6.9192    9.1053   20.9073 O   0  0  0  0  0  0  0  0  0  0  0  0
   14.3979    6.0729   18.7784 C   0  0  0  0  0  0  0  0  0  0  0  0
    8.6811    9.5354   16.9998 C   0  0  0  0  0  0  0  0  0  0  0  0
    9.2512    4.2713   13.7653 O   0  0  0  0  0  0  0  0  0  0  0  0
    9.6495    8.6317   16.8332 N   0  0  0  0  0  0  0  0  0  0  0  0
    6.2934    8.6988   23.1988 O   0  0  0  0  0  0  0  0  0  0  0  0
    7.9806    8.6543   20.5437 C   0  0  0  0  0  0  0  0  0  0  0  0
   13.7270    5.7144   19.8610 O   0  0  0  0  0  0  0  0  0  0  0  0
    8.3351    5.5235   15.4478 C   0  0  0  0  0  0  0  0  0  0  0  0
    8.7700    7.8434   21.3915 C   0  0  0  0  0  0  0  0  0  0  0  0
   11.7856    6.8851   19.2401 C   0  0  0  0  0  0  0  0  0  0  0  0
   10.5281    7.4276   19.5649 C   0  0  0  0  0  0  0  0  0  0  0  0
   10.0256    7.2907   20.8484 C   0  0  0  0  0  0  0  0  0  0  0  0
    9.3113    5.3049   14.4911 C   0  0  0  0  0  0  0  0  0  0  0  0
    9.4607    7.5646   16.0139 C   0  0  0  0  0  0  0  0  0  0  0  0
   10.4192    7.3157   15.0955 C   0  0  0  0  0  0  0  0  0  0  0  0
   10.2489    6.4227   23.0218 N   0  0  0  0  0  0  0  0  0  0  0  0
    7.2472    8.0746   23.5050 C   0  0  0  0  0  0  0  0  0  0  0  0
    9.2051    6.9101   23.4604 C   0  0  0  0  0  0  0  0  0  0  0  0
   11.9646    6.0299   21.4251 C   0  0  0  0  0  0  0  0  0  0  0  0
  1  5  1  0
  1 13  1  0
  2 20  2  0
  2 28  1  0
  2 29  1  0
  3 19  4  0
  3 25  4  0
  4 23  4  0
  4 27  1  0
  4 30  4  0
  5 17  1  0
  6  8  1  0
  6 29  1  0
  7 24  4  0
  7 26  4  0
  8 28  1  0
  9 13  2  0
 10 18  1  0
 10 21  4  0
 10 30  4  0
 11 17  2  0
 12 18  1  0
 13 15  1  0
 14 24  1  0
 15 25  1  0
 16 28  2  0
 17 20  1  0
 19 24  4  0
 20 23  1  0
 21 22  4  0
 22 23  4  0
 25 26  4  0
 27 29  2  0
M  END
$$$$

 Created by Python create_sdf_string function

 30 33  0  0  0  0  0  0  0  0999 V2000
    8.3036    9.8571   18.4133 C   0  0  0  0  0  0  0  0  0  0  0  0
    8.3694    7.6612   22.6703 C   0  0  0  0  0  0  0  0  0  0  0  0
    8.4143    6.6863   16.2273 C   0  0  0  0  0  0  0  0  0  0  0  0
   10.7581    6.5674   21.7636 C   0  0  0  0  0  0  0  0  0  0  0  0
    8.4452    8.7960   19.2958 O   0  0  0  0  0  0  0  0  0  0  0  0
    8.7122    6.7842   24.8569 C   0  0  0  0  0  0  0  0  0  0  0  0
   10.3400    6.1726   14.3081 C   0  0  0  0  0  0  0  0  0  0  0  0
    7.4297    7.5873   24.8962 C   0  0  0  0  0  0  0  0  0  0  0  0
    8.1566   10.0536   16.0516 O   0  0  0  0  0  0  0  0  0  0  0  0
   12.4989    6.2074   20.1776 C   0  0  0  0  0  0  0  0  0  0  0  0
    6.9192    9.1053   20.9073 O   0  0  0  0  0  0  0  0  0  0  0  0
   14.3979    6.0729   18.7784 C   0  0  0  0  0  0  0  0  0  0  0  0
    8.6811    9.5354   16.9998 C   0  0  0  0  0  0  0  0  0  0  0  0
    9.2512    4.2713   13.7653 O   0  0  0  0  0  0  0  0  0  0  0  0
    9.6495    8.6317   16.8332 N   0  0  0  0  0  0  0  0  0  0  0  0
    6.2934    8.6988   23.1988 O   0  0  0  0  0  0  0  0  0  0  0  0
    7.9806    8.6543   20.5437 C   0  0  0  0  0  0  0  0  0  0  0  0
   13.7270    5.7144   19.8610 O   0  0  0  0  0  0  0  0  0  0  0  0
    8.3351    5.5235   15.4478 C   0  0  0  0  0  0  0  0  0  0  0  0
    8.7700    7.8434   21.3915 C   0  0  0  0  0  0  0  0  0  0  0  0
   11.7856    6.8851   19.2401 C   0  0  0  0  0  0  0  0  0  0  0  0
   10.5281    7.4276   19.5649 C   0  0  0  0  0  0  0  0  0  0  0  0
   10.0256    7.2907   20.8484 C   0  0  0  0  0  0  0  0  0  0  0  0
    9.3113    5.3049   14.4911 C   0  0  0  0  0  0  0  0  0  0  0  0
    9.4607    7.5646   16.0139 C   0  0  0  0  0  0  0  0  0  0  0  0
   10.4192    7.3157   15.0955 C   0  0  0  0  0  0  0  0  0  0  0  0
   10.2489    6.4227   23.0218 N   0  0  0  0  0  0  0  0  0  0  0  0
    7.2472    8.0746   23.5050 C   0  0  0  0  0  0  0  0  0  0  0  0
    9.2051    6.9101   23.4604 C   0  0  0  0  0  0  0  0  0  0  0  0
   11.9646    6.0299   21.4251 C   0  0  0  0  0  0  0  0  0  0  0  0
  1  5  1  0
  1 13  1  0
  2 20  2  0
  2 28  1  0
  2 29  1  0
  3 19  4  0
  3 25  4  0
  4 23  4  0
  4 27  1  0
  4 30  4  0
  5 17  1  0
  6  8  1  0
  6 29  1  0
  7 24  4  0
  7 26  4  0
  8 28  1  0
  9 13  2  0
 10 18  1  0
 10 21  4  0
 10 30  4  0
 11 17  2  0
 12 18  1  0
 13 15  1  0
 14 24  1  0
 15 25  1  0
 16 28  2  0
 17 20  1  0
 19 24  4  0
 20 23  1  0
 21 22  4  0
 22 23  4  0
 25 26  4  0
 27 29  2  0
M  END
$$$$

 Created by Python create_sdf_string function

 30 33  0  0  0  0  0  0  0  0999 V2000
    8.3036    9.8571   18.4133 C   0  0  0  0  0  0  0  0  0  0  0  0
    8.3694    7.6612   22.6703 C   0  0  0  0  0  0  0  0  0  0  0  0
    8.4143    6.6863   16.2273 C   0  0  0  0  0  0  0  0  0  0  0  0
   10.7581    6.5674   21.7636 C   0  0  0  0  0  0  0  0  0  0  0  0
    8.4452    8.7960   19.2958 O   0  0  0  0  0  0  0  0  0  0  0  0
    8.7122    6.7842   24.8569 C   0  0  0  0  0  0  0  0  0  0  0  0
   10.3400    6.1726   14.3081 C   0  0  0  0  0  0  0  0  0  0  0  0
    7.4297    7.5873   24.8962 C   0  0  0  0  0  0  0  0  0  0  0  0
    8.1566   10.0536   16.0516 O   0  0  0  0  0  0  0  0  0  0  0  0
   12.4989    6.2074   20.1776 C   0  0  0  0  0  0  0  0  0  0  0  0
    6.9192    9.1053   20.9073 O   0  0  0  0  0  0  0  0  0  0  0  0
   14.3979    6.0729   18.7784 C   0  0  0  0  0  0  0  0  0  0  0  0
    8.6811    9.5354   16.9998 C   0  0  0  0  0  0  0  0  0  0  0  0
    9.2512    4.2713   13.7653 O   0  0  0  0  0  0  0  0  0  0  0  0
    9.6495    8.6317   16.8332 N   0  0  0  0  0  0  0  0  0  0  0  0
    6.2934    8.6988   23.1988 O   0  0  0  0  0  0  0  0  0  0  0  0
    7.9806    8.6543   20.5437 C   0  0  0  0  0  0  0  0  0  0  0  0
   13.7270    5.7144   19.8610 O   0  0  0  0  0  0  0  0  0  0  0  0
    8.3351    5.5235   15.4478 C   0  0  0  0  0  0  0  0  0  0  0  0
    8.7700    7.8434   21.3915 C   0  0  0  0  0  0  0  0  0  0  0  0
   11.7856    6.8851   19.2401 C   0  0  0  0  0  0  0  0  0  0  0  0
   10.5281    7.4276   19.5649 C   0  0  0  0  0  0  0  0  0  0  0  0
   10.0256    7.2907   20.8484 C   0  0  0  0  0  0  0  0  0  0  0  0
    9.3113    5.3049   14.4911 C   0  0  0  0  0  0  0  0  0  0  0  0
    9.4607    7.5646   16.0139 C   0  0  0  0  0  0  0  0  0  0  0  0
   10.4192    7.3157   15.0955 C   0  0  0  0  0  0  0  0  0  0  0  0
   10.2489    6.4227   23.0218 N   0  0  0  0  0  0  0  0  0  0  0  0
    7.2472    8.0746   23.5050 C   0  0  0  0  0  0  0  0  0  0  0  0
    9.2051    6.9101   23.4604 C   0  0  0  0  0  0  0  0  0  0  0  0
   11.9646    6.0299   21.4251 C   0  0  0  0  0  0  0  0  0  0  0  0
  1  5  1  0
  1 13  1  0
  2 20  2  0
  2 28  1  0
  2 29  1  0
  3 19  4  0
  3 25  4  0
  4 23  4  0
  4 27  1  0
  4 30  4  0
  5 17  1  0
  6  8  1  0
  6 29  1  0
  7 24  4  0
  7 26  4  0
  8 28  1  0
  9 13  2  0
 10 18  1  0
 10 21  4  0
 10 30  4  0
 11 17  2  0
 12 18  1  0
 13 15  1  0
 14 24  1  0
 15 25  1  0
 16 28  2  0
 17 20  1  0
 19 24  4  0
 20 23  1  0
 21 22  4  0
 22 23  4  0
 25 26  4  0
 27 29  2  0
M  END
$$$$

 Created by Python create_sdf_string function

 30 33  0  0  0  0  0  0  0  0999 V2000
    8.3036    9.8571   18.4133 C   0  0  0  0  0  0  0  0  0  0  0  0
    8.3694    7.6612   22.6703 C   0  0  0  0  0  0  0  0  0  0  0  0
    8.4143    6.6863   16.2273 C   0  0  0  0  0  0  0  0  0  0  0  0
   10.7581    6.5674   21.7636 C   0  0  0  0  0  0  0  0  0  0  0  0
    8.4452    8.7960   19.2958 O   0  0  0  0  0  0  0  0  0  0  0  0
    8.7122    6.7842   24.8569 C   0  0  0  0  0  0  0  0  0  0  0  0
   10.3400    6.1726   14.3081 C   0  0  0  0  0  0  0  0  0  0  0  0
    7.4297    7.5873   24.8962 C   0  0  0  0  0  0  0  0  0  0  0  0
    8.1566   10.0536   16.0516 O   0  0  0  0  0  0  0  0  0  0  0  0
   12.4989    6.2074   20.1776 C   0  0  0  0  0  0  0  0  0  0  0  0
    6.9192    9.1053   20.9073 O   0  0  0  0  0  0  0  0  0  0  0  0
   14.3979    6.0729   18.7784 C   0  0  0  0  0  0  0  0  0  0  0  0
    8.6811    9.5354   16.9998 C   0  0  0  0  0  0  0  0  0  0  0  0
    9.2512    4.2713   13.7653 O   0  0  0  0  0  0  0  0  0  0  0  0
    9.6495    8.6317   16.8332 N   0  0  0  0  0  0  0  0  0  0  0  0
    6.2934    8.6988   23.1988 O   0  0  0  0  0  0  0  0  0  0  0  0
    7.9806    8.6543   20.5437 C   0  0  0  0  0  0  0  0  0  0  0  0
   13.7270    5.7144   19.8610 O   0  0  0  0  0  0  0  0  0  0  0  0
    8.3351    5.5235   15.4478 C   0  0  0  0  0  0  0  0  0  0  0  0
    8.7700    7.8434   21.3915 C   0  0  0  0  0  0  0  0  0  0  0  0
   11.7856    6.8851   19.2401 C   0  0  0  0  0  0  0  0  0  0  0  0
   10.5281    7.4276   19.5649 C   0  0  0  0  0  0  0  0  0  0  0  0
   10.0256    7.2907   20.8484 C   0  0  0  0  0  0  0  0  0  0  0  0
    9.3113    5.3049   14.4911 C   0  0  0  0  0  0  0  0  0  0  0  0
    9.4607    7.5646   16.0139 C   0  0  0  0  0  0  0  0  0  0  0  0
   10.4192    7.3157   15.0955 C   0  0  0  0  0  0  0  0  0  0  0  0
   10.2489    6.4227   23.0218 N   0  0  0  0  0  0  0  0  0  0  0  0
    7.2472    8.0746   23.5050 C   0  0  0  0  0  0  0  0  0  0  0  0
    9.2051    6.9101   23.4604 C   0  0  0  0  0  0  0  0  0  0  0  0
   11.9646    6.0299   21.4251 C   0  0  0  0  0  0  0  0  0  0  0  0
  1  5  1  0
  1 13  1  0
  2 20  2  0
  2 28  1  0
  2 29  1  0
  3 19  4  0
  3 25  4  0
  4 23  4  0
  4 27  1  0
  4 30  4  0
  5 17  1  0
  6  8  1  0
  6 29  1  0
  7 24  4  0
  7 26  4  0
  8 28  1  0
  9 13  2  0
 10 18  1  0
 10 21  4  0
 10 30  4  0
 11 17  2  0
 12 18  1  0
 13 15  1  0
 14 24  1  0
 15 25  1  0
 16 28  2  0
 17 20  1  0
 19 24  4  0
 20 23  1  0
 21 22  4  0
 22 23  4  0
 25 26  4  0
 27 29  2  0
M  END
$$$$

 Created by Python create_sdf_string function

 30 33  0  0  0  0  0  0  0  0999 V2000
    8.3036    9.8571   18.4133 C   0  0  0  0  0  0  0  0  0  0  0  0
    8.3694    7.6612   22.6703 C   0  0  0  0  0  0  0  0  0  0  0  0
    8.4143    6.6863   16.2273 C   0  0  0  0  0  0  0  0  0  0  0  0
   10.7581    6.5674   21.7636 C   0  0  0  0  0  0  0  0  0  0  0  0
    8.4452    8.7960   19.2958 O   0  0  0  0  0  0  0  0  0  0  0  0
    8.7122    6.7842   24.8569 C   0  0  0  0  0  0  0  0  0  0  0  0
   10.3400    6.1726   14.3081 C   0  0  0  0  0  0  0  0  0  0  0  0
    7.4297    7.5873   24.8962 C   0  0  0  0  0  0  0  0  0  0  0  0
    8.1566   10.0536   16.0516 O   0  0  0  0  0  0  0  0  0  0  0  0
   12.4989    6.2074   20.1776 C   0  0  0  0  0  0  0  0  0  0  0  0
    6.9192    9.1053   20.9073 O   0  0  0  0  0  0  0  0  0  0  0  0
   14.3979    6.0729   18.7784 C   0  0  0  0  0  0  0  0  0  0  0  0
    8.6811    9.5354   16.9998 C   0  0  0  0  0  0  0  0  0  0  0  0
    9.2512    4.2713   13.7653 O   0  0  0  0  0  0  0  0  0  0  0  0
    9.6495    8.6317   16.8332 N   0  0  0  0  0  0  0  0  0  0  0  0
    6.2934    8.6988   23.1988 O   0  0  0  0  0  0  0  0  0  0  0  0
    7.9806    8.6543   20.5437 C   0  0  0  0  0  0  0  0  0  0  0  0
   13.7270    5.7144   19.8610 O   0  0  0  0  0  0  0  0  0  0  0  0
    8.3351    5.5235   15.4478 C   0  0  0  0  0  0  0  0  0  0  0  0
    8.7700    7.8434   21.3915 C   0  0  0  0  0  0  0  0  0  0  0  0
   11.7856    6.8851   19.2401 C   0  0  0  0  0  0  0  0  0  0  0  0
   10.5281    7.4276   19.5649 C   0  0  0  0  0  0  0  0  0  0  0  0
   10.0256    7.2907   20.8484 C   0  0  0  0  0  0  0  0  0  0  0  0
    9.3113    5.3049   14.4911 C   0  0  0  0  0  0  0  0  0  0  0  0
    9.4607    7.5646   16.0139 C   0  0  0  0  0  0  0  0  0  0  0  0
   10.4192    7.3157   15.0955 C   0  0  0  0  0  0  0  0  0  0  0  0
   10.2489    6.4227   23.0218 N   0  0  0  0  0  0  0  0  0  0  0  0
    7.2472    8.0746   23.5050 C   0  0  0  0  0  0  0  0  0  0  0  0
    9.2051    6.9101   23.4604 C   0  0  0  0  0  0  0  0  0  0  0  0
   11.9646    6.0299   21.4251 C   0  0  0  0  0  0  0  0  0  0  0  0
  1  5  1  0
  1 13  1  0
  2 20  2  0
  2 28  1  0
  2 29  1  0
  3 19  4  0
  3 25  4  0
  4 23  4  0
  4 27  1  0
  4 30  4  0
  5 17  1  0
  6  8  1  0
  6 29  1  0
  7 24  4  0
  7 26  4  0
  8 28  1  0
  9 13  2  0
 10 18  1  0
 10 21  4  0
 10 30  4  0
 11 17  2  0
 12 18  1  0
 13 15  1  0
 14 24  1  0
 15 25  1  0
 16 28  2  0
 17 20  1  0
 19 24  4  0
 20 23  1  0
 21 22  4  0
 22 23  4  0
 25 26  4  0
 27 29  2  0
M  END
$$$$

 Created by Python create_sdf_string function

 30 33  0  0  0  0  0  0  0  0999 V2000
    8.3036    9.8571   18.4133 C   0  0  0  0  0  0  0  0  0  0  0  0
    8.3694    7.6612   22.6703 C   0  0  0  0  0  0  0  0  0  0  0  0
    8.4143    6.6863   16.2273 C   0  0  0  0  0  0  0  0  0  0  0  0
   10.7581    6.5674   21.7636 C   0  0  0  0  0  0  0  0  0  0  0  0
    8.4452    8.7960   19.2958 O   0  0  0  0  0  0  0  0  0  0  0  0
    8.7122    6.7842   24.8569 C   0  0  0  0  0  0  0  0  0  0  0  0
   10.3400    6.1726   14.3081 C   0  0  0  0  0  0  0  0  0  0  0  0
    7.4297    7.5873   24.8962 C   0  0  0  0  0  0  0  0  0  0  0  0
    8.1566   10.0536   16.0516 O   0  0  0  0  0  0  0  0  0  0  0  0
   12.4989    6.2074   20.1776 C   0  0  0  0  0  0  0  0  0  0  0  0
    6.9192    9.1053   20.9073 O   0  0  0  0  0  0  0  0  0  0  0  0
   14.3979    6.0729   18.7784 C   0  0  0  0  0  0  0  0  0  0  0  0
    8.6811    9.5354   16.9998 C   0  0  0  0  0  0  0  0  0  0  0  0
    9.2512    4.2713   13.7653 O   0  0  0  0  0  0  0  0  0  0  0  0
    9.6495    8.6317   16.8332 N   0  0  0  0  0  0  0  0  0  0  0  0
    6.2934    8.6988   23.1988 O   0  0  0  0  0  0  0  0  0  0  0  0
    7.9806    8.6543   20.5437 C   0  0  0  0  0  0  0  0  0  0  0  0
   13.7270    5.7144   19.8610 O   0  0  0  0  0  0  0  0  0  0  0  0
    8.3351    5.5235   15.4478 C   0  0  0  0  0  0  0  0  0  0  0  0
    8.7700    7.8434   21.3915 C   0  0  0  0  0  0  0  0  0  0  0  0
   11.7856    6.8851   19.2401 C   0  0  0  0  0  0  0  0  0  0  0  0
   10.5281    7.4276   19.5649 C   0  0  0  0  0  0  0  0  0  0  0  0
   10.0256    7.2907   20.8484 C   0  0  0  0  0  0  0  0  0  0  0  0
    9.3113    5.3049   14.4911 C   0  0  0  0  0  0  0  0  0  0  0  0
    9.4607    7.5646   16.0139 C   0  0  0  0  0  0  0  0  0  0  0  0
   10.4192    7.3157   15.0955 C   0  0  0  0  0  0  0  0  0  0  0  0
   10.2489    6.4227   23.0218 N   0  0  0  0  0  0  0  0  0  0  0  0
    7.2472    8.0746   23.5050 C   0  0  0  0  0  0  0  0  0  0  0  0
    9.2051    6.9101   23.4604 C   0  0  0  0  0  0  0  0  0  0  0  0
   11.9646    6.0299   21.4251 C   0  0  0  0  0  0  0  0  0  0  0  0
  1  5  1  0
  1 13  1  0
  2 20  2  0
  2 28  1  0
  2 29  1  0
  3 19  4  0
  3 25  4  0
  4 23  4  0
  4 27  1  0
  4 30  4  0
  5 17  1  0
  6  8  1  0
  6 29  1  0
  7 24  4  0
  7 26  4  0
  8 28  1  0
  9 13  2  0
 10 18  1  0
 10 21  4  0
 10 30  4  0
 11 17  2  0
 12 18  1  0
 13 15  1  0
 14 24  1  0
 15 25  1  0
 16 28  2  0
 17 20  1  0
 19 24  4  0
 20 23  1  0
 21 22  4  0
 22 23  4  0
 25 26  4  0
 27 29  2  0
M  END
$$$$

 Created by Python create_sdf_string function

 30 33  0  0  0  0  0  0  0  0999 V2000
    8.3036    9.8571   18.4133 C   0  0  0  0  0  0  0  0  0  0  0  0
    8.3694    7.6612   22.6703 C   0  0  0  0  0  0  0  0  0  0  0  0
    8.4143    6.6863   16.2273 C   0  0  0  0  0  0  0  0  0  0  0  0
   10.7581    6.5674   21.7636 C   0  0  0  0  0  0  0  0  0  0  0  0
    8.4452    8.7960   19.2958 O   0  0  0  0  0  0  0  0  0  0  0  0
    8.7122    6.7842   24.8569 C   0  0  0  0  0  0  0  0  0  0  0  0
   10.3400    6.1726   14.3081 C   0  0  0  0  0  0  0  0  0  0  0  0
    7.4297    7.5873   24.8962 C   0  0  0  0  0  0  0  0  0  0  0  0
    8.1566   10.0536   16.0516 O   0  0  0  0  0  0  0  0  0  0  0  0
   12.4989    6.2074   20.1776 C   0  0  0  0  0  0  0  0  0  0  0  0
    6.9192    9.1053   20.9073 O   0  0  0  0  0  0  0  0  0  0  0  0
   14.3979    6.0729   18.7784 C   0  0  0  0  0  0  0  0  0  0  0  0
    8.6811    9.5354   16.9998 C   0  0  0  0  0  0  0  0  0  0  0  0
    9.2512    4.2713   13.7653 O   0  0  0  0  0  0  0  0  0  0  0  0
    9.6495    8.6317   16.8332 N   0  0  0  0  0  0  0  0  0  0  0  0
    6.2934    8.6988   23.1988 O   0  0  0  0  0  0  0  0  0  0  0  0
    7.9806    8.6543   20.5437 C   0  0  0  0  0  0  0  0  0  0  0  0
   13.7270    5.7144   19.8610 O   0  0  0  0  0  0  0  0  0  0  0  0
    8.3351    5.5235   15.4478 C   0  0  0  0  0  0  0  0  0  0  0  0
    8.7700    7.8434   21.3915 C   0  0  0  0  0  0  0  0  0  0  0  0
   11.7856    6.8851   19.2401 C   0  0  0  0  0  0  0  0  0  0  0  0
   10.5281    7.4276   19.5649 C   0  0  0  0  0  0  0  0  0  0  0  0
   10.0256    7.2907   20.8484 C   0  0  0  0  0  0  0  0  0  0  0  0
    9.3113    5.3049   14.4911 C   0  0  0  0  0  0  0  0  0  0  0  0
    9.4607    7.5646   16.0139 C   0  0  0  0  0  0  0  0  0  0  0  0
   10.4192    7.3157   15.0955 C   0  0  0  0  0  0  0  0  0  0  0  0
   10.2489    6.4227   23.0218 N   0  0  0  0  0  0  0  0  0  0  0  0
    7.2472    8.0746   23.5050 C   0  0  0  0  0  0  0  0  0  0  0  0
    9.2051    6.9101   23.4604 C   0  0  0  0  0  0  0  0  0  0  0  0
   11.9646    6.0299   21.4251 C   0  0  0  0  0  0  0  0  0  0  0  0
  1  5  1  0
  1 13  1  0
  2 20  2  0
  2 28  1  0
  2 29  1  0
  3 19  4  0
  3 25  4  0
  4 23  4  0
  4 27  1  0
  4 30  4  0
  5 17  1  0
  6  8  1  0
  6 29  1  0
  7 24  4  0
  7 26  4  0
  8 28  1  0
  9 13  2  0
 10 18  1  0
 10 21  4  0
 10 30  4  0
 11 17  2  0
 12 18  1  0
 13 15  1  0
 14 24  1  0
 15 25  1  0
 16 28  2  0
 17 20  1  0
 19 24  4  0
 20 23  1  0
 21 22  4  0
 22 23  4  0
 25 26  4  0
 27 29  2  0
M  END
$$$$

 Created by Python create_sdf_string function

 30 33  0  0  0  0  0  0  0  0999 V2000
    8.3036    9.8571   18.4133 C   0  0  0  0  0  0  0  0  0  0  0  0
    8.3694    7.6612   22.6703 C   0  0  0  0  0  0  0  0  0  0  0  0
    8.4143    6.6863   16.2273 C   0  0  0  0  0  0  0  0  0  0  0  0
   10.7581    6.5674   21.7636 C   0  0  0  0  0  0  0  0  0  0  0  0
    8.4452    8.7960   19.2958 O   0  0  0  0  0  0  0  0  0  0  0  0
    8.7122    6.7842   24.8569 C   0  0  0  0  0  0  0  0  0  0  0  0
   10.3400    6.1726   14.3081 C   0  0  0  0  0  0  0  0  0  0  0  0
    7.4297    7.5873   24.8962 C   0  0  0  0  0  0  0  0  0  0  0  0
    8.1566   10.0536   16.0516 O   0  0  0  0  0  0  0  0  0  0  0  0
   12.4989    6.2074   20.1776 C   0  0  0  0  0  0  0  0  0  0  0  0
    6.9192    9.1053   20.9073 O   0  0  0  0  0  0  0  0  0  0  0  0
   14.3979    6.0729   18.7784 C   0  0  0  0  0  0  0  0  0  0  0  0
    8.6811    9.5354   16.9998 C   0  0  0  0  0  0  0  0  0  0  0  0
    9.2512    4.2713   13.7653 O   0  0  0  0  0  0  0  0  0  0  0  0
    9.6495    8.6317   16.8332 N   0  0  0  0  0  0  0  0  0  0  0  0
    6.2934    8.6988   23.1988 O   0  0  0  0  0  0  0  0  0  0  0  0
    7.9806    8.6543   20.5437 C   0  0  0  0  0  0  0  0  0  0  0  0
   13.7270    5.7144   19.8610 O   0  0  0  0  0  0  0  0  0  0  0  0
    8.3351    5.5235   15.4478 C   0  0  0  0  0  0  0  0  0  0  0  0
    8.7700    7.8434   21.3915 C   0  0  0  0  0  0  0  0  0  0  0  0
   11.7856    6.8851   19.2401 C   0  0  0  0  0  0  0  0  0  0  0  0
   10.5281    7.4276   19.5649 C   0  0  0  0  0  0  0  0  0  0  0  0
   10.0256    7.2907   20.8484 C   0  0  0  0  0  0  0  0  0  0  0  0
    9.3113    5.3049   14.4911 C   0  0  0  0  0  0  0  0  0  0  0  0
    9.4607    7.5646   16.0139 C   0  0  0  0  0  0  0  0  0  0  0  0
   10.4192    7.3157   15.0955 C   0  0  0  0  0  0  0  0  0  0  0  0
   10.2489    6.4227   23.0218 N   0  0  0  0  0  0  0  0  0  0  0  0
    7.2472    8.0746   23.5050 C   0  0  0  0  0  0  0  0  0  0  0  0
    9.2051    6.9101   23.4604 C   0  0  0  0  0  0  0  0  0  0  0  0
   11.9646    6.0299   21.4251 C   0  0  0  0  0  0  0  0  0  0  0  0
  1  5  1  0
  1 13  1  0
  2 20  2  0
  2 28  1  0
  2 29  1  0
  3 19  4  0
  3 25  4  0
  4 23  4  0
  4 27  1  0
  4 30  4  0
  5 17  1  0
  6  8  1  0
  6 29  1  0
  7 24  4  0
  7 26  4  0
  8 28  1  0
  9 13  2  0
 10 18  1  0
 10 21  4  0
 10 30  4  0
 11 17  2  0
 12 18  1  0
 13 15  1  0
 14 24  1  0
 15 25  1  0
 16 28  2  0
 17 20  1  0
 19 24  4  0
 20 23  1  0
 21 22  4  0
 22 23  4  0
 25 26  4  0
 27 29  2  0
M  END
$$$$

 Created by Python create_sdf_string function

 30 33  0  0  0  0  0  0  0  0999 V2000
    8.3036    9.8571   18.4133 C   0  0  0  0  0  0  0  0  0  0  0  0
    8.3694    7.6612   22.6703 C   0  0  0  0  0  0  0  0  0  0  0  0
    8.4143    6.6863   16.2273 C   0  0  0  0  0  0  0  0  0  0  0  0
   10.7581    6.5674   21.7636 C   0  0  0  0  0  0  0  0  0  0  0  0
    8.4452    8.7960   19.2958 O   0  0  0  0  0  0  0  0  0  0  0  0
    8.7122    6.7842   24.8569 C   0  0  0  0  0  0  0  0  0  0  0  0
   10.3400    6.1726   14.3081 C   0  0  0  0  0  0  0  0  0  0  0  0
    7.4297    7.5873   24.8962 C   0  0  0  0  0  0  0  0  0  0  0  0
    8.1566   10.0536   16.0516 O   0  0  0  0  0  0  0  0  0  0  0  0
   12.4989    6.2074   20.1776 C   0  0  0  0  0  0  0  0  0  0  0  0
    6.9192    9.1053   20.9073 O   0  0  0  0  0  0  0  0  0  0  0  0
   14.3979    6.0729   18.7784 C   0  0  0  0  0  0  0  0  0  0  0  0
    8.6811    9.5354   16.9998 C   0  0  0  0  0  0  0  0  0  0  0  0
    9.2512    4.2713   13.7653 O   0  0  0  0  0  0  0  0  0  0  0  0
    9.6495    8.6317   16.8332 N   0  0  0  0  0  0  0  0  0  0  0  0
    6.2934    8.6988   23.1988 O   0  0  0  0  0  0  0  0  0  0  0  0
    7.9806    8.6543   20.5437 C   0  0  0  0  0  0  0  0  0  0  0  0
   13.7270    5.7144   19.8610 O   0  0  0  0  0  0  0  0  0  0  0  0
    8.3351    5.5235   15.4478 C   0  0  0  0  0  0  0  0  0  0  0  0
    8.7700    7.8434   21.3915 C   0  0  0  0  0  0  0  0  0  0  0  0
   11.7856    6.8851   19.2401 C   0  0  0  0  0  0  0  0  0  0  0  0
   10.5281    7.4276   19.5649 C   0  0  0  0  0  0  0  0  0  0  0  0
   10.0256    7.2907   20.8484 C   0  0  0  0  0  0  0  0  0  0  0  0
    9.3113    5.3049   14.4911 C   0  0  0  0  0  0  0  0  0  0  0  0
    9.4607    7.5646   16.0139 C   0  0  0  0  0  0  0  0  0  0  0  0
   10.4192    7.3157   15.0955 C   0  0  0  0  0  0  0  0  0  0  0  0
   10.2489    6.4227   23.0218 N   0  0  0  0  0  0  0  0  0  0  0  0
    7.2472    8.0746   23.5050 C   0  0  0  0  0  0  0  0  0  0  0  0
    9.2051    6.9101   23.4604 C   0  0  0  0  0  0  0  0  0  0  0  0
   11.9646    6.0299   21.4251 C   0  0  0  0  0  0  0  0  0  0  0  0
  1  5  1  0
  1 13  1  0
  2 20  2  0
  2 28  1  0
  2 29  1  0
  3 19  4  0
  3 25  4  0
  4 23  4  0
  4 27  1  0
  4 30  4  0
  5 17  1  0
  6  8  1  0
  6 29  1  0
  7 24  4  0
  7 26  4  0
  8 28  1  0
  9 13  2  0
 10 18  1  0
 10 21  4  0
 10 30  4  0
 11 17  2  0
 12 18  1  0
 13 15  1  0
 14 24  1  0
 15 25  1  0
 16 28  2  0
 17 20  1  0
 19 24  4  0
 20 23  1  0
 21 22  4  0
 22 23  4  0
 25 26  4  0
 27 29  2  0
M  END
$$$$

 Created by Python create_sdf_string function

 30 33  0  0  0  0  0  0  0  0999 V2000
    8.3036    9.8571   18.4133 C   0  0  0  0  0  0  0  0  0  0  0  0
    8.3694    7.6612   22.6703 C   0  0  0  0  0  0  0  0  0  0  0  0
    8.4143    6.6863   16.2273 C   0  0  0  0  0  0  0  0  0  0  0  0
   10.7581    6.5674   21.7636 C   0  0  0  0  0  0  0  0  0  0  0  0
    8.4452    8.7960   19.2958 O   0  0  0  0  0  0  0  0  0  0  0  0
    8.7122    6.7842   24.8569 C   0  0  0  0  0  0  0  0  0  0  0  0
   10.3400    6.1726   14.3081 C   0  0  0  0  0  0  0  0  0  0  0  0
    7.4297    7.5873   24.8962 C   0  0  0  0  0  0  0  0  0  0  0  0
    8.1566   10.0536   16.0516 O   0  0  0  0  0  0  0  0  0  0  0  0
   12.4989    6.2074   20.1776 C   0  0  0  0  0  0  0  0  0  0  0  0
    6.9192    9.1053   20.9073 O   0  0  0  0  0  0  0  0  0  0  0  0
   14.3979    6.0729   18.7784 C   0  0  0  0  0  0  0  0  0  0  0  0
    8.6811    9.5354   16.9998 C   0  0  0  0  0  0  0  0  0  0  0  0
    9.2512    4.2713   13.7653 O   0  0  0  0  0  0  0  0  0  0  0  0
    9.6495    8.6317   16.8332 N   0  0  0  0  0  0  0  0  0  0  0  0
    6.2934    8.6988   23.1988 O   0  0  0  0  0  0  0  0  0  0  0  0
    7.9806    8.6543   20.5437 C   0  0  0  0  0  0  0  0  0  0  0  0
   13.7270    5.7144   19.8610 O   0  0  0  0  0  0  0  0  0  0  0  0
    8.3351    5.5235   15.4478 C   0  0  0  0  0  0  0  0  0  0  0  0
    8.7700    7.8434   21.3915 C   0  0  0  0  0  0  0  0  0  0  0  0
   11.7856    6.8851   19.2401 C   0  0  0  0  0  0  0  0  0  0  0  0
   10.5281    7.4276   19.5649 C   0  0  0  0  0  0  0  0  0  0  0  0
   10.0256    7.2907   20.8484 C   0  0  0  0  0  0  0  0  0  0  0  0
    9.3113    5.3049   14.4911 C   0  0  0  0  0  0  0  0  0  0  0  0
    9.4607    7.5646   16.0139 C   0  0  0  0  0  0  0  0  0  0  0  0
   10.4192    7.3157   15.0955 C   0  0  0  0  0  0  0  0  0  0  0  0
   10.2489    6.4227   23.0218 N   0  0  0  0  0  0  0  0  0  0  0  0
    7.2472    8.0746   23.5050 C   0  0  0  0  0  0  0  0  0  0  0  0
    9.2051    6.9101   23.4604 C   0  0  0  0  0  0  0  0  0  0  0  0
   11.9646    6.0299   21.4251 C   0  0  0  0  0  0  0  0  0  0  0  0
  1  5  1  0
  1 13  1  0
  2 20  2  0
  2 28  1  0
  2 29  1  0
  3 19  4  0
  3 25  4  0
  4 23  4  0
  4 27  1  0
  4 30  4  0
  5 17  1  0
  6  8  1  0
  6 29  1  0
  7 24  4  0
  7 26  4  0
  8 28  1  0
  9 13  2  0
 10 18  1  0
 10 21  4  0
 10 30  4  0
 11 17  2  0
 12 18  1  0
 13 15  1  0
 14 24  1  0
 15 25  1  0
 16 28  2  0
 17 20  1  0
 19 24  4  0
 20 23  1  0
 21 22  4  0
 22 23  4  0
 25 26  4  0
 27 29  2  0
M  END
$$$$

 Created by Python create_sdf_string function

 30 33  0  0  0  0  0  0  0  0999 V2000
    8.3036    9.8571   18.4133 C   0  0  0  0  0  0  0  0  0  0  0  0
    8.3694    7.6612   22.6703 C   0  0  0  0  0  0  0  0  0  0  0  0
    8.4143    6.6863   16.2273 C   0  0  0  0  0  0  0  0  0  0  0  0
   10.7581    6.5674   21.7636 C   0  0  0  0  0  0  0  0  0  0  0  0
    8.4452    8.7960   19.2958 O   0  0  0  0  0  0  0  0  0  0  0  0
    8.7122    6.7842   24.8569 C   0  0  0  0  0  0  0  0  0  0  0  0
   10.3400    6.1726   14.3081 C   0  0  0  0  0  0  0  0  0  0  0  0
    7.4297    7.5873   24.8962 C   0  0  0  0  0  0  0  0  0  0  0  0
    8.1566   10.0536   16.0516 O   0  0  0  0  0  0  0  0  0  0  0  0
   12.4989    6.2074   20.1776 C   0  0  0  0  0  0  0  0  0  0  0  0
    6.9192    9.1053   20.9073 O   0  0  0  0  0  0  0  0  0  0  0  0
   14.3979    6.0729   18.7784 C   0  0  0  0  0  0  0  0  0  0  0  0
    8.6811    9.5354   16.9998 C   0  0  0  0  0  0  0  0  0  0  0  0
    9.2512    4.2713   13.7653 O   0  0  0  0  0  0  0  0  0  0  0  0
    9.6495    8.6317   16.8332 N   0  0  0  0  0  0  0  0  0  0  0  0
    6.2934    8.6988   23.1988 O   0  0  0  0  0  0  0  0  0  0  0  0
    7.9806    8.6543   20.5437 C   0  0  0  0  0  0  0  0  0  0  0  0
   13.7270    5.7144   19.8610 O   0  0  0  0  0  0  0  0  0  0  0  0
    8.3351    5.5235   15.4478 C   0  0  0  0  0  0  0  0  0  0  0  0
    8.7700    7.8434   21.3915 C   0  0  0  0  0  0  0  0  0  0  0  0
   11.7856    6.8851   19.2401 C   0  0  0  0  0  0  0  0  0  0  0  0
   10.5281    7.4276   19.5649 C   0  0  0  0  0  0  0  0  0  0  0  0
   10.0256    7.2907   20.8484 C   0  0  0  0  0  0  0  0  0  0  0  0
    9.3113    5.3049   14.4911 C   0  0  0  0  0  0  0  0  0  0  0  0
    9.4607    7.5646   16.0139 C   0  0  0  0  0  0  0  0  0  0  0  0
   10.4192    7.3157   15.0955 C   0  0  0  0  0  0  0  0  0  0  0  0
   10.2489    6.4227   23.0218 N   0  0  0  0  0  0  0  0  0  0  0  0
    7.2472    8.0746   23.5050 C   0  0  0  0  0  0  0  0  0  0  0  0
    9.2051    6.9101   23.4604 C   0  0  0  0  0  0  0  0  0  0  0  0
   11.9646    6.0299   21.4251 C   0  0  0  0  0  0  0  0  0  0  0  0
  1  5  1  0
  1 13  1  0
  2 20  2  0
  2 28  1  0
  2 29  1  0
  3 19  4  0
  3 25  4  0
  4 23  4  0
  4 27  1  0
  4 30  4  0
  5 17  1  0
  6  8  1  0
  6 29  1  0
  7 24  4  0
  7 26  4  0
  8 28  1  0
  9 13  2  0
 10 18  1  0
 10 21  4  0
 10 30  4  0
 11 17  2  0
 12 18  1  0
 13 15  1  0
 14 24  1  0
 15 25  1  0
 16 28  2  0
 17 20  1  0
 19 24  4  0
 20 23  1  0
 21 22  4  0
 22 23  4  0
 25 26  4  0
 27 29  2  0
M  END
$$$$

 Created by Python create_sdf_string function

 30 33  0  0  0  0  0  0  0  0999 V2000
    8.3036    9.8571   18.4133 C   0  0  0  0  0  0  0  0  0  0  0  0
    8.3694    7.6612   22.6703 C   0  0  0  0  0  0  0  0  0  0  0  0
    8.4143    6.6863   16.2273 C   0  0  0  0  0  0  0  0  0  0  0  0
   10.7581    6.5674   21.7636 C   0  0  0  0  0  0  0  0  0  0  0  0
    8.4452    8.7960   19.2958 O   0  0  0  0  0  0  0  0  0  0  0  0
    8.7122    6.7842   24.8569 C   0  0  0  0  0  0  0  0  0  0  0  0
   10.3400    6.1726   14.3081 C   0  0  0  0  0  0  0  0  0  0  0  0
    7.4297    7.5873   24.8962 C   0  0  0  0  0  0  0  0  0  0  0  0
    8.1566   10.0536   16.0516 O   0  0  0  0  0  0  0  0  0  0  0  0
   12.4989    6.2074   20.1776 C   0  0  0  0  0  0  0  0  0  0  0  0
    6.9192    9.1053   20.9073 O   0  0  0  0  0  0  0  0  0  0  0  0
   14.3979    6.0729   18.7784 C   0  0  0  0  0  0  0  0  0  0  0  0
    8.6811    9.5354   16.9998 C   0  0  0  0  0  0  0  0  0  0  0  0
    9.2512    4.2713   13.7653 O   0  0  0  0  0  0  0  0  0  0  0  0
    9.6495    8.6317   16.8332 N   0  0  0  0  0  0  0  0  0  0  0  0
    6.2934    8.6988   23.1988 O   0  0  0  0  0  0  0  0  0  0  0  0
    7.9806    8.6543   20.5437 C   0  0  0  0  0  0  0  0  0  0  0  0
   13.7270    5.7144   19.8610 O   0  0  0  0  0  0  0  0  0  0  0  0
    8.3351    5.5235   15.4478 C   0  0  0  0  0  0  0  0  0  0  0  0
    8.7700    7.8434   21.3915 C   0  0  0  0  0  0  0  0  0  0  0  0
   11.7856    6.8851   19.2401 C   0  0  0  0  0  0  0  0  0  0  0  0
   10.5281    7.4276   19.5649 C   0  0  0  0  0  0  0  0  0  0  0  0
   10.0256    7.2907   20.8484 C   0  0  0  0  0  0  0  0  0  0  0  0
    9.3113    5.3049   14.4911 C   0  0  0  0  0  0  0  0  0  0  0  0
    9.4607    7.5646   16.0139 C   0  0  0  0  0  0  0  0  0  0  0  0
   10.4192    7.3157   15.0955 C   0  0  0  0  0  0  0  0  0  0  0  0
   10.2489    6.4227   23.0218 N   0  0  0  0  0  0  0  0  0  0  0  0
    7.2472    8.0746   23.5050 C   0  0  0  0  0  0  0  0  0  0  0  0
    9.2051    6.9101   23.4604 C   0  0  0  0  0  0  0  0  0  0  0  0
   11.9646    6.0299   21.4251 C   0  0  0  0  0  0  0  0  0  0  0  0
  1  5  1  0
  1 13  1  0
  2 20  2  0
  2 28  1  0
  2 29  1  0
  3 19  4  0
  3 25  4  0
  4 23  4  0
  4 27  1  0
  4 30  4  0
  5 17  1  0
  6  8  1  0
  6 29  1  0
  7 24  4  0
  7 26  4  0
  8 28  1  0
  9 13  2  0
 10 18  1  0
 10 21  4  0
 10 30  4  0
 11 17  2  0
 12 18  1  0
 13 15  1  0
 14 24  1  0
 15 25  1  0
 16 28  2  0
 17 20  1  0
 19 24  4  0
 20 23  1  0
 21 22  4  0
 22 23  4  0
 25 26  4  0
 27 29  2  0
M  END
$$$$

 Created by Python create_sdf_string function

 30 33  0  0  0  0  0  0  0  0999 V2000
    8.3036    9.8571   18.4133 C   0  0  0  0  0  0  0  0  0  0  0  0
    8.3694    7.6612   22.6703 C   0  0  0  0  0  0  0  0  0  0  0  0
    8.4143    6.6863   16.2273 C   0  0  0  0  0  0  0  0  0  0  0  0
   10.7581    6.5674   21.7636 C   0  0  0  0  0  0  0  0  0  0  0  0
    8.4452    8.7960   19.2958 O   0  0  0  0  0  0  0  0  0  0  0  0
    8.7122    6.7842   24.8569 C   0  0  0  0  0  0  0  0  0  0  0  0
   10.3400    6.1726   14.3081 C   0  0  0  0  0  0  0  0  0  0  0  0
    7.4297    7.5873   24.8962 C   0  0  0  0  0  0  0  0  0  0  0  0
    8.1566   10.0536   16.0516 O   0  0  0  0  0  0  0  0  0  0  0  0
   12.4989    6.2074   20.1776 C   0  0  0  0  0  0  0  0  0  0  0  0
    6.9192    9.1053   20.9073 O   0  0  0  0  0  0  0  0  0  0  0  0
   14.3979    6.0729   18.7784 C   0  0  0  0  0  0  0  0  0  0  0  0
    8.6811    9.5354   16.9998 C   0  0  0  0  0  0  0  0  0  0  0  0
    9.2512    4.2713   13.7653 O   0  0  0  0  0  0  0  0  0  0  0  0
    9.6495    8.6317   16.8332 N   0  0  0  0  0  0  0  0  0  0  0  0
    6.2934    8.6988   23.1988 O   0  0  0  0  0  0  0  0  0  0  0  0
    7.9806    8.6543   20.5437 C   0  0  0  0  0  0  0  0  0  0  0  0
   13.7270    5.7144   19.8610 O   0  0  0  0  0  0  0  0  0  0  0  0
    8.3351    5.5235   15.4478 C   0  0  0  0  0  0  0  0  0  0  0  0
    8.7700    7.8434   21.3915 C   0  0  0  0  0  0  0  0  0  0  0  0
   11.7856    6.8851   19.2401 C   0  0  0  0  0  0  0  0  0  0  0  0
   10.5281    7.4276   19.5649 C   0  0  0  0  0  0  0  0  0  0  0  0
   10.0256    7.2907   20.8484 C   0  0  0  0  0  0  0  0  0  0  0  0
    9.3113    5.3049   14.4911 C   0  0  0  0  0  0  0  0  0  0  0  0
    9.4607    7.5646   16.0139 C   0  0  0  0  0  0  0  0  0  0  0  0
   10.4192    7.3157   15.0955 C   0  0  0  0  0  0  0  0  0  0  0  0
   10.2489    6.4227   23.0218 N   0  0  0  0  0  0  0  0  0  0  0  0
    7.2472    8.0746   23.5050 C   0  0  0  0  0  0  0  0  0  0  0  0
    9.2051    6.9101   23.4604 C   0  0  0  0  0  0  0  0  0  0  0  0
   11.9646    6.0299   21.4251 C   0  0  0  0  0  0  0  0  0  0  0  0
  1  5  1  0
  1 13  1  0
  2 20  2  0
  2 28  1  0
  2 29  1  0
  3 19  4  0
  3 25  4  0
  4 23  4  0
  4 27  1  0
  4 30  4  0
  5 17  1  0
  6  8  1  0
  6 29  1  0
  7 24  4  0
  7 26  4  0
  8 28  1  0
  9 13  2  0
 10 18  1  0
 10 21  4  0
 10 30  4  0
 11 17  2  0
 12 18  1  0
 13 15  1  0
 14 24  1  0
 15 25  1  0
 16 28  2  0
 17 20  1  0
 19 24  4  0
 20 23  1  0
 21 22  4  0
 22 23  4  0
 25 26  4  0
 27 29  2  0
M  END
$$$$

 Created by Python create_sdf_string function

 30 33  0  0  0  0  0  0  0  0999 V2000
    8.3036    9.8571   18.4133 C   0  0  0  0  0  0  0  0  0  0  0  0
    8.3694    7.6612   22.6703 C   0  0  0  0  0  0  0  0  0  0  0  0
    8.4143    6.6863   16.2273 C   0  0  0  0  0  0  0  0  0  0  0  0
   10.7581    6.5674   21.7636 C   0  0  0  0  0  0  0  0  0  0  0  0
    8.4452    8.7960   19.2958 O   0  0  0  0  0  0  0  0  0  0  0  0
    8.7122    6.7842   24.8569 C   0  0  0  0  0  0  0  0  0  0  0  0
   10.3400    6.1726   14.3081 C   0  0  0  0  0  0  0  0  0  0  0  0
    7.4297    7.5873   24.8962 C   0  0  0  0  0  0  0  0  0  0  0  0
    8.1566   10.0536   16.0516 O   0  0  0  0  0  0  0  0  0  0  0  0
   12.4989    6.2074   20.1776 C   0  0  0  0  0  0  0  0  0  0  0  0
    6.9192    9.1053   20.9073 O   0  0  0  0  0  0  0  0  0  0  0  0
   14.3979    6.0729   18.7784 C   0  0  0  0  0  0  0  0  0  0  0  0
    8.6811    9.5354   16.9998 C   0  0  0  0  0  0  0  0  0  0  0  0
    9.2512    4.2713   13.7653 O   0  0  0  0  0  0  0  0  0  0  0  0
    9.6495    8.6317   16.8332 N   0  0  0  0  0  0  0  0  0  0  0  0
    6.2934    8.6988   23.1988 O   0  0  0  0  0  0  0  0  0  0  0  0
    7.9806    8.6543   20.5437 C   0  0  0  0  0  0  0  0  0  0  0  0
   13.7270    5.7144   19.8610 O   0  0  0  0  0  0  0  0  0  0  0  0
    8.3351    5.5235   15.4478 C   0  0  0  0  0  0  0  0  0  0  0  0
    8.7700    7.8434   21.3915 C   0  0  0  0  0  0  0  0  0  0  0  0
   11.7856    6.8851   19.2401 C   0  0  0  0  0  0  0  0  0  0  0  0
   10.5281    7.4276   19.5649 C   0  0  0  0  0  0  0  0  0  0  0  0
   10.0256    7.2907   20.8484 C   0  0  0  0  0  0  0  0  0  0  0  0
    9.3113    5.3049   14.4911 C   0  0  0  0  0  0  0  0  0  0  0  0
    9.4607    7.5646   16.0139 C   0  0  0  0  0  0  0  0  0  0  0  0
   10.4192    7.3157   15.0955 C   0  0  0  0  0  0  0  0  0  0  0  0
   10.2489    6.4227   23.0218 N   0  0  0  0  0  0  0  0  0  0  0  0
    7.2472    8.0746   23.5050 C   0  0  0  0  0  0  0  0  0  0  0  0
    9.2051    6.9101   23.4604 C   0  0  0  0  0  0  0  0  0  0  0  0
   11.9646    6.0299   21.4251 C   0  0  0  0  0  0  0  0  0  0  0  0
  1  5  1  0
  1 13  1  0
  2 20  2  0
  2 28  1  0
  2 29  1  0
  3 19  4  0
  3 25  4  0
  4 23  4  0
  4 27  1  0
  4 30  4  0
  5 17  1  0
  6  8  1  0
  6 29  1  0
  7 24  4  0
  7 26  4  0
  8 28  1  0
  9 13  2  0
 10 18  1  0
 10 21  4  0
 10 30  4  0
 11 17  2  0
 12 18  1  0
 13 15  1  0
 14 24  1  0
 15 25  1  0
 16 28  2  0
 17 20  1  0
 19 24  4  0
 20 23  1  0
 21 22  4  0
 22 23  4  0
 25 26  4  0
 27 29  2  0
M  END
$$$$

 Created by Python create_sdf_string function

 30 33  0  0  0  0  0  0  0  0999 V2000
    8.3036    9.8571   18.4133 C   0  0  0  0  0  0  0  0  0  0  0  0
    8.3694    7.6612   22.6703 C   0  0  0  0  0  0  0  0  0  0  0  0
    8.4143    6.6863   16.2273 C   0  0  0  0  0  0  0  0  0  0  0  0
   10.7581    6.5674   21.7636 C   0  0  0  0  0  0  0  0  0  0  0  0
    8.4452    8.7960   19.2958 O   0  0  0  0  0  0  0  0  0  0  0  0
    8.7122    6.7842   24.8569 C   0  0  0  0  0  0  0  0  0  0  0  0
   10.3400    6.1726   14.3081 C   0  0  0  0  0  0  0  0  0  0  0  0
    7.4297    7.5873   24.8962 C   0  0  0  0  0  0  0  0  0  0  0  0
    8.1566   10.0536   16.0516 O   0  0  0  0  0  0  0  0  0  0  0  0
   12.4989    6.2074   20.1776 C   0  0  0  0  0  0  0  0  0  0  0  0
    6.9192    9.1053   20.9073 O   0  0  0  0  0  0  0  0  0  0  0  0
   14.3979    6.0729   18.7784 C   0  0  0  0  0  0  0  0  0  0  0  0
    8.6811    9.5354   16.9998 C   0  0  0  0  0  0  0  0  0  0  0  0
    9.2512    4.2713   13.7653 O   0  0  0  0  0  0  0  0  0  0  0  0
    9.6495    8.6317   16.8332 N   0  0  0  0  0  0  0  0  0  0  0  0
    6.2934    8.6988   23.1988 O   0  0  0  0  0  0  0  0  0  0  0  0
    7.9806    8.6543   20.5437 C   0  0  0  0  0  0  0  0  0  0  0  0
   13.7270    5.7144   19.8610 O   0  0  0  0  0  0  0  0  0  0  0  0
    8.3351    5.5235   15.4478 C   0  0  0  0  0  0  0  0  0  0  0  0
    8.7700    7.8434   21.3915 C   0  0  0  0  0  0  0  0  0  0  0  0
   11.7856    6.8851   19.2401 C   0  0  0  0  0  0  0  0  0  0  0  0
   10.5281    7.4276   19.5649 C   0  0  0  0  0  0  0  0  0  0  0  0
   10.0256    7.2907   20.8484 C   0  0  0  0  0  0  0  0  0  0  0  0
    9.3113    5.3049   14.4911 C   0  0  0  0  0  0  0  0  0  0  0  0
    9.4607    7.5646   16.0139 C   0  0  0  0  0  0  0  0  0  0  0  0
   10.4192    7.3157   15.0955 C   0  0  0  0  0  0  0  0  0  0  0  0
   10.2489    6.4227   23.0218 N   0  0  0  0  0  0  0  0  0  0  0  0
    7.2472    8.0746   23.5050 C   0  0  0  0  0  0  0  0  0  0  0  0
    9.2051    6.9101   23.4604 C   0  0  0  0  0  0  0  0  0  0  0  0
   11.9646    6.0299   21.4251 C   0  0  0  0  0  0  0  0  0  0  0  0
  1  5  1  0
  1 13  1  0
  2 20  2  0
  2 28  1  0
  2 29  1  0
  3 19  4  0
  3 25  4  0
  4 23  4  0
  4 27  1  0
  4 30  4  0
  5 17  1  0
  6  8  1  0
  6 29  1  0
  7 24  4  0
  7 26  4  0
  8 28  1  0
  9 13  2  0
 10 18  1  0
 10 21  4  0
 10 30  4  0
 11 17  2  0
 12 18  1  0
 13 15  1  0
 14 24  1  0
 15 25  1  0
 16 28  2  0
 17 20  1  0
 19 24  4  0
 20 23  1  0
 21 22  4  0
 22 23  4  0
 25 26  4  0
 27 29  2  0
M  END
$$$$

 Created by Python create_sdf_string function

 30 33  0  0  0  0  0  0  0  0999 V2000
    8.3036    9.8571   18.4133 C   0  0  0  0  0  0  0  0  0  0  0  0
    8.3694    7.6612   22.6703 C   0  0  0  0  0  0  0  0  0  0  0  0
    8.4143    6.6863   16.2273 C   0  0  0  0  0  0  0  0  0  0  0  0
   10.7581    6.5674   21.7636 C   0  0  0  0  0  0  0  0  0  0  0  0
    8.4452    8.7960   19.2958 O   0  0  0  0  0  0  0  0  0  0  0  0
    8.7122    6.7842   24.8569 C   0  0  0  0  0  0  0  0  0  0  0  0
   10.3400    6.1726   14.3081 C   0  0  0  0  0  0  0  0  0  0  0  0
    7.4297    7.5873   24.8962 C   0  0  0  0  0  0  0  0  0  0  0  0
    8.1566   10.0536   16.0516 O   0  0  0  0  0  0  0  0  0  0  0  0
   12.4989    6.2074   20.1776 C   0  0  0  0  0  0  0  0  0  0  0  0
    6.9192    9.1053   20.9073 O   0  0  0  0  0  0  0  0  0  0  0  0
   14.3979    6.0729   18.7784 C   0  0  0  0  0  0  0  0  0  0  0  0
    8.6811    9.5354   16.9998 C   0  0  0  0  0  0  0  0  0  0  0  0
    9.2512    4.2713   13.7653 O   0  0  0  0  0  0  0  0  0  0  0  0
    9.6495    8.6317   16.8332 N   0  0  0  0  0  0  0  0  0  0  0  0
    6.2934    8.6988   23.1988 O   0  0  0  0  0  0  0  0  0  0  0  0
    7.9806    8.6543   20.5437 C   0  0  0  0  0  0  0  0  0  0  0  0
   13.7270    5.7144   19.8610 O   0  0  0  0  0  0  0  0  0  0  0  0
    8.3351    5.5235   15.4478 C   0  0  0  0  0  0  0  0  0  0  0  0
    8.7700    7.8434   21.3915 C   0  0  0  0  0  0  0  0  0  0  0  0
   11.7856    6.8851   19.2401 C   0  0  0  0  0  0  0  0  0  0  0  0
   10.5281    7.4276   19.5649 C   0  0  0  0  0  0  0  0  0  0  0  0
   10.0256    7.2907   20.8484 C   0  0  0  0  0  0  0  0  0  0  0  0
    9.3113    5.3049   14.4911 C   0  0  0  0  0  0  0  0  0  0  0  0
    9.4607    7.5646   16.0139 C   0  0  0  0  0  0  0  0  0  0  0  0
   10.4192    7.3157   15.0955 C   0  0  0  0  0  0  0  0  0  0  0  0
   10.2489    6.4227   23.0218 N   0  0  0  0  0  0  0  0  0  0  0  0
    7.2472    8.0746   23.5050 C   0  0  0  0  0  0  0  0  0  0  0  0
    9.2051    6.9101   23.4604 C   0  0  0  0  0  0  0  0  0  0  0  0
   11.9646    6.0299   21.4251 C   0  0  0  0  0  0  0  0  0  0  0  0
  1  5  1  0
  1 13  1  0
  2 20  2  0
  2 28  1  0
  2 29  1  0
  3 19  4  0
  3 25  4  0
  4 23  4  0
  4 27  1  0
  4 30  4  0
  5 17  1  0
  6  8  1  0
  6 29  1  0
  7 24  4  0
  7 26  4  0
  8 28  1  0
  9 13  2  0
 10 18  1  0
 10 21  4  0
 10 30  4  0
 11 17  2  0
 12 18  1  0
 13 15  1  0
 14 24  1  0
 15 25  1  0
 16 28  2  0
 17 20  1  0
 19 24  4  0
 20 23  1  0
 21 22  4  0
 22 23  4  0
 25 26  4  0
 27 29  2  0
M  END
$$$$

 Created by Python create_sdf_string function

 30 33  0  0  0  0  0  0  0  0999 V2000
    8.3036    9.8571   18.4133 C   0  0  0  0  0  0  0  0  0  0  0  0
    8.3694    7.6612   22.6703 C   0  0  0  0  0  0  0  0  0  0  0  0
    8.4143    6.6863   16.2273 C   0  0  0  0  0  0  0  0  0  0  0  0
   10.7581    6.5674   21.7636 C   0  0  0  0  0  0  0  0  0  0  0  0
    8.4452    8.7960   19.2958 O   0  0  0  0  0  0  0  0  0  0  0  0
    8.7122    6.7842   24.8569 C   0  0  0  0  0  0  0  0  0  0  0  0
   10.3400    6.1726   14.3081 C   0  0  0  0  0  0  0  0  0  0  0  0
    7.4297    7.5873   24.8962 C   0  0  0  0  0  0  0  0  0  0  0  0
    8.1566   10.0536   16.0516 O   0  0  0  0  0  0  0  0  0  0  0  0
   12.4989    6.2074   20.1776 C   0  0  0  0  0  0  0  0  0  0  0  0
    6.9192    9.1053   20.9073 O   0  0  0  0  0  0  0  0  0  0  0  0
   14.3979    6.0729   18.7784 C   0  0  0  0  0  0  0  0  0  0  0  0
    8.6811    9.5354   16.9998 C   0  0  0  0  0  0  0  0  0  0  0  0
    9.2512    4.2713   13.7653 O   0  0  0  0  0  0  0  0  0  0  0  0
    9.6495    8.6317   16.8332 N   0  0  0  0  0  0  0  0  0  0  0  0
    6.2934    8.6988   23.1988 O   0  0  0  0  0  0  0  0  0  0  0  0
    7.9806    8.6543   20.5437 C   0  0  0  0  0  0  0  0  0  0  0  0
   13.7270    5.7144   19.8610 O   0  0  0  0  0  0  0  0  0  0  0  0
    8.3351    5.5235   15.4478 C   0  0  0  0  0  0  0  0  0  0  0  0
    8.7700    7.8434   21.3915 C   0  0  0  0  0  0  0  0  0  0  0  0
   11.7856    6.8851   19.2401 C   0  0  0  0  0  0  0  0  0  0  0  0
   10.5281    7.4276   19.5649 C   0  0  0  0  0  0  0  0  0  0  0  0
   10.0256    7.2907   20.8484 C   0  0  0  0  0  0  0  0  0  0  0  0
    9.3113    5.3049   14.4911 C   0  0  0  0  0  0  0  0  0  0  0  0
    9.4607    7.5646   16.0139 C   0  0  0  0  0  0  0  0  0  0  0  0
   10.4192    7.3157   15.0955 C   0  0  0  0  0  0  0  0  0  0  0  0
   10.2489    6.4227   23.0218 N   0  0  0  0  0  0  0  0  0  0  0  0
    7.2472    8.0746   23.5050 C   0  0  0  0  0  0  0  0  0  0  0  0
    9.2051    6.9101   23.4604 C   0  0  0  0  0  0  0  0  0  0  0  0
   11.9646    6.0299   21.4251 C   0  0  0  0  0  0  0  0  0  0  0  0
  1  5  1  0
  1 13  1  0
  2 20  2  0
  2 28  1  0
  2 29  1  0
  3 19  4  0
  3 25  4  0
  4 23  4  0
  4 27  1  0
  4 30  4  0
  5 17  1  0
  6  8  1  0
  6 29  1  0
  7 24  4  0
  7 26  4  0
  8 28  1  0
  9 13  2  0
 10 18  1  0
 10 21  4  0
 10 30  4  0
 11 17  2  0
 12 18  1  0
 13 15  1  0
 14 24  1  0
 15 25  1  0
 16 28  2  0
 17 20  1  0
 19 24  4  0
 20 23  1  0
 21 22  4  0
 22 23  4  0
 25 26  4  0
 27 29  2  0
M  END
$$$$

 Created by Python create_sdf_string function

 30 33  0  0  0  0  0  0  0  0999 V2000
    8.3036    9.8571   18.4133 C   0  0  0  0  0  0  0  0  0  0  0  0
    8.3694    7.6612   22.6703 C   0  0  0  0  0  0  0  0  0  0  0  0
    8.4143    6.6863   16.2273 C   0  0  0  0  0  0  0  0  0  0  0  0
   10.7581    6.5674   21.7636 C   0  0  0  0  0  0  0  0  0  0  0  0
    8.4452    8.7960   19.2958 O   0  0  0  0  0  0  0  0  0  0  0  0
    8.7122    6.7842   24.8569 C   0  0  0  0  0  0  0  0  0  0  0  0
   10.3400    6.1726   14.3081 C   0  0  0  0  0  0  0  0  0  0  0  0
    7.4297    7.5873   24.8962 C   0  0  0  0  0  0  0  0  0  0  0  0
    8.1566   10.0536   16.0516 O   0  0  0  0  0  0  0  0  0  0  0  0
   12.4989    6.2074   20.1776 C   0  0  0  0  0  0  0  0  0  0  0  0
    6.9192    9.1053   20.9073 O   0  0  0  0  0  0  0  0  0  0  0  0
   14.3979    6.0729   18.7784 C   0  0  0  0  0  0  0  0  0  0  0  0
    8.6811    9.5354   16.9998 C   0  0  0  0  0  0  0  0  0  0  0  0
    9.2512    4.2713   13.7653 O   0  0  0  0  0  0  0  0  0  0  0  0
    9.6495    8.6317   16.8332 N   0  0  0  0  0  0  0  0  0  0  0  0
    6.2934    8.6988   23.1988 O   0  0  0  0  0  0  0  0  0  0  0  0
    7.9806    8.6543   20.5437 C   0  0  0  0  0  0  0  0  0  0  0  0
   13.7270    5.7144   19.8610 O   0  0  0  0  0  0  0  0  0  0  0  0
    8.3351    5.5235   15.4478 C   0  0  0  0  0  0  0  0  0  0  0  0
    8.7700    7.8434   21.3915 C   0  0  0  0  0  0  0  0  0  0  0  0
   11.7856    6.8851   19.2401 C   0  0  0  0  0  0  0  0  0  0  0  0
   10.5281    7.4276   19.5649 C   0  0  0  0  0  0  0  0  0  0  0  0
   10.0256    7.2907   20.8484 C   0  0  0  0  0  0  0  0  0  0  0  0
    9.3113    5.3049   14.4911 C   0  0  0  0  0  0  0  0  0  0  0  0
    9.4607    7.5646   16.0139 C   0  0  0  0  0  0  0  0  0  0  0  0
   10.4192    7.3157   15.0955 C   0  0  0  0  0  0  0  0  0  0  0  0
   10.2489    6.4227   23.0218 N   0  0  0  0  0  0  0  0  0  0  0  0
    7.2472    8.0746   23.5050 C   0  0  0  0  0  0  0  0  0  0  0  0
    9.2051    6.9101   23.4604 C   0  0  0  0  0  0  0  0  0  0  0  0
   11.9646    6.0299   21.4251 C   0  0  0  0  0  0  0  0  0  0  0  0
  1  5  1  0
  1 13  1  0
  2 20  2  0
  2 28  1  0
  2 29  1  0
  3 19  4  0
  3 25  4  0
  4 23  4  0
  4 27  1  0
  4 30  4  0
  5 17  1  0
  6  8  1  0
  6 29  1  0
  7 24  4  0
  7 26  4  0
  8 28  1  0
  9 13  2  0
 10 18  1  0
 10 21  4  0
 10 30  4  0
 11 17  2  0
 12 18  1  0
 13 15  1  0
 14 24  1  0
 15 25  1  0
 16 28  2  0
 17 20  1  0
 19 24  4  0
 20 23  1  0
 21 22  4  0
 22 23  4  0
 25 26  4  0
 27 29  2  0
M  END
$$$$

 Created by Python create_sdf_string function

 30 33  0  0  0  0  0  0  0  0999 V2000
    8.3036    9.8571   18.4133 C   0  0  0  0  0  0  0  0  0  0  0  0
    8.3694    7.6612   22.6703 C   0  0  0  0  0  0  0  0  0  0  0  0
    8.4143    6.6863   16.2273 C   0  0  0  0  0  0  0  0  0  0  0  0
   10.7581    6.5674   21.7636 C   0  0  0  0  0  0  0  0  0  0  0  0
    8.4452    8.7960   19.2958 O   0  0  0  0  0  0  0  0  0  0  0  0
    8.7122    6.7842   24.8569 C   0  0  0  0  0  0  0  0  0  0  0  0
   10.3400    6.1726   14.3081 C   0  0  0  0  0  0  0  0  0  0  0  0
    7.4297    7.5873   24.8962 C   0  0  0  0  0  0  0  0  0  0  0  0
    8.1566   10.0536   16.0516 O   0  0  0  0  0  0  0  0  0  0  0  0
   12.4989    6.2074   20.1776 C   0  0  0  0  0  0  0  0  0  0  0  0
    6.9192    9.1053   20.9073 O   0  0  0  0  0  0  0  0  0  0  0  0
   14.3979    6.0729   18.7784 C   0  0  0  0  0  0  0  0  0  0  0  0
    8.6811    9.5354   16.9998 C   0  0  0  0  0  0  0  0  0  0  0  0
    9.2512    4.2713   13.7653 O   0  0  0  0  0  0  0  0  0  0  0  0
    9.6495    8.6317   16.8332 N   0  0  0  0  0  0  0  0  0  0  0  0
    6.2934    8.6988   23.1988 O   0  0  0  0  0  0  0  0  0  0  0  0
    7.9806    8.6543   20.5437 C   0  0  0  0  0  0  0  0  0  0  0  0
   13.7270    5.7144   19.8610 O   0  0  0  0  0  0  0  0  0  0  0  0
    8.3351    5.5235   15.4478 C   0  0  0  0  0  0  0  0  0  0  0  0
    8.7700    7.8434   21.3915 C   0  0  0  0  0  0  0  0  0  0  0  0
   11.7856    6.8851   19.2401 C   0  0  0  0  0  0  0  0  0  0  0  0
   10.5281    7.4276   19.5649 C   0  0  0  0  0  0  0  0  0  0  0  0
   10.0256    7.2907   20.8484 C   0  0  0  0  0  0  0  0  0  0  0  0
    9.3113    5.3049   14.4911 C   0  0  0  0  0  0  0  0  0  0  0  0
    9.4607    7.5646   16.0139 C   0  0  0  0  0  0  0  0  0  0  0  0
   10.4192    7.3157   15.0955 C   0  0  0  0  0  0  0  0  0  0  0  0
   10.2489    6.4227   23.0218 N   0  0  0  0  0  0  0  0  0  0  0  0
    7.2472    8.0746   23.5050 C   0  0  0  0  0  0  0  0  0  0  0  0
    9.2051    6.9101   23.4604 C   0  0  0  0  0  0  0  0  0  0  0  0
   11.9646    6.0299   21.4251 C   0  0  0  0  0  0  0  0  0  0  0  0
  1  5  1  0
  1 13  1  0
  2 20  2  0
  2 28  1  0
  2 29  1  0
  3 19  4  0
  3 25  4  0
  4 23  4  0
  4 27  1  0
  4 30  4  0
  5 17  1  0
  6  8  1  0
  6 29  1  0
  7 24  4  0
  7 26  4  0
  8 28  1  0
  9 13  2  0
 10 18  1  0
 10 21  4  0
 10 30  4  0
 11 17  2  0
 12 18  1  0
 13 15  1  0
 14 24  1  0
 15 25  1  0
 16 28  2  0
 17 20  1  0
 19 24  4  0
 20 23  1  0
 21 22  4  0
 22 23  4  0
 25 26  4  0
 27 29  2  0
M  END
$$$$

 Created by Python create_sdf_string function

 30 33  0  0  0  0  0  0  0  0999 V2000
    8.3036    9.8571   18.4133 C   0  0  0  0  0  0  0  0  0  0  0  0
    8.3694    7.6612   22.6703 C   0  0  0  0  0  0  0  0  0  0  0  0
    8.4143    6.6863   16.2273 C   0  0  0  0  0  0  0  0  0  0  0  0
   10.7581    6.5674   21.7636 C   0  0  0  0  0  0  0  0  0  0  0  0
    8.4452    8.7960   19.2958 O   0  0  0  0  0  0  0  0  0  0  0  0
    8.7122    6.7842   24.8569 C   0  0  0  0  0  0  0  0  0  0  0  0
   10.3400    6.1726   14.3081 C   0  0  0  0  0  0  0  0  0  0  0  0
    7.4297    7.5873   24.8962 C   0  0  0  0  0  0  0  0  0  0  0  0
    8.1566   10.0536   16.0516 O   0  0  0  0  0  0  0  0  0  0  0  0
   12.4989    6.2074   20.1776 C   0  0  0  0  0  0  0  0  0  0  0  0
    6.9192    9.1053   20.9073 O   0  0  0  0  0  0  0  0  0  0  0  0
   14.3979    6.0729   18.7784 C   0  0  0  0  0  0  0  0  0  0  0  0
    8.6811    9.5354   16.9998 C   0  0  0  0  0  0  0  0  0  0  0  0
    9.2512    4.2713   13.7653 O   0  0  0  0  0  0  0  0  0  0  0  0
    9.6495    8.6317   16.8332 N   0  0  0  0  0  0  0  0  0  0  0  0
    6.2934    8.6988   23.1988 O   0  0  0  0  0  0  0  0  0  0  0  0
    7.9806    8.6543   20.5437 C   0  0  0  0  0  0  0  0  0  0  0  0
   13.7270    5.7144   19.8610 O   0  0  0  0  0  0  0  0  0  0  0  0
    8.3351    5.5235   15.4478 C   0  0  0  0  0  0  0  0  0  0  0  0
    8.7700    7.8434   21.3915 C   0  0  0  0  0  0  0  0  0  0  0  0
   11.7856    6.8851   19.2401 C   0  0  0  0  0  0  0  0  0  0  0  0
   10.5281    7.4276   19.5649 C   0  0  0  0  0  0  0  0  0  0  0  0
   10.0256    7.2907   20.8484 C   0  0  0  0  0  0  0  0  0  0  0  0
    9.3113    5.3049   14.4911 C   0  0  0  0  0  0  0  0  0  0  0  0
    9.4607    7.5646   16.0139 C   0  0  0  0  0  0  0  0  0  0  0  0
   10.4192    7.3157   15.0955 C   0  0  0  0  0  0  0  0  0  0  0  0
   10.2489    6.4227   23.0218 N   0  0  0  0  0  0  0  0  0  0  0  0
    7.2472    8.0746   23.5050 C   0  0  0  0  0  0  0  0  0  0  0  0
    9.2051    6.9101   23.4604 C   0  0  0  0  0  0  0  0  0  0  0  0
   11.9646    6.0299   21.4251 C   0  0  0  0  0  0  0  0  0  0  0  0
  1  5  1  0
  1 13  1  0
  2 20  2  0
  2 28  1  0
  2 29  1  0
  3 19  4  0
  3 25  4  0
  4 23  4  0
  4 27  1  0
  4 30  4  0
  5 17  1  0
  6  8  1  0
  6 29  1  0
  7 24  4  0
  7 26  4  0
  8 28  1  0
  9 13  2  0
 10 18  1  0
 10 21  4  0
 10 30  4  0
 11 17  2  0
 12 18  1  0
 13 15  1  0
 14 24  1  0
 15 25  1  0
 16 28  2  0
 17 20  1  0
 19 24  4  0
 20 23  1  0
 21 22  4  0
 22 23  4  0
 25 26  4  0
 27 29  2  0
M  END
$$$$

 Created by Python create_sdf_string function

 30 33  0  0  0  0  0  0  0  0999 V2000
    8.3036    9.8571   18.4133 C   0  0  0  0  0  0  0  0  0  0  0  0
    8.3694    7.6612   22.6703 C   0  0  0  0  0  0  0  0  0  0  0  0
    8.4143    6.6863   16.2273 C   0  0  0  0  0  0  0  0  0  0  0  0
   10.7581    6.5674   21.7636 C   0  0  0  0  0  0  0  0  0  0  0  0
    8.4452    8.7960   19.2958 O   0  0  0  0  0  0  0  0  0  0  0  0
    8.7122    6.7842   24.8569 C   0  0  0  0  0  0  0  0  0  0  0  0
   10.3400    6.1726   14.3081 C   0  0  0  0  0  0  0  0  0  0  0  0
    7.4297    7.5873   24.8962 C   0  0  0  0  0  0  0  0  0  0  0  0
    8.1566   10.0536   16.0516 O   0  0  0  0  0  0  0  0  0  0  0  0
   12.4989    6.2074   20.1776 C   0  0  0  0  0  0  0  0  0  0  0  0
    6.9192    9.1053   20.9073 O   0  0  0  0  0  0  0  0  0  0  0  0
   14.3979    6.0729   18.7784 C   0  0  0  0  0  0  0  0  0  0  0  0
    8.6811    9.5354   16.9998 C   0  0  0  0  0  0  0  0  0  0  0  0
    9.2512    4.2713   13.7653 O   0  0  0  0  0  0  0  0  0  0  0  0
    9.6495    8.6317   16.8332 N   0  0  0  0  0  0  0  0  0  0  0  0
    6.2934    8.6988   23.1988 O   0  0  0  0  0  0  0  0  0  0  0  0
    7.9806    8.6543   20.5437 C   0  0  0  0  0  0  0  0  0  0  0  0
   13.7270    5.7144   19.8610 O   0  0  0  0  0  0  0  0  0  0  0  0
    8.3351    5.5235   15.4478 C   0  0  0  0  0  0  0  0  0  0  0  0
    8.7700    7.8434   21.3915 C   0  0  0  0  0  0  0  0  0  0  0  0
   11.7856    6.8851   19.2401 C   0  0  0  0  0  0  0  0  0  0  0  0
   10.5281    7.4276   19.5649 C   0  0  0  0  0  0  0  0  0  0  0  0
   10.0256    7.2907   20.8484 C   0  0  0  0  0  0  0  0  0  0  0  0
    9.3113    5.3049   14.4911 C   0  0  0  0  0  0  0  0  0  0  0  0
    9.4607    7.5646   16.0139 C   0  0  0  0  0  0  0  0  0  0  0  0
   10.4192    7.3157   15.0955 C   0  0  0  0  0  0  0  0  0  0  0  0
   10.2489    6.4227   23.0218 N   0  0  0  0  0  0  0  0  0  0  0  0
    7.2472    8.0746   23.5050 C   0  0  0  0  0  0  0  0  0  0  0  0
    9.2051    6.9101   23.4604 C   0  0  0  0  0  0  0  0  0  0  0  0
   11.9646    6.0299   21.4251 C   0  0  0  0  0  0  0  0  0  0  0  0
  1  5  1  0
  1 13  1  0
  2 20  2  0
  2 28  1  0
  2 29  1  0
  3 19  4  0
  3 25  4  0
  4 23  4  0
  4 27  1  0
  4 30  4  0
  5 17  1  0
  6  8  1  0
  6 29  1  0
  7 24  4  0
  7 26  4  0
  8 28  1  0
  9 13  2  0
 10 18  1  0
 10 21  4  0
 10 30  4  0
 11 17  2  0
 12 18  1  0
 13 15  1  0
 14 24  1  0
 15 25  1  0
 16 28  2  0
 17 20  1  0
 19 24  4  0
 20 23  1  0
 21 22  4  0
 22 23  4  0
 25 26  4  0
 27 29  2  0
M  END
$$$$

 Created by Python create_sdf_string function

 30 33  0  0  0  0  0  0  0  0999 V2000
    8.3036    9.8571   18.4133 C   0  0  0  0  0  0  0  0  0  0  0  0
    8.3694    7.6612   22.6703 C   0  0  0  0  0  0  0  0  0  0  0  0
    8.4143    6.6863   16.2273 C   0  0  0  0  0  0  0  0  0  0  0  0
   10.7581    6.5674   21.7636 C   0  0  0  0  0  0  0  0  0  0  0  0
    8.4452    8.7960   19.2958 O   0  0  0  0  0  0  0  0  0  0  0  0
    8.7122    6.7842   24.8569 C   0  0  0  0  0  0  0  0  0  0  0  0
   10.3400    6.1726   14.3081 C   0  0  0  0  0  0  0  0  0  0  0  0
    7.4297    7.5873   24.8962 C   0  0  0  0  0  0  0  0  0  0  0  0
    8.1566   10.0536   16.0516 O   0  0  0  0  0  0  0  0  0  0  0  0
   12.4989    6.2074   20.1776 C   0  0  0  0  0  0  0  0  0  0  0  0
    6.9192    9.1053   20.9073 O   0  0  0  0  0  0  0  0  0  0  0  0
   14.3979    6.0729   18.7784 C   0  0  0  0  0  0  0  0  0  0  0  0
    8.6811    9.5354   16.9998 C   0  0  0  0  0  0  0  0  0  0  0  0
    9.2512    4.2713   13.7653 O   0  0  0  0  0  0  0  0  0  0  0  0
    9.6495    8.6317   16.8332 N   0  0  0  0  0  0  0  0  0  0  0  0
    6.2934    8.6988   23.1988 O   0  0  0  0  0  0  0  0  0  0  0  0
    7.9806    8.6543   20.5437 C   0  0  0  0  0  0  0  0  0  0  0  0
   13.7270    5.7144   19.8610 O   0  0  0  0  0  0  0  0  0  0  0  0
    8.3351    5.5235   15.4478 C   0  0  0  0  0  0  0  0  0  0  0  0
    8.7700    7.8434   21.3915 C   0  0  0  0  0  0  0  0  0  0  0  0
   11.7856    6.8851   19.2401 C   0  0  0  0  0  0  0  0  0  0  0  0
   10.5281    7.4276   19.5649 C   0  0  0  0  0  0  0  0  0  0  0  0
   10.0256    7.2907   20.8484 C   0  0  0  0  0  0  0  0  0  0  0  0
    9.3113    5.3049   14.4911 C   0  0  0  0  0  0  0  0  0  0  0  0
    9.4607    7.5646   16.0139 C   0  0  0  0  0  0  0  0  0  0  0  0
   10.4192    7.3157   15.0955 C   0  0  0  0  0  0  0  0  0  0  0  0
   10.2489    6.4227   23.0218 N   0  0  0  0  0  0  0  0  0  0  0  0
    7.2472    8.0746   23.5050 C   0  0  0  0  0  0  0  0  0  0  0  0
    9.2051    6.9101   23.4604 C   0  0  0  0  0  0  0  0  0  0  0  0
   11.9646    6.0299   21.4251 C   0  0  0  0  0  0  0  0  0  0  0  0
  1  5  1  0
  1 13  1  0
  2 20  2  0
  2 28  1  0
  2 29  1  0
  3 19  4  0
  3 25  4  0
  4 23  4  0
  4 27  1  0
  4 30  4  0
  5 17  1  0
  6  8  1  0
  6 29  1  0
  7 24  4  0
  7 26  4  0
  8 28  1  0
  9 13  2  0
 10 18  1  0
 10 21  4  0
 10 30  4  0
 11 17  2  0
 12 18  1  0
 13 15  1  0
 14 24  1  0
 15 25  1  0
 16 28  2  0
 17 20  1  0
 19 24  4  0
 20 23  1  0
 21 22  4  0
 22 23  4  0
 25 26  4  0
 27 29  2  0
M  END
$$$$

 Created by Python create_sdf_string function

 30 33  0  0  0  0  0  0  0  0999 V2000
    8.3036    9.8571   18.4133 C   0  0  0  0  0  0  0  0  0  0  0  0
    8.3694    7.6612   22.6703 C   0  0  0  0  0  0  0  0  0  0  0  0
    8.4143    6.6863   16.2273 C   0  0  0  0  0  0  0  0  0  0  0  0
   10.7581    6.5674   21.7636 C   0  0  0  0  0  0  0  0  0  0  0  0
    8.4452    8.7960   19.2958 O   0  0  0  0  0  0  0  0  0  0  0  0
    8.7122    6.7842   24.8569 C   0  0  0  0  0  0  0  0  0  0  0  0
   10.3400    6.1726   14.3081 C   0  0  0  0  0  0  0  0  0  0  0  0
    7.4297    7.5873   24.8962 C   0  0  0  0  0  0  0  0  0  0  0  0
    8.1566   10.0536   16.0516 O   0  0  0  0  0  0  0  0  0  0  0  0
   12.4989    6.2074   20.1776 C   0  0  0  0  0  0  0  0  0  0  0  0
    6.9192    9.1053   20.9073 O   0  0  0  0  0  0  0  0  0  0  0  0
   14.3979    6.0729   18.7784 C   0  0  0  0  0  0  0  0  0  0  0  0
    8.6811    9.5354   16.9998 C   0  0  0  0  0  0  0  0  0  0  0  0
    9.2512    4.2713   13.7653 O   0  0  0  0  0  0  0  0  0  0  0  0
    9.6495    8.6317   16.8332 N   0  0  0  0  0  0  0  0  0  0  0  0
    6.2934    8.6988   23.1988 O   0  0  0  0  0  0  0  0  0  0  0  0
    7.9806    8.6543   20.5437 C   0  0  0  0  0  0  0  0  0  0  0  0
   13.7270    5.7144   19.8610 O   0  0  0  0  0  0  0  0  0  0  0  0
    8.3351    5.5235   15.4478 C   0  0  0  0  0  0  0  0  0  0  0  0
    8.7700    7.8434   21.3915 C   0  0  0  0  0  0  0  0  0  0  0  0
   11.7856    6.8851   19.2401 C   0  0  0  0  0  0  0  0  0  0  0  0
   10.5281    7.4276   19.5649 C   0  0  0  0  0  0  0  0  0  0  0  0
   10.0256    7.2907   20.8484 C   0  0  0  0  0  0  0  0  0  0  0  0
    9.3113    5.3049   14.4911 C   0  0  0  0  0  0  0  0  0  0  0  0
    9.4607    7.5646   16.0139 C   0  0  0  0  0  0  0  0  0  0  0  0
   10.4192    7.3157   15.0955 C   0  0  0  0  0  0  0  0  0  0  0  0
   10.2489    6.4227   23.0218 N   0  0  0  0  0  0  0  0  0  0  0  0
    7.2472    8.0746   23.5050 C   0  0  0  0  0  0  0  0  0  0  0  0
    9.2051    6.9101   23.4604 C   0  0  0  0  0  0  0  0  0  0  0  0
   11.9646    6.0299   21.4251 C   0  0  0  0  0  0  0  0  0  0  0  0
  1  5  1  0
  1 13  1  0
  2 20  2  0
  2 28  1  0
  2 29  1  0
  3 19  4  0
  3 25  4  0
  4 23  4  0
  4 27  1  0
  4 30  4  0
  5 17  1  0
  6  8  1  0
  6 29  1  0
  7 24  4  0
  7 26  4  0
  8 28  1  0
  9 13  2  0
 10 18  1  0
 10 21  4  0
 10 30  4  0
 11 17  2  0
 12 18  1  0
 13 15  1  0
 14 24  1  0
 15 25  1  0
 16 28  2  0
 17 20  1  0
 19 24  4  0
 20 23  1  0
 21 22  4  0
 22 23  4  0
 25 26  4  0
 27 29  2  0
M  END
$$$$

 Created by Python create_sdf_string function

 30 33  0  0  0  0  0  0  0  0999 V2000
    8.3036    9.8571   18.4133 C   0  0  0  0  0  0  0  0  0  0  0  0
    8.3694    7.6612   22.6703 C   0  0  0  0  0  0  0  0  0  0  0  0
    8.4143    6.6863   16.2273 C   0  0  0  0  0  0  0  0  0  0  0  0
   10.7581    6.5674   21.7636 C   0  0  0  0  0  0  0  0  0  0  0  0
    8.4452    8.7960   19.2958 O   0  0  0  0  0  0  0  0  0  0  0  0
    8.7122    6.7842   24.8569 C   0  0  0  0  0  0  0  0  0  0  0  0
   10.3400    6.1726   14.3081 C   0  0  0  0  0  0  0  0  0  0  0  0
    7.4297    7.5873   24.8962 C   0  0  0  0  0  0  0  0  0  0  0  0
    8.1566   10.0536   16.0516 O   0  0  0  0  0  0  0  0  0  0  0  0
   12.4989    6.2074   20.1776 C   0  0  0  0  0  0  0  0  0  0  0  0
    6.9192    9.1053   20.9073 O   0  0  0  0  0  0  0  0  0  0  0  0
   14.3979    6.0729   18.7784 C   0  0  0  0  0  0  0  0  0  0  0  0
    8.6811    9.5354   16.9998 C   0  0  0  0  0  0  0  0  0  0  0  0
    9.2512    4.2713   13.7653 O   0  0  0  0  0  0  0  0  0  0  0  0
    9.6495    8.6317   16.8332 N   0  0  0  0  0  0  0  0  0  0  0  0
    6.2934    8.6988   23.1988 O   0  0  0  0  0  0  0  0  0  0  0  0
    7.9806    8.6543   20.5437 C   0  0  0  0  0  0  0  0  0  0  0  0
   13.7270    5.7144   19.8610 O   0  0  0  0  0  0  0  0  0  0  0  0
    8.3351    5.5235   15.4478 C   0  0  0  0  0  0  0  0  0  0  0  0
    8.7700    7.8434   21.3915 C   0  0  0  0  0  0  0  0  0  0  0  0
   11.7856    6.8851   19.2401 C   0  0  0  0  0  0  0  0  0  0  0  0
   10.5281    7.4276   19.5649 C   0  0  0  0  0  0  0  0  0  0  0  0
   10.0256    7.2907   20.8484 C   0  0  0  0  0  0  0  0  0  0  0  0
    9.3113    5.3049   14.4911 C   0  0  0  0  0  0  0  0  0  0  0  0
    9.4607    7.5646   16.0139 C   0  0  0  0  0  0  0  0  0  0  0  0
   10.4192    7.3157   15.0955 C   0  0  0  0  0  0  0  0  0  0  0  0
   10.2489    6.4227   23.0218 N   0  0  0  0  0  0  0  0  0  0  0  0
    7.2472    8.0746   23.5050 C   0  0  0  0  0  0  0  0  0  0  0  0
    9.2051    6.9101   23.4604 C   0  0  0  0  0  0  0  0  0  0  0  0
   11.9646    6.0299   21.4251 C   0  0  0  0  0  0  0  0  0  0  0  0
  1  5  1  0
  1 13  1  0
  2 20  2  0
  2 28  1  0
  2 29  1  0
  3 19  4  0
  3 25  4  0
  4 23  4  0
  4 27  1  0
  4 30  4  0
  5 17  1  0
  6  8  1  0
  6 29  1  0
  7 24  4  0
  7 26  4  0
  8 28  1  0
  9 13  2  0
 10 18  1  0
 10 21  4  0
 10 30  4  0
 11 17  2  0
 12 18  1  0
 13 15  1  0
 14 24  1  0
 15 25  1  0
 16 28  2  0
 17 20  1  0
 19 24  4  0
 20 23  1  0
 21 22  4  0
 22 23  4  0
 25 26  4  0
 27 29  2  0
M  END
$$$$

 Created by Python create_sdf_string function

 30 33  0  0  0  0  0  0  0  0999 V2000
    8.3036    9.8571   18.4133 C   0  0  0  0  0  0  0  0  0  0  0  0
    8.3694    7.6612   22.6703 C   0  0  0  0  0  0  0  0  0  0  0  0
    8.4143    6.6863   16.2273 C   0  0  0  0  0  0  0  0  0  0  0  0
   10.7581    6.5674   21.7636 C   0  0  0  0  0  0  0  0  0  0  0  0
    8.4452    8.7960   19.2958 O   0  0  0  0  0  0  0  0  0  0  0  0
    8.7122    6.7842   24.8569 C   0  0  0  0  0  0  0  0  0  0  0  0
   10.3400    6.1726   14.3081 C   0  0  0  0  0  0  0  0  0  0  0  0
    7.4297    7.5873   24.8962 C   0  0  0  0  0  0  0  0  0  0  0  0
    8.1566   10.0536   16.0516 O   0  0  0  0  0  0  0  0  0  0  0  0
   12.4989    6.2074   20.1776 C   0  0  0  0  0  0  0  0  0  0  0  0
    6.9192    9.1053   20.9073 O   0  0  0  0  0  0  0  0  0  0  0  0
   14.3979    6.0729   18.7784 C   0  0  0  0  0  0  0  0  0  0  0  0
    8.6811    9.5354   16.9998 C   0  0  0  0  0  0  0  0  0  0  0  0
    9.2512    4.2713   13.7653 O   0  0  0  0  0  0  0  0  0  0  0  0
    9.6495    8.6317   16.8332 N   0  0  0  0  0  0  0  0  0  0  0  0
    6.2934    8.6988   23.1988 O   0  0  0  0  0  0  0  0  0  0  0  0
    7.9806    8.6543   20.5437 C   0  0  0  0  0  0  0  0  0  0  0  0
   13.7270    5.7144   19.8610 O   0  0  0  0  0  0  0  0  0  0  0  0
    8.3351    5.5235   15.4478 C   0  0  0  0  0  0  0  0  0  0  0  0
    8.7700    7.8434   21.3915 C   0  0  0  0  0  0  0  0  0  0  0  0
   11.7856    6.8851   19.2401 C   0  0  0  0  0  0  0  0  0  0  0  0
   10.5281    7.4276   19.5649 C   0  0  0  0  0  0  0  0  0  0  0  0
   10.0256    7.2907   20.8484 C   0  0  0  0  0  0  0  0  0  0  0  0
    9.3113    5.3049   14.4911 C   0  0  0  0  0  0  0  0  0  0  0  0
    9.4607    7.5646   16.0139 C   0  0  0  0  0  0  0  0  0  0  0  0
   10.4192    7.3157   15.0955 C   0  0  0  0  0  0  0  0  0  0  0  0
   10.2489    6.4227   23.0218 N   0  0  0  0  0  0  0  0  0  0  0  0
    7.2472    8.0746   23.5050 C   0  0  0  0  0  0  0  0  0  0  0  0
    9.2051    6.9101   23.4604 C   0  0  0  0  0  0  0  0  0  0  0  0
   11.9646    6.0299   21.4251 C   0  0  0  0  0  0  0  0  0  0  0  0
  1  5  1  0
  1 13  1  0
  2 20  2  0
  2 28  1  0
  2 29  1  0
  3 19  4  0
  3 25  4  0
  4 23  4  0
  4 27  1  0
  4 30  4  0
  5 17  1  0
  6  8  1  0
  6 29  1  0
  7 24  4  0
  7 26  4  0
  8 28  1  0
  9 13  2  0
 10 18  1  0
 10 21  4  0
 10 30  4  0
 11 17  2  0
 12 18  1  0
 13 15  1  0
 14 24  1  0
 15 25  1  0
 16 28  2  0
 17 20  1  0
 19 24  4  0
 20 23  1  0
 21 22  4  0
 22 23  4  0
 25 26  4  0
 27 29  2  0
M  END
$$$$

 Created by Python create_sdf_string function

 30 33  0  0  0  0  0  0  0  0999 V2000
    8.3036    9.8571   18.4133 C   0  0  0  0  0  0  0  0  0  0  0  0
    8.3694    7.6612   22.6703 C   0  0  0  0  0  0  0  0  0  0  0  0
    8.4143    6.6863   16.2273 C   0  0  0  0  0  0  0  0  0  0  0  0
   10.7581    6.5674   21.7636 C   0  0  0  0  0  0  0  0  0  0  0  0
    8.4452    8.7960   19.2958 O   0  0  0  0  0  0  0  0  0  0  0  0
    8.7122    6.7842   24.8569 C   0  0  0  0  0  0  0  0  0  0  0  0
   10.3400    6.1726   14.3081 C   0  0  0  0  0  0  0  0  0  0  0  0
    7.4297    7.5873   24.8962 C   0  0  0  0  0  0  0  0  0  0  0  0
    8.1566   10.0536   16.0516 O   0  0  0  0  0  0  0  0  0  0  0  0
   12.4989    6.2074   20.1776 C   0  0  0  0  0  0  0  0  0  0  0  0
    6.9192    9.1053   20.9073 O   0  0  0  0  0  0  0  0  0  0  0  0
   14.3979    6.0729   18.7784 C   0  0  0  0  0  0  0  0  0  0  0  0
    8.6811    9.5354   16.9998 C   0  0  0  0  0  0  0  0  0  0  0  0
    9.2512    4.2713   13.7653 O   0  0  0  0  0  0  0  0  0  0  0  0
    9.6495    8.6317   16.8332 N   0  0  0  0  0  0  0  0  0  0  0  0
    6.2934    8.6988   23.1988 O   0  0  0  0  0  0  0  0  0  0  0  0
    7.9806    8.6543   20.5437 C   0  0  0  0  0  0  0  0  0  0  0  0
   13.7270    5.7144   19.8610 O   0  0  0  0  0  0  0  0  0  0  0  0
    8.3351    5.5235   15.4478 C   0  0  0  0  0  0  0  0  0  0  0  0
    8.7700    7.8434   21.3915 C   0  0  0  0  0  0  0  0  0  0  0  0
   11.7856    6.8851   19.2401 C   0  0  0  0  0  0  0  0  0  0  0  0
   10.5281    7.4276   19.5649 C   0  0  0  0  0  0  0  0  0  0  0  0
   10.0256    7.2907   20.8484 C   0  0  0  0  0  0  0  0  0  0  0  0
    9.3113    5.3049   14.4911 C   0  0  0  0  0  0  0  0  0  0  0  0
    9.4607    7.5646   16.0139 C   0  0  0  0  0  0  0  0  0  0  0  0
   10.4192    7.3157   15.0955 C   0  0  0  0  0  0  0  0  0  0  0  0
   10.2489    6.4227   23.0218 N   0  0  0  0  0  0  0  0  0  0  0  0
    7.2472    8.0746   23.5050 C   0  0  0  0  0  0  0  0  0  0  0  0
    9.2051    6.9101   23.4604 C   0  0  0  0  0  0  0  0  0  0  0  0
   11.9646    6.0299   21.4251 C   0  0  0  0  0  0  0  0  0  0  0  0
  1  5  1  0
  1 13  1  0
  2 20  2  0
  2 28  1  0
  2 29  1  0
  3 19  4  0
  3 25  4  0
  4 23  4  0
  4 27  1  0
  4 30  4  0
  5 17  1  0
  6  8  1  0
  6 29  1  0
  7 24  4  0
  7 26  4  0
  8 28  1  0
  9 13  2  0
 10 18  1  0
 10 21  4  0
 10 30  4  0
 11 17  2  0
 12 18  1  0
 13 15  1  0
 14 24  1  0
 15 25  1  0
 16 28  2  0
 17 20  1  0
 19 24  4  0
 20 23  1  0
 21 22  4  0
 22 23  4  0
 25 26  4  0
 27 29  2  0
M  END
$$$$

 Created by Python create_sdf_string function

 30 33  0  0  0  0  0  0  0  0999 V2000
    8.3036    9.8571   18.4133 C   0  0  0  0  0  0  0  0  0  0  0  0
    8.3694    7.6612   22.6703 C   0  0  0  0  0  0  0  0  0  0  0  0
    8.4143    6.6863   16.2273 C   0  0  0  0  0  0  0  0  0  0  0  0
   10.7581    6.5674   21.7636 C   0  0  0  0  0  0  0  0  0  0  0  0
    8.4452    8.7960   19.2958 O   0  0  0  0  0  0  0  0  0  0  0  0
    8.7122    6.7842   24.8569 C   0  0  0  0  0  0  0  0  0  0  0  0
   10.3400    6.1726   14.3081 C   0  0  0  0  0  0  0  0  0  0  0  0
    7.4297    7.5873   24.8962 C   0  0  0  0  0  0  0  0  0  0  0  0
    8.1566   10.0536   16.0516 O   0  0  0  0  0  0  0  0  0  0  0  0
   12.4989    6.2074   20.1776 C   0  0  0  0  0  0  0  0  0  0  0  0
    6.9192    9.1053   20.9073 O   0  0  0  0  0  0  0  0  0  0  0  0
   14.3979    6.0729   18.7784 C   0  0  0  0  0  0  0  0  0  0  0  0
    8.6811    9.5354   16.9998 C   0  0  0  0  0  0  0  0  0  0  0  0
    9.2512    4.2713   13.7653 O   0  0  0  0  0  0  0  0  0  0  0  0
    9.6495    8.6317   16.8332 N   0  0  0  0  0  0  0  0  0  0  0  0
    6.2934    8.6988   23.1988 O   0  0  0  0  0  0  0  0  0  0  0  0
    7.9806    8.6543   20.5437 C   0  0  0  0  0  0  0  0  0  0  0  0
   13.7270    5.7144   19.8610 O   0  0  0  0  0  0  0  0  0  0  0  0
    8.3351    5.5235   15.4478 C   0  0  0  0  0  0  0  0  0  0  0  0
    8.7700    7.8434   21.3915 C   0  0  0  0  0  0  0  0  0  0  0  0
   11.7856    6.8851   19.2401 C   0  0  0  0  0  0  0  0  0  0  0  0
   10.5281    7.4276   19.5649 C   0  0  0  0  0  0  0  0  0  0  0  0
   10.0256    7.2907   20.8484 C   0  0  0  0  0  0  0  0  0  0  0  0
    9.3113    5.3049   14.4911 C   0  0  0  0  0  0  0  0  0  0  0  0
    9.4607    7.5646   16.0139 C   0  0  0  0  0  0  0  0  0  0  0  0
   10.4192    7.3157   15.0955 C   0  0  0  0  0  0  0  0  0  0  0  0
   10.2489    6.4227   23.0218 N   0  0  0  0  0  0  0  0  0  0  0  0
    7.2472    8.0746   23.5050 C   0  0  0  0  0  0  0  0  0  0  0  0
    9.2051    6.9101   23.4604 C   0  0  0  0  0  0  0  0  0  0  0  0
   11.9646    6.0299   21.4251 C   0  0  0  0  0  0  0  0  0  0  0  0
  1  5  1  0
  1 13  1  0
  2 20  2  0
  2 28  1  0
  2 29  1  0
  3 19  4  0
  3 25  4  0
  4 23  4  0
  4 27  1  0
  4 30  4  0
  5 17  1  0
  6  8  1  0
  6 29  1  0
  7 24  4  0
  7 26  4  0
  8 28  1  0
  9 13  2  0
 10 18  1  0
 10 21  4  0
 10 30  4  0
 11 17  2  0
 12 18  1  0
 13 15  1  0
 14 24  1  0
 15 25  1  0
 16 28  2  0
 17 20  1  0
 19 24  4  0
 20 23  1  0
 21 22  4  0
 22 23  4  0
 25 26  4  0
 27 29  2  0
M  END
$$$$

 Created by Python create_sdf_string function

 30 33  0  0  0  0  0  0  0  0999 V2000
    8.3036    9.8571   18.4133 C   0  0  0  0  0  0  0  0  0  0  0  0
    8.3694    7.6612   22.6703 C   0  0  0  0  0  0  0  0  0  0  0  0
    8.4143    6.6863   16.2273 C   0  0  0  0  0  0  0  0  0  0  0  0
   10.7581    6.5674   21.7636 C   0  0  0  0  0  0  0  0  0  0  0  0
    8.4452    8.7960   19.2958 O   0  0  0  0  0  0  0  0  0  0  0  0
    8.7122    6.7842   24.8569 C   0  0  0  0  0  0  0  0  0  0  0  0
   10.3400    6.1726   14.3081 C   0  0  0  0  0  0  0  0  0  0  0  0
    7.4297    7.5873   24.8962 C   0  0  0  0  0  0  0  0  0  0  0  0
    8.1566   10.0536   16.0516 O   0  0  0  0  0  0  0  0  0  0  0  0
   12.4989    6.2074   20.1776 C   0  0  0  0  0  0  0  0  0  0  0  0
    6.9192    9.1053   20.9073 O   0  0  0  0  0  0  0  0  0  0  0  0
   14.3979    6.0729   18.7784 C   0  0  0  0  0  0  0  0  0  0  0  0
    8.6811    9.5354   16.9998 C   0  0  0  0  0  0  0  0  0  0  0  0
    9.2512    4.2713   13.7653 O   0  0  0  0  0  0  0  0  0  0  0  0
    9.6495    8.6317   16.8332 N   0  0  0  0  0  0  0  0  0  0  0  0
    6.2934    8.6988   23.1988 O   0  0  0  0  0  0  0  0  0  0  0  0
    7.9806    8.6543   20.5437 C   0  0  0  0  0  0  0  0  0  0  0  0
   13.7270    5.7144   19.8610 O   0  0  0  0  0  0  0  0  0  0  0  0
    8.3351    5.5235   15.4478 C   0  0  0  0  0  0  0  0  0  0  0  0
    8.7700    7.8434   21.3915 C   0  0  0  0  0  0  0  0  0  0  0  0
   11.7856    6.8851   19.2401 C   0  0  0  0  0  0  0  0  0  0  0  0
   10.5281    7.4276   19.5649 C   0  0  0  0  0  0  0  0  0  0  0  0
   10.0256    7.2907   20.8484 C   0  0  0  0  0  0  0  0  0  0  0  0
    9.3113    5.3049   14.4911 C   0  0  0  0  0  0  0  0  0  0  0  0
    9.4607    7.5646   16.0139 C   0  0  0  0  0  0  0  0  0  0  0  0
   10.4192    7.3157   15.0955 C   0  0  0  0  0  0  0  0  0  0  0  0
   10.2489    6.4227   23.0218 N   0  0  0  0  0  0  0  0  0  0  0  0
    7.2472    8.0746   23.5050 C   0  0  0  0  0  0  0  0  0  0  0  0
    9.2051    6.9101   23.4604 C   0  0  0  0  0  0  0  0  0  0  0  0
   11.9646    6.0299   21.4251 C   0  0  0  0  0  0  0  0  0  0  0  0
  1  5  1  0
  1 13  1  0
  2 20  2  0
  2 28  1  0
  2 29  1  0
  3 19  4  0
  3 25  4  0
  4 23  4  0
  4 27  1  0
  4 30  4  0
  5 17  1  0
  6  8  1  0
  6 29  1  0
  7 24  4  0
  7 26  4  0
  8 28  1  0
  9 13  2  0
 10 18  1  0
 10 21  4  0
 10 30  4  0
 11 17  2  0
 12 18  1  0
 13 15  1  0
 14 24  1  0
 15 25  1  0
 16 28  2  0
 17 20  1  0
 19 24  4  0
 20 23  1  0
 21 22  4  0
 22 23  4  0
 25 26  4  0
 27 29  2  0
M  END
$$$$

 Created by Python create_sdf_string function

 30 33  0  0  0  0  0  0  0  0999 V2000
    8.3036    9.8571   18.4133 C   0  0  0  0  0  0  0  0  0  0  0  0
    8.3694    7.6612   22.6703 C   0  0  0  0  0  0  0  0  0  0  0  0
    8.4143    6.6863   16.2273 C   0  0  0  0  0  0  0  0  0  0  0  0
   10.7581    6.5674   21.7636 C   0  0  0  0  0  0  0  0  0  0  0  0
    8.4452    8.7960   19.2958 O   0  0  0  0  0  0  0  0  0  0  0  0
    8.7122    6.7842   24.8569 C   0  0  0  0  0  0  0  0  0  0  0  0
   10.3400    6.1726   14.3081 C   0  0  0  0  0  0  0  0  0  0  0  0
    7.4297    7.5873   24.8962 C   0  0  0  0  0  0  0  0  0  0  0  0
    8.1566   10.0536   16.0516 O   0  0  0  0  0  0  0  0  0  0  0  0
   12.4989    6.2074   20.1776 C   0  0  0  0  0  0  0  0  0  0  0  0
    6.9192    9.1053   20.9073 O   0  0  0  0  0  0  0  0  0  0  0  0
   14.3979    6.0729   18.7784 C   0  0  0  0  0  0  0  0  0  0  0  0
    8.6811    9.5354   16.9998 C   0  0  0  0  0  0  0  0  0  0  0  0
    9.2512    4.2713   13.7653 O   0  0  0  0  0  0  0  0  0  0  0  0
    9.6495    8.6317   16.8332 N   0  0  0  0  0  0  0  0  0  0  0  0
    6.2934    8.6988   23.1988 O   0  0  0  0  0  0  0  0  0  0  0  0
    7.9806    8.6543   20.5437 C   0  0  0  0  0  0  0  0  0  0  0  0
   13.7270    5.7144   19.8610 O   0  0  0  0  0  0  0  0  0  0  0  0
    8.3351    5.5235   15.4478 C   0  0  0  0  0  0  0  0  0  0  0  0
    8.7700    7.8434   21.3915 C   0  0  0  0  0  0  0  0  0  0  0  0
   11.7856    6.8851   19.2401 C   0  0  0  0  0  0  0  0  0  0  0  0
   10.5281    7.4276   19.5649 C   0  0  0  0  0  0  0  0  0  0  0  0
   10.0256    7.2907   20.8484 C   0  0  0  0  0  0  0  0  0  0  0  0
    9.3113    5.3049   14.4911 C   0  0  0  0  0  0  0  0  0  0  0  0
    9.4607    7.5646   16.0139 C   0  0  0  0  0  0  0  0  0  0  0  0
   10.4192    7.3157   15.0955 C   0  0  0  0  0  0  0  0  0  0  0  0
   10.2489    6.4227   23.0218 N   0  0  0  0  0  0  0  0  0  0  0  0
    7.2472    8.0746   23.5050 C   0  0  0  0  0  0  0  0  0  0  0  0
    9.2051    6.9101   23.4604 C   0  0  0  0  0  0  0  0  0  0  0  0
   11.9646    6.0299   21.4251 C   0  0  0  0  0  0  0  0  0  0  0  0
  1  5  1  0
  1 13  1  0
  2 20  2  0
  2 28  1  0
  2 29  1  0
  3 19  4  0
  3 25  4  0
  4 23  4  0
  4 27  1  0
  4 30  4  0
  5 17  1  0
  6  8  1  0
  6 29  1  0
  7 24  4  0
  7 26  4  0
  8 28  1  0
  9 13  2  0
 10 18  1  0
 10 21  4  0
 10 30  4  0
 11 17  2  0
 12 18  1  0
 13 15  1  0
 14 24  1  0
 15 25  1  0
 16 28  2  0
 17 20  1  0
 19 24  4  0
 20 23  1  0
 21 22  4  0
 22 23  4  0
 25 26  4  0
 27 29  2  0
M  END
$$$$

 Created by Python create_sdf_string function

 30 33  0  0  0  0  0  0  0  0999 V2000
    8.3036    9.8571   18.4133 C   0  0  0  0  0  0  0  0  0  0  0  0
    8.3694    7.6612   22.6703 C   0  0  0  0  0  0  0  0  0  0  0  0
    8.4143    6.6863   16.2273 C   0  0  0  0  0  0  0  0  0  0  0  0
   10.7581    6.5674   21.7636 C   0  0  0  0  0  0  0  0  0  0  0  0
    8.4452    8.7960   19.2958 O   0  0  0  0  0  0  0  0  0  0  0  0
    8.7122    6.7842   24.8569 C   0  0  0  0  0  0  0  0  0  0  0  0
   10.3400    6.1726   14.3081 C   0  0  0  0  0  0  0  0  0  0  0  0
    7.4297    7.5873   24.8962 C   0  0  0  0  0  0  0  0  0  0  0  0
    8.1566   10.0536   16.0516 O   0  0  0  0  0  0  0  0  0  0  0  0
   12.4989    6.2074   20.1776 C   0  0  0  0  0  0  0  0  0  0  0  0
    6.9192    9.1053   20.9073 O   0  0  0  0  0  0  0  0  0  0  0  0
   14.3979    6.0729   18.7784 C   0  0  0  0  0  0  0  0  0  0  0  0
    8.6811    9.5354   16.9998 C   0  0  0  0  0  0  0  0  0  0  0  0
    9.2512    4.2713   13.7653 O   0  0  0  0  0  0  0  0  0  0  0  0
    9.6495    8.6317   16.8332 N   0  0  0  0  0  0  0  0  0  0  0  0
    6.2934    8.6988   23.1988 O   0  0  0  0  0  0  0  0  0  0  0  0
    7.9806    8.6543   20.5437 C   0  0  0  0  0  0  0  0  0  0  0  0
   13.7270    5.7144   19.8610 O   0  0  0  0  0  0  0  0  0  0  0  0
    8.3351    5.5235   15.4478 C   0  0  0  0  0  0  0  0  0  0  0  0
    8.7700    7.8434   21.3915 C   0  0  0  0  0  0  0  0  0  0  0  0
   11.7856    6.8851   19.2401 C   0  0  0  0  0  0  0  0  0  0  0  0
   10.5281    7.4276   19.5649 C   0  0  0  0  0  0  0  0  0  0  0  0
   10.0256    7.2907   20.8484 C   0  0  0  0  0  0  0  0  0  0  0  0
    9.3113    5.3049   14.4911 C   0  0  0  0  0  0  0  0  0  0  0  0
    9.4607    7.5646   16.0139 C   0  0  0  0  0  0  0  0  0  0  0  0
   10.4192    7.3157   15.0955 C   0  0  0  0  0  0  0  0  0  0  0  0
   10.2489    6.4227   23.0218 N   0  0  0  0  0  0  0  0  0  0  0  0
    7.2472    8.0746   23.5050 C   0  0  0  0  0  0  0  0  0  0  0  0
    9.2051    6.9101   23.4604 C   0  0  0  0  0  0  0  0  0  0  0  0
   11.9646    6.0299   21.4251 C   0  0  0  0  0  0  0  0  0  0  0  0
  1  5  1  0
  1 13  1  0
  2 20  2  0
  2 28  1  0
  2 29  1  0
  3 19  4  0
  3 25  4  0
  4 23  4  0
  4 27  1  0
  4 30  4  0
  5 17  1  0
  6  8  1  0
  6 29  1  0
  7 24  4  0
  7 26  4  0
  8 28  1  0
  9 13  2  0
 10 18  1  0
 10 21  4  0
 10 30  4  0
 11 17  2  0
 12 18  1  0
 13 15  1  0
 14 24  1  0
 15 25  1  0
 16 28  2  0
 17 20  1  0
 19 24  4  0
 20 23  1  0
 21 22  4  0
 22 23  4  0
 25 26  4  0
 27 29  2  0
M  END
$$$$

 Created by Python create_sdf_string function

 30 33  0  0  0  0  0  0  0  0999 V2000
    8.3036    9.8571   18.4133 C   0  0  0  0  0  0  0  0  0  0  0  0
    8.3694    7.6612   22.6703 C   0  0  0  0  0  0  0  0  0  0  0  0
    8.4143    6.6863   16.2273 C   0  0  0  0  0  0  0  0  0  0  0  0
   10.7581    6.5674   21.7636 C   0  0  0  0  0  0  0  0  0  0  0  0
    8.4452    8.7960   19.2958 O   0  0  0  0  0  0  0  0  0  0  0  0
    8.7122    6.7842   24.8569 C   0  0  0  0  0  0  0  0  0  0  0  0
   10.3400    6.1726   14.3081 C   0  0  0  0  0  0  0  0  0  0  0  0
    7.4297    7.5873   24.8962 C   0  0  0  0  0  0  0  0  0  0  0  0
    8.1566   10.0536   16.0516 O   0  0  0  0  0  0  0  0  0  0  0  0
   12.4989    6.2074   20.1776 C   0  0  0  0  0  0  0  0  0  0  0  0
    6.9192    9.1053   20.9073 O   0  0  0  0  0  0  0  0  0  0  0  0
   14.3979    6.0729   18.7784 C   0  0  0  0  0  0  0  0  0  0  0  0
    8.6811    9.5354   16.9998 C   0  0  0  0  0  0  0  0  0  0  0  0
    9.2512    4.2713   13.7653 O   0  0  0  0  0  0  0  0  0  0  0  0
    9.6495    8.6317   16.8332 N   0  0  0  0  0  0  0  0  0  0  0  0
    6.2934    8.6988   23.1988 O   0  0  0  0  0  0  0  0  0  0  0  0
    7.9806    8.6543   20.5437 C   0  0  0  0  0  0  0  0  0  0  0  0
   13.7270    5.7144   19.8610 O   0  0  0  0  0  0  0  0  0  0  0  0
    8.3351    5.5235   15.4478 C   0  0  0  0  0  0  0  0  0  0  0  0
    8.7700    7.8434   21.3915 C   0  0  0  0  0  0  0  0  0  0  0  0
   11.7856    6.8851   19.2401 C   0  0  0  0  0  0  0  0  0  0  0  0
   10.5281    7.4276   19.5649 C   0  0  0  0  0  0  0  0  0  0  0  0
   10.0256    7.2907   20.8484 C   0  0  0  0  0  0  0  0  0  0  0  0
    9.3113    5.3049   14.4911 C   0  0  0  0  0  0  0  0  0  0  0  0
    9.4607    7.5646   16.0139 C   0  0  0  0  0  0  0  0  0  0  0  0
   10.4192    7.3157   15.0955 C   0  0  0  0  0  0  0  0  0  0  0  0
   10.2489    6.4227   23.0218 N   0  0  0  0  0  0  0  0  0  0  0  0
    7.2472    8.0746   23.5050 C   0  0  0  0  0  0  0  0  0  0  0  0
    9.2051    6.9101   23.4604 C   0  0  0  0  0  0  0  0  0  0  0  0
   11.9646    6.0299   21.4251 C   0  0  0  0  0  0  0  0  0  0  0  0
  1  5  1  0
  1 13  1  0
  2 20  2  0
  2 28  1  0
  2 29  1  0
  3 19  4  0
  3 25  4  0
  4 23  4  0
  4 27  1  0
  4 30  4  0
  5 17  1  0
  6  8  1  0
  6 29  1  0
  7 24  4  0
  7 26  4  0
  8 28  1  0
  9 13  2  0
 10 18  1  0
 10 21  4  0
 10 30  4  0
 11 17  2  0
 12 18  1  0
 13 15  1  0
 14 24  1  0
 15 25  1  0
 16 28  2  0
 17 20  1  0
 19 24  4  0
 20 23  1  0
 21 22  4  0
 22 23  4  0
 25 26  4  0
 27 29  2  0
M  END
$$$$

 Created by Python create_sdf_string function

 30 33  0  0  0  0  0  0  0  0999 V2000
    8.3036    9.8571   18.4133 C   0  0  0  0  0  0  0  0  0  0  0  0
    8.3694    7.6612   22.6703 C   0  0  0  0  0  0  0  0  0  0  0  0
    8.4143    6.6863   16.2273 C   0  0  0  0  0  0  0  0  0  0  0  0
   10.7581    6.5674   21.7636 C   0  0  0  0  0  0  0  0  0  0  0  0
    8.4452    8.7960   19.2958 O   0  0  0  0  0  0  0  0  0  0  0  0
    8.7122    6.7842   24.8569 C   0  0  0  0  0  0  0  0  0  0  0  0
   10.3400    6.1726   14.3081 C   0  0  0  0  0  0  0  0  0  0  0  0
    7.4297    7.5873   24.8962 C   0  0  0  0  0  0  0  0  0  0  0  0
    8.1566   10.0536   16.0516 O   0  0  0  0  0  0  0  0  0  0  0  0
   12.4989    6.2074   20.1776 C   0  0  0  0  0  0  0  0  0  0  0  0
    6.9192    9.1053   20.9073 O   0  0  0  0  0  0  0  0  0  0  0  0
   14.3979    6.0729   18.7784 C   0  0  0  0  0  0  0  0  0  0  0  0
    8.6811    9.5354   16.9998 C   0  0  0  0  0  0  0  0  0  0  0  0
    9.2512    4.2713   13.7653 O   0  0  0  0  0  0  0  0  0  0  0  0
    9.6495    8.6317   16.8332 N   0  0  0  0  0  0  0  0  0  0  0  0
    6.2934    8.6988   23.1988 O   0  0  0  0  0  0  0  0  0  0  0  0
    7.9806    8.6543   20.5437 C   0  0  0  0  0  0  0  0  0  0  0  0
   13.7270    5.7144   19.8610 O   0  0  0  0  0  0  0  0  0  0  0  0
    8.3351    5.5235   15.4478 C   0  0  0  0  0  0  0  0  0  0  0  0
    8.7700    7.8434   21.3915 C   0  0  0  0  0  0  0  0  0  0  0  0
   11.7856    6.8851   19.2401 C   0  0  0  0  0  0  0  0  0  0  0  0
   10.5281    7.4276   19.5649 C   0  0  0  0  0  0  0  0  0  0  0  0
   10.0256    7.2907   20.8484 C   0  0  0  0  0  0  0  0  0  0  0  0
    9.3113    5.3049   14.4911 C   0  0  0  0  0  0  0  0  0  0  0  0
    9.4607    7.5646   16.0139 C   0  0  0  0  0  0  0  0  0  0  0  0
   10.4192    7.3157   15.0955 C   0  0  0  0  0  0  0  0  0  0  0  0
   10.2489    6.4227   23.0218 N   0  0  0  0  0  0  0  0  0  0  0  0
    7.2472    8.0746   23.5050 C   0  0  0  0  0  0  0  0  0  0  0  0
    9.2051    6.9101   23.4604 C   0  0  0  0  0  0  0  0  0  0  0  0
   11.9646    6.0299   21.4251 C   0  0  0  0  0  0  0  0  0  0  0  0
  1  5  1  0
  1 13  1  0
  2 20  2  0
  2 28  1  0
  2 29  1  0
  3 19  4  0
  3 25  4  0
  4 23  4  0
  4 27  1  0
  4 30  4  0
  5 17  1  0
  6  8  1  0
  6 29  1  0
  7 24  4  0
  7 26  4  0
  8 28  1  0
  9 13  2  0
 10 18  1  0
 10 21  4  0
 10 30  4  0
 11 17  2  0
 12 18  1  0
 13 15  1  0
 14 24  1  0
 15 25  1  0
 16 28  2  0
 17 20  1  0
 19 24  4  0
 20 23  1  0
 21 22  4  0
 22 23  4  0
 25 26  4  0
 27 29  2  0
M  END
$$$$

 Created by Python create_sdf_string function

 30 33  0  0  0  0  0  0  0  0999 V2000
    8.3036    9.8571   18.4133 C   0  0  0  0  0  0  0  0  0  0  0  0
    8.3694    7.6612   22.6703 C   0  0  0  0  0  0  0  0  0  0  0  0
    8.4143    6.6863   16.2273 C   0  0  0  0  0  0  0  0  0  0  0  0
   10.7581    6.5674   21.7636 C   0  0  0  0  0  0  0  0  0  0  0  0
    8.4452    8.7960   19.2958 O   0  0  0  0  0  0  0  0  0  0  0  0
    8.7122    6.7842   24.8569 C   0  0  0  0  0  0  0  0  0  0  0  0
   10.3400    6.1726   14.3081 C   0  0  0  0  0  0  0  0  0  0  0  0
    7.4297    7.5873   24.8962 C   0  0  0  0  0  0  0  0  0  0  0  0
    8.1566   10.0536   16.0516 O   0  0  0  0  0  0  0  0  0  0  0  0
   12.4989    6.2074   20.1776 C   0  0  0  0  0  0  0  0  0  0  0  0
    6.9192    9.1053   20.9073 O   0  0  0  0  0  0  0  0  0  0  0  0
   14.3979    6.0729   18.7784 C   0  0  0  0  0  0  0  0  0  0  0  0
    8.6811    9.5354   16.9998 C   0  0  0  0  0  0  0  0  0  0  0  0
    9.2512    4.2713   13.7653 O   0  0  0  0  0  0  0  0  0  0  0  0
    9.6495    8.6317   16.8332 N   0  0  0  0  0  0  0  0  0  0  0  0
    6.2934    8.6988   23.1988 O   0  0  0  0  0  0  0  0  0  0  0  0
    7.9806    8.6543   20.5437 C   0  0  0  0  0  0  0  0  0  0  0  0
   13.7270    5.7144   19.8610 O   0  0  0  0  0  0  0  0  0  0  0  0
    8.3351    5.5235   15.4478 C   0  0  0  0  0  0  0  0  0  0  0  0
    8.7700    7.8434   21.3915 C   0  0  0  0  0  0  0  0  0  0  0  0
   11.7856    6.8851   19.2401 C   0  0  0  0  0  0  0  0  0  0  0  0
   10.5281    7.4276   19.5649 C   0  0  0  0  0  0  0  0  0  0  0  0
   10.0256    7.2907   20.8484 C   0  0  0  0  0  0  0  0  0  0  0  0
    9.3113    5.3049   14.4911 C   0  0  0  0  0  0  0  0  0  0  0  0
    9.4607    7.5646   16.0139 C   0  0  0  0  0  0  0  0  0  0  0  0
   10.4192    7.3157   15.0955 C   0  0  0  0  0  0  0  0  0  0  0  0
   10.2489    6.4227   23.0218 N   0  0  0  0  0  0  0  0  0  0  0  0
    7.2472    8.0746   23.5050 C   0  0  0  0  0  0  0  0  0  0  0  0
    9.2051    6.9101   23.4604 C   0  0  0  0  0  0  0  0  0  0  0  0
   11.9646    6.0299   21.4251 C   0  0  0  0  0  0  0  0  0  0  0  0
  1  5  1  0
  1 13  1  0
  2 20  2  0
  2 28  1  0
  2 29  1  0
  3 19  4  0
  3 25  4  0
  4 23  4  0
  4 27  1  0
  4 30  4  0
  5 17  1  0
  6  8  1  0
  6 29  1  0
  7 24  4  0
  7 26  4  0
  8 28  1  0
  9 13  2  0
 10 18  1  0
 10 21  4  0
 10 30  4  0
 11 17  2  0
 12 18  1  0
 13 15  1  0
 14 24  1  0
 15 25  1  0
 16 28  2  0
 17 20  1  0
 19 24  4  0
 20 23  1  0
 21 22  4  0
 22 23  4  0
 25 26  4  0
 27 29  2  0
M  END
$$$$

 Created by Python create_sdf_string function

 30 33  0  0  0  0  0  0  0  0999 V2000
    8.3036    9.8571   18.4133 C   0  0  0  0  0  0  0  0  0  0  0  0
    8.3694    7.6612   22.6703 C   0  0  0  0  0  0  0  0  0  0  0  0
    8.4143    6.6863   16.2273 C   0  0  0  0  0  0  0  0  0  0  0  0
   10.7581    6.5674   21.7636 C   0  0  0  0  0  0  0  0  0  0  0  0
    8.4452    8.7960   19.2958 O   0  0  0  0  0  0  0  0  0  0  0  0
    8.7122    6.7842   24.8569 C   0  0  0  0  0  0  0  0  0  0  0  0
   10.3400    6.1726   14.3081 C   0  0  0  0  0  0  0  0  0  0  0  0
    7.4297    7.5873   24.8962 C   0  0  0  0  0  0  0  0  0  0  0  0
    8.1566   10.0536   16.0516 O   0  0  0  0  0  0  0  0  0  0  0  0
   12.4989    6.2074   20.1776 C   0  0  0  0  0  0  0  0  0  0  0  0
    6.9192    9.1053   20.9073 O   0  0  0  0  0  0  0  0  0  0  0  0
   14.3979    6.0729   18.7784 C   0  0  0  0  0  0  0  0  0  0  0  0
    8.6811    9.5354   16.9998 C   0  0  0  0  0  0  0  0  0  0  0  0
    9.2512    4.2713   13.7653 O   0  0  0  0  0  0  0  0  0  0  0  0
    9.6495    8.6317   16.8332 N   0  0  0  0  0  0  0  0  0  0  0  0
    6.2934    8.6988   23.1988 O   0  0  0  0  0  0  0  0  0  0  0  0
    7.9806    8.6543   20.5437 C   0  0  0  0  0  0  0  0  0  0  0  0
   13.7270    5.7144   19.8610 O   0  0  0  0  0  0  0  0  0  0  0  0
    8.3351    5.5235   15.4478 C   0  0  0  0  0  0  0  0  0  0  0  0
    8.7700    7.8434   21.3915 C   0  0  0  0  0  0  0  0  0  0  0  0
   11.7856    6.8851   19.2401 C   0  0  0  0  0  0  0  0  0  0  0  0
   10.5281    7.4276   19.5649 C   0  0  0  0  0  0  0  0  0  0  0  0
   10.0256    7.2907   20.8484 C   0  0  0  0  0  0  0  0  0  0  0  0
    9.3113    5.3049   14.4911 C   0  0  0  0  0  0  0  0  0  0  0  0
    9.4607    7.5646   16.0139 C   0  0  0  0  0  0  0  0  0  0  0  0
   10.4192    7.3157   15.0955 C   0  0  0  0  0  0  0  0  0  0  0  0
   10.2489    6.4227   23.0218 N   0  0  0  0  0  0  0  0  0  0  0  0
    7.2472    8.0746   23.5050 C   0  0  0  0  0  0  0  0  0  0  0  0
    9.2051    6.9101   23.4604 C   0  0  0  0  0  0  0  0  0  0  0  0
   11.9646    6.0299   21.4251 C   0  0  0  0  0  0  0  0  0  0  0  0
  1  5  1  0
  1 13  1  0
  2 20  2  0
  2 28  1  0
  2 29  1  0
  3 19  4  0
  3 25  4  0
  4 23  4  0
  4 27  1  0
  4 30  4  0
  5 17  1  0
  6  8  1  0
  6 29  1  0
  7 24  4  0
  7 26  4  0
  8 28  1  0
  9 13  2  0
 10 18  1  0
 10 21  4  0
 10 30  4  0
 11 17  2  0
 12 18  1  0
 13 15  1  0
 14 24  1  0
 15 25  1  0
 16 28  2  0
 17 20  1  0
 19 24  4  0
 20 23  1  0
 21 22  4  0
 22 23  4  0
 25 26  4  0
 27 29  2  0
M  END
$$$$

 Created by Python create_sdf_string function

 30 33  0  0  0  0  0  0  0  0999 V2000
    8.3036    9.8571   18.4133 C   0  0  0  0  0  0  0  0  0  0  0  0
    8.3694    7.6612   22.6703 C   0  0  0  0  0  0  0  0  0  0  0  0
    8.4143    6.6863   16.2273 C   0  0  0  0  0  0  0  0  0  0  0  0
   10.7581    6.5674   21.7636 C   0  0  0  0  0  0  0  0  0  0  0  0
    8.4452    8.7960   19.2958 O   0  0  0  0  0  0  0  0  0  0  0  0
    8.7122    6.7842   24.8569 C   0  0  0  0  0  0  0  0  0  0  0  0
   10.3400    6.1726   14.3081 C   0  0  0  0  0  0  0  0  0  0  0  0
    7.4297    7.5873   24.8962 C   0  0  0  0  0  0  0  0  0  0  0  0
    8.1566   10.0536   16.0516 O   0  0  0  0  0  0  0  0  0  0  0  0
   12.4989    6.2074   20.1776 C   0  0  0  0  0  0  0  0  0  0  0  0
    6.9192    9.1053   20.9073 O   0  0  0  0  0  0  0  0  0  0  0  0
   14.3979    6.0729   18.7784 C   0  0  0  0  0  0  0  0  0  0  0  0
    8.6811    9.5354   16.9998 C   0  0  0  0  0  0  0  0  0  0  0  0
    9.2512    4.2713   13.7653 O   0  0  0  0  0  0  0  0  0  0  0  0
    9.6495    8.6317   16.8332 N   0  0  0  0  0  0  0  0  0  0  0  0
    6.2934    8.6988   23.1988 O   0  0  0  0  0  0  0  0  0  0  0  0
    7.9806    8.6543   20.5437 C   0  0  0  0  0  0  0  0  0  0  0  0
   13.7270    5.7144   19.8610 O   0  0  0  0  0  0  0  0  0  0  0  0
    8.3351    5.5235   15.4478 C   0  0  0  0  0  0  0  0  0  0  0  0
    8.7700    7.8434   21.3915 C   0  0  0  0  0  0  0  0  0  0  0  0
   11.7856    6.8851   19.2401 C   0  0  0  0  0  0  0  0  0  0  0  0
   10.5281    7.4276   19.5649 C   0  0  0  0  0  0  0  0  0  0  0  0
   10.0256    7.2907   20.8484 C   0  0  0  0  0  0  0  0  0  0  0  0
    9.3113    5.3049   14.4911 C   0  0  0  0  0  0  0  0  0  0  0  0
    9.4607    7.5646   16.0139 C   0  0  0  0  0  0  0  0  0  0  0  0
   10.4192    7.3157   15.0955 C   0  0  0  0  0  0  0  0  0  0  0  0
   10.2489    6.4227   23.0218 N   0  0  0  0  0  0  0  0  0  0  0  0
    7.2472    8.0746   23.5050 C   0  0  0  0  0  0  0  0  0  0  0  0
    9.2051    6.9101   23.4604 C   0  0  0  0  0  0  0  0  0  0  0  0
   11.9646    6.0299   21.4251 C   0  0  0  0  0  0  0  0  0  0  0  0
  1  5  1  0
  1 13  1  0
  2 20  2  0
  2 28  1  0
  2 29  1  0
  3 19  4  0
  3 25  4  0
  4 23  4  0
  4 27  1  0
  4 30  4  0
  5 17  1  0
  6  8  1  0
  6 29  1  0
  7 24  4  0
  7 26  4  0
  8 28  1  0
  9 13  2  0
 10 18  1  0
 10 21  4  0
 10 30  4  0
 11 17  2  0
 12 18  1  0
 13 15  1  0
 14 24  1  0
 15 25  1  0
 16 28  2  0
 17 20  1  0
 19 24  4  0
 20 23  1  0
 21 22  4  0
 22 23  4  0
 25 26  4  0
 27 29  2  0
M  END
$$$$

 Created by Python create_sdf_string function

 30 33  0  0  0  0  0  0  0  0999 V2000
    8.3036    9.8571   18.4133 C   0  0  0  0  0  0  0  0  0  0  0  0
    8.3694    7.6612   22.6703 C   0  0  0  0  0  0  0  0  0  0  0  0
    8.4143    6.6863   16.2273 C   0  0  0  0  0  0  0  0  0  0  0  0
   10.7581    6.5674   21.7636 C   0  0  0  0  0  0  0  0  0  0  0  0
    8.4452    8.7960   19.2958 O   0  0  0  0  0  0  0  0  0  0  0  0
    8.7122    6.7842   24.8569 C   0  0  0  0  0  0  0  0  0  0  0  0
   10.3400    6.1726   14.3081 C   0  0  0  0  0  0  0  0  0  0  0  0
    7.4297    7.5873   24.8962 C   0  0  0  0  0  0  0  0  0  0  0  0
    8.1566   10.0536   16.0516 O   0  0  0  0  0  0  0  0  0  0  0  0
   12.4989    6.2074   20.1776 C   0  0  0  0  0  0  0  0  0  0  0  0
    6.9192    9.1053   20.9073 O   0  0  0  0  0  0  0  0  0  0  0  0
   14.3979    6.0729   18.7784 C   0  0  0  0  0  0  0  0  0  0  0  0
    8.6811    9.5354   16.9998 C   0  0  0  0  0  0  0  0  0  0  0  0
    9.2512    4.2713   13.7653 O   0  0  0  0  0  0  0  0  0  0  0  0
    9.6495    8.6317   16.8332 N   0  0  0  0  0  0  0  0  0  0  0  0
    6.2934    8.6988   23.1988 O   0  0  0  0  0  0  0  0  0  0  0  0
    7.9806    8.6543   20.5437 C   0  0  0  0  0  0  0  0  0  0  0  0
   13.7270    5.7144   19.8610 O   0  0  0  0  0  0  0  0  0  0  0  0
    8.3351    5.5235   15.4478 C   0  0  0  0  0  0  0  0  0  0  0  0
    8.7700    7.8434   21.3915 C   0  0  0  0  0  0  0  0  0  0  0  0
   11.7856    6.8851   19.2401 C   0  0  0  0  0  0  0  0  0  0  0  0
   10.5281    7.4276   19.5649 C   0  0  0  0  0  0  0  0  0  0  0  0
   10.0256    7.2907   20.8484 C   0  0  0  0  0  0  0  0  0  0  0  0
    9.3113    5.3049   14.4911 C   0  0  0  0  0  0  0  0  0  0  0  0
    9.4607    7.5646   16.0139 C   0  0  0  0  0  0  0  0  0  0  0  0
   10.4192    7.3157   15.0955 C   0  0  0  0  0  0  0  0  0  0  0  0
   10.2489    6.4227   23.0218 N   0  0  0  0  0  0  0  0  0  0  0  0
    7.2472    8.0746   23.5050 C   0  0  0  0  0  0  0  0  0  0  0  0
    9.2051    6.9101   23.4604 C   0  0  0  0  0  0  0  0  0  0  0  0
   11.9646    6.0299   21.4251 C   0  0  0  0  0  0  0  0  0  0  0  0
  1  5  1  0
  1 13  1  0
  2 20  2  0
  2 28  1  0
  2 29  1  0
  3 19  4  0
  3 25  4  0
  4 23  4  0
  4 27  1  0
  4 30  4  0
  5 17  1  0
  6  8  1  0
  6 29  1  0
  7 24  4  0
  7 26  4  0
  8 28  1  0
  9 13  2  0
 10 18  1  0
 10 21  4  0
 10 30  4  0
 11 17  2  0
 12 18  1  0
 13 15  1  0
 14 24  1  0
 15 25  1  0
 16 28  2  0
 17 20  1  0
 19 24  4  0
 20 23  1  0
 21 22  4  0
 22 23  4  0
 25 26  4  0
 27 29  2  0
M  END
$$$$

 Created by Python create_sdf_string function

 30 33  0  0  0  0  0  0  0  0999 V2000
    8.3036    9.8571   18.4133 C   0  0  0  0  0  0  0  0  0  0  0  0
    8.3694    7.6612   22.6703 C   0  0  0  0  0  0  0  0  0  0  0  0
    8.4143    6.6863   16.2273 C   0  0  0  0  0  0  0  0  0  0  0  0
   10.7581    6.5674   21.7636 C   0  0  0  0  0  0  0  0  0  0  0  0
    8.4452    8.7960   19.2958 O   0  0  0  0  0  0  0  0  0  0  0  0
    8.7122    6.7842   24.8569 C   0  0  0  0  0  0  0  0  0  0  0  0
   10.3400    6.1726   14.3081 C   0  0  0  0  0  0  0  0  0  0  0  0
    7.4297    7.5873   24.8962 C   0  0  0  0  0  0  0  0  0  0  0  0
    8.1566   10.0536   16.0516 O   0  0  0  0  0  0  0  0  0  0  0  0
   12.4989    6.2074   20.1776 C   0  0  0  0  0  0  0  0  0  0  0  0
    6.9192    9.1053   20.9073 O   0  0  0  0  0  0  0  0  0  0  0  0
   14.3979    6.0729   18.7784 C   0  0  0  0  0  0  0  0  0  0  0  0
    8.6811    9.5354   16.9998 C   0  0  0  0  0  0  0  0  0  0  0  0
    9.2512    4.2713   13.7653 O   0  0  0  0  0  0  0  0  0  0  0  0
    9.6495    8.6317   16.8332 N   0  0  0  0  0  0  0  0  0  0  0  0
    6.2934    8.6988   23.1988 O   0  0  0  0  0  0  0  0  0  0  0  0
    7.9806    8.6543   20.5437 C   0  0  0  0  0  0  0  0  0  0  0  0
   13.7270    5.7144   19.8610 O   0  0  0  0  0  0  0  0  0  0  0  0
    8.3351    5.5235   15.4478 C   0  0  0  0  0  0  0  0  0  0  0  0
    8.7700    7.8434   21.3915 C   0  0  0  0  0  0  0  0  0  0  0  0
   11.7856    6.8851   19.2401 C   0  0  0  0  0  0  0  0  0  0  0  0
   10.5281    7.4276   19.5649 C   0  0  0  0  0  0  0  0  0  0  0  0
   10.0256    7.2907   20.8484 C   0  0  0  0  0  0  0  0  0  0  0  0
    9.3113    5.3049   14.4911 C   0  0  0  0  0  0  0  0  0  0  0  0
    9.4607    7.5646   16.0139 C   0  0  0  0  0  0  0  0  0  0  0  0
   10.4192    7.3157   15.0955 C   0  0  0  0  0  0  0  0  0  0  0  0
   10.2489    6.4227   23.0218 N   0  0  0  0  0  0  0  0  0  0  0  0
    7.2472    8.0746   23.5050 C   0  0  0  0  0  0  0  0  0  0  0  0
    9.2051    6.9101   23.4604 C   0  0  0  0  0  0  0  0  0  0  0  0
   11.9646    6.0299   21.4251 C   0  0  0  0  0  0  0  0  0  0  0  0
  1  5  1  0
  1 13  1  0
  2 20  2  0
  2 28  1  0
  2 29  1  0
  3 19  4  0
  3 25  4  0
  4 23  4  0
  4 27  1  0
  4 30  4  0
  5 17  1  0
  6  8  1  0
  6 29  1  0
  7 24  4  0
  7 26  4  0
  8 28  1  0
  9 13  2  0
 10 18  1  0
 10 21  4  0
 10 30  4  0
 11 17  2  0
 12 18  1  0
 13 15  1  0
 14 24  1  0
 15 25  1  0
 16 28  2  0
 17 20  1  0
 19 24  4  0
 20 23  1  0
 21 22  4  0
 22 23  4  0
 25 26  4  0
 27 29  2  0
M  END
$$$$

 Created by Python create_sdf_string function

 30 33  0  0  0  0  0  0  0  0999 V2000
    8.3036    9.8571   18.4133 C   0  0  0  0  0  0  0  0  0  0  0  0
    8.3694    7.6612   22.6703 C   0  0  0  0  0  0  0  0  0  0  0  0
    8.4143    6.6863   16.2273 C   0  0  0  0  0  0  0  0  0  0  0  0
   10.7581    6.5674   21.7636 C   0  0  0  0  0  0  0  0  0  0  0  0
    8.4452    8.7960   19.2958 O   0  0  0  0  0  0  0  0  0  0  0  0
    8.7122    6.7842   24.8569 C   0  0  0  0  0  0  0  0  0  0  0  0
   10.3400    6.1726   14.3081 C   0  0  0  0  0  0  0  0  0  0  0  0
    7.4297    7.5873   24.8962 C   0  0  0  0  0  0  0  0  0  0  0  0
    8.1566   10.0536   16.0516 O   0  0  0  0  0  0  0  0  0  0  0  0
   12.4989    6.2074   20.1776 C   0  0  0  0  0  0  0  0  0  0  0  0
    6.9192    9.1053   20.9073 O   0  0  0  0  0  0  0  0  0  0  0  0
   14.3979    6.0729   18.7784 C   0  0  0  0  0  0  0  0  0  0  0  0
    8.6811    9.5354   16.9998 C   0  0  0  0  0  0  0  0  0  0  0  0
    9.2512    4.2713   13.7653 O   0  0  0  0  0  0  0  0  0  0  0  0
    9.6495    8.6317   16.8332 N   0  0  0  0  0  0  0  0  0  0  0  0
    6.2934    8.6988   23.1988 O   0  0  0  0  0  0  0  0  0  0  0  0
    7.9806    8.6543   20.5437 C   0  0  0  0  0  0  0  0  0  0  0  0
   13.7270    5.7144   19.8610 O   0  0  0  0  0  0  0  0  0  0  0  0
    8.3351    5.5235   15.4478 C   0  0  0  0  0  0  0  0  0  0  0  0
    8.7700    7.8434   21.3915 C   0  0  0  0  0  0  0  0  0  0  0  0
   11.7856    6.8851   19.2401 C   0  0  0  0  0  0  0  0  0  0  0  0
   10.5281    7.4276   19.5649 C   0  0  0  0  0  0  0  0  0  0  0  0
   10.0256    7.2907   20.8484 C   0  0  0  0  0  0  0  0  0  0  0  0
    9.3113    5.3049   14.4911 C   0  0  0  0  0  0  0  0  0  0  0  0
    9.4607    7.5646   16.0139 C   0  0  0  0  0  0  0  0  0  0  0  0
   10.4192    7.3157   15.0955 C   0  0  0  0  0  0  0  0  0  0  0  0
   10.2489    6.4227   23.0218 N   0  0  0  0  0  0  0  0  0  0  0  0
    7.2472    8.0746   23.5050 C   0  0  0  0  0  0  0  0  0  0  0  0
    9.2051    6.9101   23.4604 C   0  0  0  0  0  0  0  0  0  0  0  0
   11.9646    6.0299   21.4251 C   0  0  0  0  0  0  0  0  0  0  0  0
  1  5  1  0
  1 13  1  0
  2 20  2  0
  2 28  1  0
  2 29  1  0
  3 19  4  0
  3 25  4  0
  4 23  4  0
  4 27  1  0
  4 30  4  0
  5 17  1  0
  6  8  1  0
  6 29  1  0
  7 24  4  0
  7 26  4  0
  8 28  1  0
  9 13  2  0
 10 18  1  0
 10 21  4  0
 10 30  4  0
 11 17  2  0
 12 18  1  0
 13 15  1  0
 14 24  1  0
 15 25  1  0
 16 28  2  0
 17 20  1  0
 19 24  4  0
 20 23  1  0
 21 22  4  0
 22 23  4  0
 25 26  4  0
 27 29  2  0
M  END
$$$$

 Created by Python create_sdf_string function

 30 33  0  0  0  0  0  0  0  0999 V2000
    8.3036    9.8571   18.4133 C   0  0  0  0  0  0  0  0  0  0  0  0
    8.3694    7.6612   22.6703 C   0  0  0  0  0  0  0  0  0  0  0  0
    8.4143    6.6863   16.2273 C   0  0  0  0  0  0  0  0  0  0  0  0
   10.7581    6.5674   21.7636 C   0  0  0  0  0  0  0  0  0  0  0  0
    8.4452    8.7960   19.2958 O   0  0  0  0  0  0  0  0  0  0  0  0
    8.7122    6.7842   24.8569 C   0  0  0  0  0  0  0  0  0  0  0  0
   10.3400    6.1726   14.3081 C   0  0  0  0  0  0  0  0  0  0  0  0
    7.4297    7.5873   24.8962 C   0  0  0  0  0  0  0  0  0  0  0  0
    8.1566   10.0536   16.0516 O   0  0  0  0  0  0  0  0  0  0  0  0
   12.4989    6.2074   20.1776 C   0  0  0  0  0  0  0  0  0  0  0  0
    6.9192    9.1053   20.9073 O   0  0  0  0  0  0  0  0  0  0  0  0
   14.3979    6.0729   18.7784 C   0  0  0  0  0  0  0  0  0  0  0  0
    8.6811    9.5354   16.9998 C   0  0  0  0  0  0  0  0  0  0  0  0
    9.2512    4.2713   13.7653 O   0  0  0  0  0  0  0  0  0  0  0  0
    9.6495    8.6317   16.8332 N   0  0  0  0  0  0  0  0  0  0  0  0
    6.2934    8.6988   23.1988 O   0  0  0  0  0  0  0  0  0  0  0  0
    7.9806    8.6543   20.5437 C   0  0  0  0  0  0  0  0  0  0  0  0
   13.7270    5.7144   19.8610 O   0  0  0  0  0  0  0  0  0  0  0  0
    8.3351    5.5235   15.4478 C   0  0  0  0  0  0  0  0  0  0  0  0
    8.7700    7.8434   21.3915 C   0  0  0  0  0  0  0  0  0  0  0  0
   11.7856    6.8851   19.2401 C   0  0  0  0  0  0  0  0  0  0  0  0
   10.5281    7.4276   19.5649 C   0  0  0  0  0  0  0  0  0  0  0  0
   10.0256    7.2907   20.8484 C   0  0  0  0  0  0  0  0  0  0  0  0
    9.3113    5.3049   14.4911 C   0  0  0  0  0  0  0  0  0  0  0  0
    9.4607    7.5646   16.0139 C   0  0  0  0  0  0  0  0  0  0  0  0
   10.4192    7.3157   15.0955 C   0  0  0  0  0  0  0  0  0  0  0  0
   10.2489    6.4227   23.0218 N   0  0  0  0  0  0  0  0  0  0  0  0
    7.2472    8.0746   23.5050 C   0  0  0  0  0  0  0  0  0  0  0  0
    9.2051    6.9101   23.4604 C   0  0  0  0  0  0  0  0  0  0  0  0
   11.9646    6.0299   21.4251 C   0  0  0  0  0  0  0  0  0  0  0  0
  1  5  1  0
  1 13  1  0
  2 20  2  0
  2 28  1  0
  2 29  1  0
  3 19  4  0
  3 25  4  0
  4 23  4  0
  4 27  1  0
  4 30  4  0
  5 17  1  0
  6  8  1  0
  6 29  1  0
  7 24  4  0
  7 26  4  0
  8 28  1  0
  9 13  2  0
 10 18  1  0
 10 21  4  0
 10 30  4  0
 11 17  2  0
 12 18  1  0
 13 15  1  0
 14 24  1  0
 15 25  1  0
 16 28  2  0
 17 20  1  0
 19 24  4  0
 20 23  1  0
 21 22  4  0
 22 23  4  0
 25 26  4  0
 27 29  2  0
M  END
$$$$

 Created by Python create_sdf_string function

 30 33  0  0  0  0  0  0  0  0999 V2000
    8.3036    9.8571   18.4133 C   0  0  0  0  0  0  0  0  0  0  0  0
    8.3694    7.6612   22.6703 C   0  0  0  0  0  0  0  0  0  0  0  0
    8.4143    6.6863   16.2273 C   0  0  0  0  0  0  0  0  0  0  0  0
   10.7581    6.5674   21.7636 C   0  0  0  0  0  0  0  0  0  0  0  0
    8.4452    8.7960   19.2958 O   0  0  0  0  0  0  0  0  0  0  0  0
    8.7122    6.7842   24.8569 C   0  0  0  0  0  0  0  0  0  0  0  0
   10.3400    6.1726   14.3081 C   0  0  0  0  0  0  0  0  0  0  0  0
    7.4297    7.5873   24.8962 C   0  0  0  0  0  0  0  0  0  0  0  0
    8.1566   10.0536   16.0516 O   0  0  0  0  0  0  0  0  0  0  0  0
   12.4989    6.2074   20.1776 C   0  0  0  0  0  0  0  0  0  0  0  0
    6.9192    9.1053   20.9073 O   0  0  0  0  0  0  0  0  0  0  0  0
   14.3979    6.0729   18.7784 C   0  0  0  0  0  0  0  0  0  0  0  0
    8.6811    9.5354   16.9998 C   0  0  0  0  0  0  0  0  0  0  0  0
    9.2512    4.2713   13.7653 O   0  0  0  0  0  0  0  0  0  0  0  0
    9.6495    8.6317   16.8332 N   0  0  0  0  0  0  0  0  0  0  0  0
    6.2934    8.6988   23.1988 O   0  0  0  0  0  0  0  0  0  0  0  0
    7.9806    8.6543   20.5437 C   0  0  0  0  0  0  0  0  0  0  0  0
   13.7270    5.7144   19.8610 O   0  0  0  0  0  0  0  0  0  0  0  0
    8.3351    5.5235   15.4478 C   0  0  0  0  0  0  0  0  0  0  0  0
    8.7700    7.8434   21.3915 C   0  0  0  0  0  0  0  0  0  0  0  0
   11.7856    6.8851   19.2401 C   0  0  0  0  0  0  0  0  0  0  0  0
   10.5281    7.4276   19.5649 C   0  0  0  0  0  0  0  0  0  0  0  0
   10.0256    7.2907   20.8484 C   0  0  0  0  0  0  0  0  0  0  0  0
    9.3113    5.3049   14.4911 C   0  0  0  0  0  0  0  0  0  0  0  0
    9.4607    7.5646   16.0139 C   0  0  0  0  0  0  0  0  0  0  0  0
   10.4192    7.3157   15.0955 C   0  0  0  0  0  0  0  0  0  0  0  0
   10.2489    6.4227   23.0218 N   0  0  0  0  0  0  0  0  0  0  0  0
    7.2472    8.0746   23.5050 C   0  0  0  0  0  0  0  0  0  0  0  0
    9.2051    6.9101   23.4604 C   0  0  0  0  0  0  0  0  0  0  0  0
   11.9646    6.0299   21.4251 C   0  0  0  0  0  0  0  0  0  0  0  0
  1  5  1  0
  1 13  1  0
  2 20  2  0
  2 28  1  0
  2 29  1  0
  3 19  4  0
  3 25  4  0
  4 23  4  0
  4 27  1  0
  4 30  4  0
  5 17  1  0
  6  8  1  0
  6 29  1  0
  7 24  4  0
  7 26  4  0
  8 28  1  0
  9 13  2  0
 10 18  1  0
 10 21  4  0
 10 30  4  0
 11 17  2  0
 12 18  1  0
 13 15  1  0
 14 24  1  0
 15 25  1  0
 16 28  2  0
 17 20  1  0
 19 24  4  0
 20 23  1  0
 21 22  4  0
 22 23  4  0
 25 26  4  0
 27 29  2  0
M  END
$$$$

 Created by Python create_sdf_string function

 30 33  0  0  0  0  0  0  0  0999 V2000
    8.3036    9.8571   18.4133 C   0  0  0  0  0  0  0  0  0  0  0  0
    8.3694    7.6612   22.6703 C   0  0  0  0  0  0  0  0  0  0  0  0
    8.4143    6.6863   16.2273 C   0  0  0  0  0  0  0  0  0  0  0  0
   10.7581    6.5674   21.7636 C   0  0  0  0  0  0  0  0  0  0  0  0
    8.4452    8.7960   19.2958 O   0  0  0  0  0  0  0  0  0  0  0  0
    8.7122    6.7842   24.8569 C   0  0  0  0  0  0  0  0  0  0  0  0
   10.3400    6.1726   14.3081 C   0  0  0  0  0  0  0  0  0  0  0  0
    7.4297    7.5873   24.8962 C   0  0  0  0  0  0  0  0  0  0  0  0
    8.1566   10.0536   16.0516 O   0  0  0  0  0  0  0  0  0  0  0  0
   12.4989    6.2074   20.1776 C   0  0  0  0  0  0  0  0  0  0  0  0
    6.9192    9.1053   20.9073 O   0  0  0  0  0  0  0  0  0  0  0  0
   14.3979    6.0729   18.7784 C   0  0  0  0  0  0  0  0  0  0  0  0
    8.6811    9.5354   16.9998 C   0  0  0  0  0  0  0  0  0  0  0  0
    9.2512    4.2713   13.7653 O   0  0  0  0  0  0  0  0  0  0  0  0
    9.6495    8.6317   16.8332 N   0  0  0  0  0  0  0  0  0  0  0  0
    6.2934    8.6988   23.1988 O   0  0  0  0  0  0  0  0  0  0  0  0
    7.9806    8.6543   20.5437 C   0  0  0  0  0  0  0  0  0  0  0  0
   13.7270    5.7144   19.8610 O   0  0  0  0  0  0  0  0  0  0  0  0
    8.3351    5.5235   15.4478 C   0  0  0  0  0  0  0  0  0  0  0  0
    8.7700    7.8434   21.3915 C   0  0  0  0  0  0  0  0  0  0  0  0
   11.7856    6.8851   19.2401 C   0  0  0  0  0  0  0  0  0  0  0  0
   10.5281    7.4276   19.5649 C   0  0  0  0  0  0  0  0  0  0  0  0
   10.0256    7.2907   20.8484 C   0  0  0  0  0  0  0  0  0  0  0  0
    9.3113    5.3049   14.4911 C   0  0  0  0  0  0  0  0  0  0  0  0
    9.4607    7.5646   16.0139 C   0  0  0  0  0  0  0  0  0  0  0  0
   10.4192    7.3157   15.0955 C   0  0  0  0  0  0  0  0  0  0  0  0
   10.2489    6.4227   23.0218 N   0  0  0  0  0  0  0  0  0  0  0  0
    7.2472    8.0746   23.5050 C   0  0  0  0  0  0  0  0  0  0  0  0
    9.2051    6.9101   23.4604 C   0  0  0  0  0  0  0  0  0  0  0  0
   11.9646    6.0299   21.4251 C   0  0  0  0  0  0  0  0  0  0  0  0
  1  5  1  0
  1 13  1  0
  2 20  2  0
  2 28  1  0
  2 29  1  0
  3 19  4  0
  3 25  4  0
  4 23  4  0
  4 27  1  0
  4 30  4  0
  5 17  1  0
  6  8  1  0
  6 29  1  0
  7 24  4  0
  7 26  4  0
  8 28  1  0
  9 13  2  0
 10 18  1  0
 10 21  4  0
 10 30  4  0
 11 17  2  0
 12 18  1  0
 13 15  1  0
 14 24  1  0
 15 25  1  0
 16 28  2  0
 17 20  1  0
 19 24  4  0
 20 23  1  0
 21 22  4  0
 22 23  4  0
 25 26  4  0
 27 29  2  0
M  END
$$$$

 Created by Python create_sdf_string function

 30 33  0  0  0  0  0  0  0  0999 V2000
    8.3036    9.8571   18.4133 C   0  0  0  0  0  0  0  0  0  0  0  0
    8.3694    7.6612   22.6703 C   0  0  0  0  0  0  0  0  0  0  0  0
    8.4143    6.6863   16.2273 C   0  0  0  0  0  0  0  0  0  0  0  0
   10.7581    6.5674   21.7636 C   0  0  0  0  0  0  0  0  0  0  0  0
    8.4452    8.7960   19.2958 O   0  0  0  0  0  0  0  0  0  0  0  0
    8.7122    6.7842   24.8569 C   0  0  0  0  0  0  0  0  0  0  0  0
   10.3400    6.1726   14.3081 C   0  0  0  0  0  0  0  0  0  0  0  0
    7.4297    7.5873   24.8962 C   0  0  0  0  0  0  0  0  0  0  0  0
    8.1566   10.0536   16.0516 O   0  0  0  0  0  0  0  0  0  0  0  0
   12.4989    6.2074   20.1776 C   0  0  0  0  0  0  0  0  0  0  0  0
    6.9192    9.1053   20.9073 O   0  0  0  0  0  0  0  0  0  0  0  0
   14.3979    6.0729   18.7784 C   0  0  0  0  0  0  0  0  0  0  0  0
    8.6811    9.5354   16.9998 C   0  0  0  0  0  0  0  0  0  0  0  0
    9.2512    4.2713   13.7653 O   0  0  0  0  0  0  0  0  0  0  0  0
    9.6495    8.6317   16.8332 N   0  0  0  0  0  0  0  0  0  0  0  0
    6.2934    8.6988   23.1988 O   0  0  0  0  0  0  0  0  0  0  0  0
    7.9806    8.6543   20.5437 C   0  0  0  0  0  0  0  0  0  0  0  0
   13.7270    5.7144   19.8610 O   0  0  0  0  0  0  0  0  0  0  0  0
    8.3351    5.5235   15.4478 C   0  0  0  0  0  0  0  0  0  0  0  0
    8.7700    7.8434   21.3915 C   0  0  0  0  0  0  0  0  0  0  0  0
   11.7856    6.8851   19.2401 C   0  0  0  0  0  0  0  0  0  0  0  0
   10.5281    7.4276   19.5649 C   0  0  0  0  0  0  0  0  0  0  0  0
   10.0256    7.2907   20.8484 C   0  0  0  0  0  0  0  0  0  0  0  0
    9.3113    5.3049   14.4911 C   0  0  0  0  0  0  0  0  0  0  0  0
    9.4607    7.5646   16.0139 C   0  0  0  0  0  0  0  0  0  0  0  0
   10.4192    7.3157   15.0955 C   0  0  0  0  0  0  0  0  0  0  0  0
   10.2489    6.4227   23.0218 N   0  0  0  0  0  0  0  0  0  0  0  0
    7.2472    8.0746   23.5050 C   0  0  0  0  0  0  0  0  0  0  0  0
    9.2051    6.9101   23.4604 C   0  0  0  0  0  0  0  0  0  0  0  0
   11.9646    6.0299   21.4251 C   0  0  0  0  0  0  0  0  0  0  0  0
  1  5  1  0
  1 13  1  0
  2 20  2  0
  2 28  1  0
  2 29  1  0
  3 19  4  0
  3 25  4  0
  4 23  4  0
  4 27  1  0
  4 30  4  0
  5 17  1  0
  6  8  1  0
  6 29  1  0
  7 24  4  0
  7 26  4  0
  8 28  1  0
  9 13  2  0
 10 18  1  0
 10 21  4  0
 10 30  4  0
 11 17  2  0
 12 18  1  0
 13 15  1  0
 14 24  1  0
 15 25  1  0
 16 28  2  0
 17 20  1  0
 19 24  4  0
 20 23  1  0
 21 22  4  0
 22 23  4  0
 25 26  4  0
 27 29  2  0
M  END
$$$$

 Created by Python create_sdf_string function

 30 33  0  0  0  0  0  0  0  0999 V2000
    8.3036    9.8571   18.4133 C   0  0  0  0  0  0  0  0  0  0  0  0
    8.3694    7.6612   22.6703 C   0  0  0  0  0  0  0  0  0  0  0  0
    8.4143    6.6863   16.2273 C   0  0  0  0  0  0  0  0  0  0  0  0
   10.7581    6.5674   21.7636 C   0  0  0  0  0  0  0  0  0  0  0  0
    8.4452    8.7960   19.2958 O   0  0  0  0  0  0  0  0  0  0  0  0
    8.7122    6.7842   24.8569 C   0  0  0  0  0  0  0  0  0  0  0  0
   10.3400    6.1726   14.3081 C   0  0  0  0  0  0  0  0  0  0  0  0
    7.4297    7.5873   24.8962 C   0  0  0  0  0  0  0  0  0  0  0  0
    8.1566   10.0536   16.0516 O   0  0  0  0  0  0  0  0  0  0  0  0
   12.4989    6.2074   20.1776 C   0  0  0  0  0  0  0  0  0  0  0  0
    6.9192    9.1053   20.9073 O   0  0  0  0  0  0  0  0  0  0  0  0
   14.3979    6.0729   18.7784 C   0  0  0  0  0  0  0  0  0  0  0  0
    8.6811    9.5354   16.9998 C   0  0  0  0  0  0  0  0  0  0  0  0
    9.2512    4.2713   13.7653 O   0  0  0  0  0  0  0  0  0  0  0  0
    9.6495    8.6317   16.8332 N   0  0  0  0  0  0  0  0  0  0  0  0
    6.2934    8.6988   23.1988 O   0  0  0  0  0  0  0  0  0  0  0  0
    7.9806    8.6543   20.5437 C   0  0  0  0  0  0  0  0  0  0  0  0
   13.7270    5.7144   19.8610 O   0  0  0  0  0  0  0  0  0  0  0  0
    8.3351    5.5235   15.4478 C   0  0  0  0  0  0  0  0  0  0  0  0
    8.7700    7.8434   21.3915 C   0  0  0  0  0  0  0  0  0  0  0  0
   11.7856    6.8851   19.2401 C   0  0  0  0  0  0  0  0  0  0  0  0
   10.5281    7.4276   19.5649 C   0  0  0  0  0  0  0  0  0  0  0  0
   10.0256    7.2907   20.8484 C   0  0  0  0  0  0  0  0  0  0  0  0
    9.3113    5.3049   14.4911 C   0  0  0  0  0  0  0  0  0  0  0  0
    9.4607    7.5646   16.0139 C   0  0  0  0  0  0  0  0  0  0  0  0
   10.4192    7.3157   15.0955 C   0  0  0  0  0  0  0  0  0  0  0  0
   10.2489    6.4227   23.0218 N   0  0  0  0  0  0  0  0  0  0  0  0
    7.2472    8.0746   23.5050 C   0  0  0  0  0  0  0  0  0  0  0  0
    9.2051    6.9101   23.4604 C   0  0  0  0  0  0  0  0  0  0  0  0
   11.9646    6.0299   21.4251 C   0  0  0  0  0  0  0  0  0  0  0  0
  1  5  1  0
  1 13  1  0
  2 20  2  0
  2 28  1  0
  2 29  1  0
  3 19  4  0
  3 25  4  0
  4 23  4  0
  4 27  1  0
  4 30  4  0
  5 17  1  0
  6  8  1  0
  6 29  1  0
  7 24  4  0
  7 26  4  0
  8 28  1  0
  9 13  2  0
 10 18  1  0
 10 21  4  0
 10 30  4  0
 11 17  2  0
 12 18  1  0
 13 15  1  0
 14 24  1  0
 15 25  1  0
 16 28  2  0
 17 20  1  0
 19 24  4  0
 20 23  1  0
 21 22  4  0
 22 23  4  0
 25 26  4  0
 27 29  2  0
M  END
$$$$

 Created by Python create_sdf_string function

 30 33  0  0  0  0  0  0  0  0999 V2000
    8.3036    9.8571   18.4133 C   0  0  0  0  0  0  0  0  0  0  0  0
    8.3694    7.6612   22.6703 C   0  0  0  0  0  0  0  0  0  0  0  0
    8.4143    6.6863   16.2273 C   0  0  0  0  0  0  0  0  0  0  0  0
   10.7581    6.5674   21.7636 C   0  0  0  0  0  0  0  0  0  0  0  0
    8.4452    8.7960   19.2958 O   0  0  0  0  0  0  0  0  0  0  0  0
    8.7122    6.7842   24.8569 C   0  0  0  0  0  0  0  0  0  0  0  0
   10.3400    6.1726   14.3081 C   0  0  0  0  0  0  0  0  0  0  0  0
    7.4297    7.5873   24.8962 C   0  0  0  0  0  0  0  0  0  0  0  0
    8.1566   10.0536   16.0516 O   0  0  0  0  0  0  0  0  0  0  0  0
   12.4989    6.2074   20.1776 C   0  0  0  0  0  0  0  0  0  0  0  0
    6.9192    9.1053   20.9073 O   0  0  0  0  0  0  0  0  0  0  0  0
   14.3979    6.0729   18.7784 C   0  0  0  0  0  0  0  0  0  0  0  0
    8.6811    9.5354   16.9998 C   0  0  0  0  0  0  0  0  0  0  0  0
    9.2512    4.2713   13.7653 O   0  0  0  0  0  0  0  0  0  0  0  0
    9.6495    8.6317   16.8332 N   0  0  0  0  0  0  0  0  0  0  0  0
    6.2934    8.6988   23.1988 O   0  0  0  0  0  0  0  0  0  0  0  0
    7.9806    8.6543   20.5437 C   0  0  0  0  0  0  0  0  0  0  0  0
   13.7270    5.7144   19.8610 O   0  0  0  0  0  0  0  0  0  0  0  0
    8.3351    5.5235   15.4478 C   0  0  0  0  0  0  0  0  0  0  0  0
    8.7700    7.8434   21.3915 C   0  0  0  0  0  0  0  0  0  0  0  0
   11.7856    6.8851   19.2401 C   0  0  0  0  0  0  0  0  0  0  0  0
   10.5281    7.4276   19.5649 C   0  0  0  0  0  0  0  0  0  0  0  0
   10.0256    7.2907   20.8484 C   0  0  0  0  0  0  0  0  0  0  0  0
    9.3113    5.3049   14.4911 C   0  0  0  0  0  0  0  0  0  0  0  0
    9.4607    7.5646   16.0139 C   0  0  0  0  0  0  0  0  0  0  0  0
   10.4192    7.3157   15.0955 C   0  0  0  0  0  0  0  0  0  0  0  0
   10.2489    6.4227   23.0218 N   0  0  0  0  0  0  0  0  0  0  0  0
    7.2472    8.0746   23.5050 C   0  0  0  0  0  0  0  0  0  0  0  0
    9.2051    6.9101   23.4604 C   0  0  0  0  0  0  0  0  0  0  0  0
   11.9646    6.0299   21.4251 C   0  0  0  0  0  0  0  0  0  0  0  0
  1  5  1  0
  1 13  1  0
  2 20  2  0
  2 28  1  0
  2 29  1  0
  3 19  4  0
  3 25  4  0
  4 23  4  0
  4 27  1  0
  4 30  4  0
  5 17  1  0
  6  8  1  0
  6 29  1  0
  7 24  4  0
  7 26  4  0
  8 28  1  0
  9 13  2  0
 10 18  1  0
 10 21  4  0
 10 30  4  0
 11 17  2  0
 12 18  1  0
 13 15  1  0
 14 24  1  0
 15 25  1  0
 16 28  2  0
 17 20  1  0
 19 24  4  0
 20 23  1  0
 21 22  4  0
 22 23  4  0
 25 26  4  0
 27 29  2  0
M  END
$$$$

 Created by Python create_sdf_string function

 30 33  0  0  0  0  0  0  0  0999 V2000
    8.3036    9.8571   18.4133 C   0  0  0  0  0  0  0  0  0  0  0  0
    8.3694    7.6612   22.6703 C   0  0  0  0  0  0  0  0  0  0  0  0
    8.4143    6.6863   16.2273 C   0  0  0  0  0  0  0  0  0  0  0  0
   10.7581    6.5674   21.7636 C   0  0  0  0  0  0  0  0  0  0  0  0
    8.4452    8.7960   19.2958 O   0  0  0  0  0  0  0  0  0  0  0  0
    8.7122    6.7842   24.8569 C   0  0  0  0  0  0  0  0  0  0  0  0
   10.3400    6.1726   14.3081 C   0  0  0  0  0  0  0  0  0  0  0  0
    7.4297    7.5873   24.8962 C   0  0  0  0  0  0  0  0  0  0  0  0
    8.1566   10.0536   16.0516 O   0  0  0  0  0  0  0  0  0  0  0  0
   12.4989    6.2074   20.1776 C   0  0  0  0  0  0  0  0  0  0  0  0
    6.9192    9.1053   20.9073 O   0  0  0  0  0  0  0  0  0  0  0  0
   14.3979    6.0729   18.7784 C   0  0  0  0  0  0  0  0  0  0  0  0
    8.6811    9.5354   16.9998 C   0  0  0  0  0  0  0  0  0  0  0  0
    9.2512    4.2713   13.7653 O   0  0  0  0  0  0  0  0  0  0  0  0
    9.6495    8.6317   16.8332 N   0  0  0  0  0  0  0  0  0  0  0  0
    6.2934    8.6988   23.1988 O   0  0  0  0  0  0  0  0  0  0  0  0
    7.9806    8.6543   20.5437 C   0  0  0  0  0  0  0  0  0  0  0  0
   13.7270    5.7144   19.8610 O   0  0  0  0  0  0  0  0  0  0  0  0
    8.3351    5.5235   15.4478 C   0  0  0  0  0  0  0  0  0  0  0  0
    8.7700    7.8434   21.3915 C   0  0  0  0  0  0  0  0  0  0  0  0
   11.7856    6.8851   19.2401 C   0  0  0  0  0  0  0  0  0  0  0  0
   10.5281    7.4276   19.5649 C   0  0  0  0  0  0  0  0  0  0  0  0
   10.0256    7.2907   20.8484 C   0  0  0  0  0  0  0  0  0  0  0  0
    9.3113    5.3049   14.4911 C   0  0  0  0  0  0  0  0  0  0  0  0
    9.4607    7.5646   16.0139 C   0  0  0  0  0  0  0  0  0  0  0  0
   10.4192    7.3157   15.0955 C   0  0  0  0  0  0  0  0  0  0  0  0
   10.2489    6.4227   23.0218 N   0  0  0  0  0  0  0  0  0  0  0  0
    7.2472    8.0746   23.5050 C   0  0  0  0  0  0  0  0  0  0  0  0
    9.2051    6.9101   23.4604 C   0  0  0  0  0  0  0  0  0  0  0  0
   11.9646    6.0299   21.4251 C   0  0  0  0  0  0  0  0  0  0  0  0
  1  5  1  0
  1 13  1  0
  2 20  2  0
  2 28  1  0
  2 29  1  0
  3 19  4  0
  3 25  4  0
  4 23  4  0
  4 27  1  0
  4 30  4  0
  5 17  1  0
  6  8  1  0
  6 29  1  0
  7 24  4  0
  7 26  4  0
  8 28  1  0
  9 13  2  0
 10 18  1  0
 10 21  4  0
 10 30  4  0
 11 17  2  0
 12 18  1  0
 13 15  1  0
 14 24  1  0
 15 25  1  0
 16 28  2  0
 17 20  1  0
 19 24  4  0
 20 23  1  0
 21 22  4  0
 22 23  4  0
 25 26  4  0
 27 29  2  0
M  END
$$$$

 Created by Python create_sdf_string function

 30 33  0  0  0  0  0  0  0  0999 V2000
    8.3036    9.8571   18.4133 C   0  0  0  0  0  0  0  0  0  0  0  0
    8.3694    7.6612   22.6703 C   0  0  0  0  0  0  0  0  0  0  0  0
    8.4143    6.6863   16.2273 C   0  0  0  0  0  0  0  0  0  0  0  0
   10.7581    6.5674   21.7636 C   0  0  0  0  0  0  0  0  0  0  0  0
    8.4452    8.7960   19.2958 O   0  0  0  0  0  0  0  0  0  0  0  0
    8.7122    6.7842   24.8569 C   0  0  0  0  0  0  0  0  0  0  0  0
   10.3400    6.1726   14.3081 C   0  0  0  0  0  0  0  0  0  0  0  0
    7.4297    7.5873   24.8962 C   0  0  0  0  0  0  0  0  0  0  0  0
    8.1566   10.0536   16.0516 O   0  0  0  0  0  0  0  0  0  0  0  0
   12.4989    6.2074   20.1776 C   0  0  0  0  0  0  0  0  0  0  0  0
    6.9192    9.1053   20.9073 O   0  0  0  0  0  0  0  0  0  0  0  0
   14.3979    6.0729   18.7784 C   0  0  0  0  0  0  0  0  0  0  0  0
    8.6811    9.5354   16.9998 C   0  0  0  0  0  0  0  0  0  0  0  0
    9.2512    4.2713   13.7653 O   0  0  0  0  0  0  0  0  0  0  0  0
    9.6495    8.6317   16.8332 N   0  0  0  0  0  0  0  0  0  0  0  0
    6.2934    8.6988   23.1988 O   0  0  0  0  0  0  0  0  0  0  0  0
    7.9806    8.6543   20.5437 C   0  0  0  0  0  0  0  0  0  0  0  0
   13.7270    5.7144   19.8610 O   0  0  0  0  0  0  0  0  0  0  0  0
    8.3351    5.5235   15.4478 C   0  0  0  0  0  0  0  0  0  0  0  0
    8.7700    7.8434   21.3915 C   0  0  0  0  0  0  0  0  0  0  0  0
   11.7856    6.8851   19.2401 C   0  0  0  0  0  0  0  0  0  0  0  0
   10.5281    7.4276   19.5649 C   0  0  0  0  0  0  0  0  0  0  0  0
   10.0256    7.2907   20.8484 C   0  0  0  0  0  0  0  0  0  0  0  0
    9.3113    5.3049   14.4911 C   0  0  0  0  0  0  0  0  0  0  0  0
    9.4607    7.5646   16.0139 C   0  0  0  0  0  0  0  0  0  0  0  0
   10.4192    7.3157   15.0955 C   0  0  0  0  0  0  0  0  0  0  0  0
   10.2489    6.4227   23.0218 N   0  0  0  0  0  0  0  0  0  0  0  0
    7.2472    8.0746   23.5050 C   0  0  0  0  0  0  0  0  0  0  0  0
    9.2051    6.9101   23.4604 C   0  0  0  0  0  0  0  0  0  0  0  0
   11.9646    6.0299   21.4251 C   0  0  0  0  0  0  0  0  0  0  0  0
  1  5  1  0
  1 13  1  0
  2 20  2  0
  2 28  1  0
  2 29  1  0
  3 19  4  0
  3 25  4  0
  4 23  4  0
  4 27  1  0
  4 30  4  0
  5 17  1  0
  6  8  1  0
  6 29  1  0
  7 24  4  0
  7 26  4  0
  8 28  1  0
  9 13  2  0
 10 18  1  0
 10 21  4  0
 10 30  4  0
 11 17  2  0
 12 18  1  0
 13 15  1  0
 14 24  1  0
 15 25  1  0
 16 28  2  0
 17 20  1  0
 19 24  4  0
 20 23  1  0
 21 22  4  0
 22 23  4  0
 25 26  4  0
 27 29  2  0
M  END
$$$$

 Created by Python create_sdf_string function

 30 33  0  0  0  0  0  0  0  0999 V2000
    8.3036    9.8571   18.4133 C   0  0  0  0  0  0  0  0  0  0  0  0
    8.3694    7.6612   22.6703 C   0  0  0  0  0  0  0  0  0  0  0  0
    8.4143    6.6863   16.2273 C   0  0  0  0  0  0  0  0  0  0  0  0
   10.7581    6.5674   21.7636 C   0  0  0  0  0  0  0  0  0  0  0  0
    8.4452    8.7960   19.2958 O   0  0  0  0  0  0  0  0  0  0  0  0
    8.7122    6.7842   24.8569 C   0  0  0  0  0  0  0  0  0  0  0  0
   10.3400    6.1726   14.3081 C   0  0  0  0  0  0  0  0  0  0  0  0
    7.4297    7.5873   24.8962 C   0  0  0  0  0  0  0  0  0  0  0  0
    8.1566   10.0536   16.0516 O   0  0  0  0  0  0  0  0  0  0  0  0
   12.4989    6.2074   20.1776 C   0  0  0  0  0  0  0  0  0  0  0  0
    6.9192    9.1053   20.9073 O   0  0  0  0  0  0  0  0  0  0  0  0
   14.3979    6.0729   18.7784 C   0  0  0  0  0  0  0  0  0  0  0  0
    8.6811    9.5354   16.9998 C   0  0  0  0  0  0  0  0  0  0  0  0
    9.2512    4.2713   13.7653 O   0  0  0  0  0  0  0  0  0  0  0  0
    9.6495    8.6317   16.8332 N   0  0  0  0  0  0  0  0  0  0  0  0
    6.2934    8.6988   23.1988 O   0  0  0  0  0  0  0  0  0  0  0  0
    7.9806    8.6543   20.5437 C   0  0  0  0  0  0  0  0  0  0  0  0
   13.7270    5.7144   19.8610 O   0  0  0  0  0  0  0  0  0  0  0  0
    8.3351    5.5235   15.4478 C   0  0  0  0  0  0  0  0  0  0  0  0
    8.7700    7.8434   21.3915 C   0  0  0  0  0  0  0  0  0  0  0  0
   11.7856    6.8851   19.2401 C   0  0  0  0  0  0  0  0  0  0  0  0
   10.5281    7.4276   19.5649 C   0  0  0  0  0  0  0  0  0  0  0  0
   10.0256    7.2907   20.8484 C   0  0  0  0  0  0  0  0  0  0  0  0
    9.3113    5.3049   14.4911 C   0  0  0  0  0  0  0  0  0  0  0  0
    9.4607    7.5646   16.0139 C   0  0  0  0  0  0  0  0  0  0  0  0
   10.4192    7.3157   15.0955 C   0  0  0  0  0  0  0  0  0  0  0  0
   10.2489    6.4227   23.0218 N   0  0  0  0  0  0  0  0  0  0  0  0
    7.2472    8.0746   23.5050 C   0  0  0  0  0  0  0  0  0  0  0  0
    9.2051    6.9101   23.4604 C   0  0  0  0  0  0  0  0  0  0  0  0
   11.9646    6.0299   21.4251 C   0  0  0  0  0  0  0  0  0  0  0  0
  1  5  1  0
  1 13  1  0
  2 20  2  0
  2 28  1  0
  2 29  1  0
  3 19  4  0
  3 25  4  0
  4 23  4  0
  4 27  1  0
  4 30  4  0
  5 17  1  0
  6  8  1  0
  6 29  1  0
  7 24  4  0
  7 26  4  0
  8 28  1  0
  9 13  2  0
 10 18  1  0
 10 21  4  0
 10 30  4  0
 11 17  2  0
 12 18  1  0
 13 15  1  0
 14 24  1  0
 15 25  1  0
 16 28  2  0
 17 20  1  0
 19 24  4  0
 20 23  1  0
 21 22  4  0
 22 23  4  0
 25 26  4  0
 27 29  2  0
M  END
$$$$

 Created by Python create_sdf_string function

 30 33  0  0  0  0  0  0  0  0999 V2000
    8.3036    9.8571   18.4133 C   0  0  0  0  0  0  0  0  0  0  0  0
    8.3694    7.6612   22.6703 C   0  0  0  0  0  0  0  0  0  0  0  0
    8.4143    6.6863   16.2273 C   0  0  0  0  0  0  0  0  0  0  0  0
   10.7581    6.5674   21.7636 C   0  0  0  0  0  0  0  0  0  0  0  0
    8.4452    8.7960   19.2958 O   0  0  0  0  0  0  0  0  0  0  0  0
    8.7122    6.7842   24.8569 C   0  0  0  0  0  0  0  0  0  0  0  0
   10.3400    6.1726   14.3081 C   0  0  0  0  0  0  0  0  0  0  0  0
    7.4297    7.5873   24.8962 C   0  0  0  0  0  0  0  0  0  0  0  0
    8.1566   10.0536   16.0516 O   0  0  0  0  0  0  0  0  0  0  0  0
   12.4989    6.2074   20.1776 C   0  0  0  0  0  0  0  0  0  0  0  0
    6.9192    9.1053   20.9073 O   0  0  0  0  0  0  0  0  0  0  0  0
   14.3979    6.0729   18.7784 C   0  0  0  0  0  0  0  0  0  0  0  0
    8.6811    9.5354   16.9998 C   0  0  0  0  0  0  0  0  0  0  0  0
    9.2512    4.2713   13.7653 O   0  0  0  0  0  0  0  0  0  0  0  0
    9.6495    8.6317   16.8332 N   0  0  0  0  0  0  0  0  0  0  0  0
    6.2934    8.6988   23.1988 O   0  0  0  0  0  0  0  0  0  0  0  0
    7.9806    8.6543   20.5437 C   0  0  0  0  0  0  0  0  0  0  0  0
   13.7270    5.7144   19.8610 O   0  0  0  0  0  0  0  0  0  0  0  0
    8.3351    5.5235   15.4478 C   0  0  0  0  0  0  0  0  0  0  0  0
    8.7700    7.8434   21.3915 C   0  0  0  0  0  0  0  0  0  0  0  0
   11.7856    6.8851   19.2401 C   0  0  0  0  0  0  0  0  0  0  0  0
   10.5281    7.4276   19.5649 C   0  0  0  0  0  0  0  0  0  0  0  0
   10.0256    7.2907   20.8484 C   0  0  0  0  0  0  0  0  0  0  0  0
    9.3113    5.3049   14.4911 C   0  0  0  0  0  0  0  0  0  0  0  0
    9.4607    7.5646   16.0139 C   0  0  0  0  0  0  0  0  0  0  0  0
   10.4192    7.3157   15.0955 C   0  0  0  0  0  0  0  0  0  0  0  0
   10.2489    6.4227   23.0218 N   0  0  0  0  0  0  0  0  0  0  0  0
    7.2472    8.0746   23.5050 C   0  0  0  0  0  0  0  0  0  0  0  0
    9.2051    6.9101   23.4604 C   0  0  0  0  0  0  0  0  0  0  0  0
   11.9646    6.0299   21.4251 C   0  0  0  0  0  0  0  0  0  0  0  0
  1  5  1  0
  1 13  1  0
  2 20  2  0
  2 28  1  0
  2 29  1  0
  3 19  4  0
  3 25  4  0
  4 23  4  0
  4 27  1  0
  4 30  4  0
  5 17  1  0
  6  8  1  0
  6 29  1  0
  7 24  4  0
  7 26  4  0
  8 28  1  0
  9 13  2  0
 10 18  1  0
 10 21  4  0
 10 30  4  0
 11 17  2  0
 12 18  1  0
 13 15  1  0
 14 24  1  0
 15 25  1  0
 16 28  2  0
 17 20  1  0
 19 24  4  0
 20 23  1  0
 21 22  4  0
 22 23  4  0
 25 26  4  0
 27 29  2  0
M  END
$$$$

 Created by Python create_sdf_string function

 30 33  0  0  0  0  0  0  0  0999 V2000
    8.3036    9.8571   18.4133 C   0  0  0  0  0  0  0  0  0  0  0  0
    8.3694    7.6612   22.6703 C   0  0  0  0  0  0  0  0  0  0  0  0
    8.4143    6.6863   16.2273 C   0  0  0  0  0  0  0  0  0  0  0  0
   10.7581    6.5674   21.7636 C   0  0  0  0  0  0  0  0  0  0  0  0
    8.4452    8.7960   19.2958 O   0  0  0  0  0  0  0  0  0  0  0  0
    8.7122    6.7842   24.8569 C   0  0  0  0  0  0  0  0  0  0  0  0
   10.3400    6.1726   14.3081 C   0  0  0  0  0  0  0  0  0  0  0  0
    7.4297    7.5873   24.8962 C   0  0  0  0  0  0  0  0  0  0  0  0
    8.1566   10.0536   16.0516 O   0  0  0  0  0  0  0  0  0  0  0  0
   12.4989    6.2074   20.1776 C   0  0  0  0  0  0  0  0  0  0  0  0
    6.9192    9.1053   20.9073 O   0  0  0  0  0  0  0  0  0  0  0  0
   14.3979    6.0729   18.7784 C   0  0  0  0  0  0  0  0  0  0  0  0
    8.6811    9.5354   16.9998 C   0  0  0  0  0  0  0  0  0  0  0  0
    9.2512    4.2713   13.7653 O   0  0  0  0  0  0  0  0  0  0  0  0
    9.6495    8.6317   16.8332 N   0  0  0  0  0  0  0  0  0  0  0  0
    6.2934    8.6988   23.1988 O   0  0  0  0  0  0  0  0  0  0  0  0
    7.9806    8.6543   20.5437 C   0  0  0  0  0  0  0  0  0  0  0  0
   13.7270    5.7144   19.8610 O   0  0  0  0  0  0  0  0  0  0  0  0
    8.3351    5.5235   15.4478 C   0  0  0  0  0  0  0  0  0  0  0  0
    8.7700    7.8434   21.3915 C   0  0  0  0  0  0  0  0  0  0  0  0
   11.7856    6.8851   19.2401 C   0  0  0  0  0  0  0  0  0  0  0  0
   10.5281    7.4276   19.5649 C   0  0  0  0  0  0  0  0  0  0  0  0
   10.0256    7.2907   20.8484 C   0  0  0  0  0  0  0  0  0  0  0  0
    9.3113    5.3049   14.4911 C   0  0  0  0  0  0  0  0  0  0  0  0
    9.4607    7.5646   16.0139 C   0  0  0  0  0  0  0  0  0  0  0  0
   10.4192    7.3157   15.0955 C   0  0  0  0  0  0  0  0  0  0  0  0
   10.2489    6.4227   23.0218 N   0  0  0  0  0  0  0  0  0  0  0  0
    7.2472    8.0746   23.5050 C   0  0  0  0  0  0  0  0  0  0  0  0
    9.2051    6.9101   23.4604 C   0  0  0  0  0  0  0  0  0  0  0  0
   11.9646    6.0299   21.4251 C   0  0  0  0  0  0  0  0  0  0  0  0
  1  5  1  0
  1 13  1  0
  2 20  2  0
  2 28  1  0
  2 29  1  0
  3 19  4  0
  3 25  4  0
  4 23  4  0
  4 27  1  0
  4 30  4  0
  5 17  1  0
  6  8  1  0
  6 29  1  0
  7 24  4  0
  7 26  4  0
  8 28  1  0
  9 13  2  0
 10 18  1  0
 10 21  4  0
 10 30  4  0
 11 17  2  0
 12 18  1  0
 13 15  1  0
 14 24  1  0
 15 25  1  0
 16 28  2  0
 17 20  1  0
 19 24  4  0
 20 23  1  0
 21 22  4  0
 22 23  4  0
 25 26  4  0
 27 29  2  0
M  END
$$$$

 Created by Python create_sdf_string function

 30 33  0  0  0  0  0  0  0  0999 V2000
    8.3036    9.8571   18.4133 C   0  0  0  0  0  0  0  0  0  0  0  0
    8.3694    7.6612   22.6703 C   0  0  0  0  0  0  0  0  0  0  0  0
    8.4143    6.6863   16.2273 C   0  0  0  0  0  0  0  0  0  0  0  0
   10.7581    6.5674   21.7636 C   0  0  0  0  0  0  0  0  0  0  0  0
    8.4452    8.7960   19.2958 O   0  0  0  0  0  0  0  0  0  0  0  0
    8.7122    6.7842   24.8569 C   0  0  0  0  0  0  0  0  0  0  0  0
   10.3400    6.1726   14.3081 C   0  0  0  0  0  0  0  0  0  0  0  0
    7.4297    7.5873   24.8962 C   0  0  0  0  0  0  0  0  0  0  0  0
    8.1566   10.0536   16.0516 O   0  0  0  0  0  0  0  0  0  0  0  0
   12.4989    6.2074   20.1776 C   0  0  0  0  0  0  0  0  0  0  0  0
    6.9192    9.1053   20.9073 O   0  0  0  0  0  0  0  0  0  0  0  0
   14.3979    6.0729   18.7784 C   0  0  0  0  0  0  0  0  0  0  0  0
    8.6811    9.5354   16.9998 C   0  0  0  0  0  0  0  0  0  0  0  0
    9.2512    4.2713   13.7653 O   0  0  0  0  0  0  0  0  0  0  0  0
    9.6495    8.6317   16.8332 N   0  0  0  0  0  0  0  0  0  0  0  0
    6.2934    8.6988   23.1988 O   0  0  0  0  0  0  0  0  0  0  0  0
    7.9806    8.6543   20.5437 C   0  0  0  0  0  0  0  0  0  0  0  0
   13.7270    5.7144   19.8610 O   0  0  0  0  0  0  0  0  0  0  0  0
    8.3351    5.5235   15.4478 C   0  0  0  0  0  0  0  0  0  0  0  0
    8.7700    7.8434   21.3915 C   0  0  0  0  0  0  0  0  0  0  0  0
   11.7856    6.8851   19.2401 C   0  0  0  0  0  0  0  0  0  0  0  0
   10.5281    7.4276   19.5649 C   0  0  0  0  0  0  0  0  0  0  0  0
   10.0256    7.2907   20.8484 C   0  0  0  0  0  0  0  0  0  0  0  0
    9.3113    5.3049   14.4911 C   0  0  0  0  0  0  0  0  0  0  0  0
    9.4607    7.5646   16.0139 C   0  0  0  0  0  0  0  0  0  0  0  0
   10.4192    7.3157   15.0955 C   0  0  0  0  0  0  0  0  0  0  0  0
   10.2489    6.4227   23.0218 N   0  0  0  0  0  0  0  0  0  0  0  0
    7.2472    8.0746   23.5050 C   0  0  0  0  0  0  0  0  0  0  0  0
    9.2051    6.9101   23.4604 C   0  0  0  0  0  0  0  0  0  0  0  0
   11.9646    6.0299   21.4251 C   0  0  0  0  0  0  0  0  0  0  0  0
  1  5  1  0
  1 13  1  0
  2 20  2  0
  2 28  1  0
  2 29  1  0
  3 19  4  0
  3 25  4  0
  4 23  4  0
  4 27  1  0
  4 30  4  0
  5 17  1  0
  6  8  1  0
  6 29  1  0
  7 24  4  0
  7 26  4  0
  8 28  1  0
  9 13  2  0
 10 18  1  0
 10 21  4  0
 10 30  4  0
 11 17  2  0
 12 18  1  0
 13 15  1  0
 14 24  1  0
 15 25  1  0
 16 28  2  0
 17 20  1  0
 19 24  4  0
 20 23  1  0
 21 22  4  0
 22 23  4  0
 25 26  4  0
 27 29  2  0
M  END
$$$$

 Created by Python create_sdf_string function

 30 33  0  0  0  0  0  0  0  0999 V2000
    8.3036    9.8571   18.4133 C   0  0  0  0  0  0  0  0  0  0  0  0
    8.3694    7.6612   22.6703 C   0  0  0  0  0  0  0  0  0  0  0  0
    8.4143    6.6863   16.2273 C   0  0  0  0  0  0  0  0  0  0  0  0
   10.7581    6.5674   21.7636 C   0  0  0  0  0  0  0  0  0  0  0  0
    8.4452    8.7960   19.2958 O   0  0  0  0  0  0  0  0  0  0  0  0
    8.7122    6.7842   24.8569 C   0  0  0  0  0  0  0  0  0  0  0  0
   10.3400    6.1726   14.3081 C   0  0  0  0  0  0  0  0  0  0  0  0
    7.4297    7.5873   24.8962 C   0  0  0  0  0  0  0  0  0  0  0  0
    8.1566   10.0536   16.0516 O   0  0  0  0  0  0  0  0  0  0  0  0
   12.4989    6.2074   20.1776 C   0  0  0  0  0  0  0  0  0  0  0  0
    6.9192    9.1053   20.9073 O   0  0  0  0  0  0  0  0  0  0  0  0
   14.3979    6.0729   18.7784 C   0  0  0  0  0  0  0  0  0  0  0  0
    8.6811    9.5354   16.9998 C   0  0  0  0  0  0  0  0  0  0  0  0
    9.2512    4.2713   13.7653 O   0  0  0  0  0  0  0  0  0  0  0  0
    9.6495    8.6317   16.8332 N   0  0  0  0  0  0  0  0  0  0  0  0
    6.2934    8.6988   23.1988 O   0  0  0  0  0  0  0  0  0  0  0  0
    7.9806    8.6543   20.5437 C   0  0  0  0  0  0  0  0  0  0  0  0
   13.7270    5.7144   19.8610 O   0  0  0  0  0  0  0  0  0  0  0  0
    8.3351    5.5235   15.4478 C   0  0  0  0  0  0  0  0  0  0  0  0
    8.7700    7.8434   21.3915 C   0  0  0  0  0  0  0  0  0  0  0  0
   11.7856    6.8851   19.2401 C   0  0  0  0  0  0  0  0  0  0  0  0
   10.5281    7.4276   19.5649 C   0  0  0  0  0  0  0  0  0  0  0  0
   10.0256    7.2907   20.8484 C   0  0  0  0  0  0  0  0  0  0  0  0
    9.3113    5.3049   14.4911 C   0  0  0  0  0  0  0  0  0  0  0  0
    9.4607    7.5646   16.0139 C   0  0  0  0  0  0  0  0  0  0  0  0
   10.4192    7.3157   15.0955 C   0  0  0  0  0  0  0  0  0  0  0  0
   10.2489    6.4227   23.0218 N   0  0  0  0  0  0  0  0  0  0  0  0
    7.2472    8.0746   23.5050 C   0  0  0  0  0  0  0  0  0  0  0  0
    9.2051    6.9101   23.4604 C   0  0  0  0  0  0  0  0  0  0  0  0
   11.9646    6.0299   21.4251 C   0  0  0  0  0  0  0  0  0  0  0  0
  1  5  1  0
  1 13  1  0
  2 20  2  0
  2 28  1  0
  2 29  1  0
  3 19  4  0
  3 25  4  0
  4 23  4  0
  4 27  1  0
  4 30  4  0
  5 17  1  0
  6  8  1  0
  6 29  1  0
  7 24  4  0
  7 26  4  0
  8 28  1  0
  9 13  2  0
 10 18  1  0
 10 21  4  0
 10 30  4  0
 11 17  2  0
 12 18  1  0
 13 15  1  0
 14 24  1  0
 15 25  1  0
 16 28  2  0
 17 20  1  0
 19 24  4  0
 20 23  1  0
 21 22  4  0
 22 23  4  0
 25 26  4  0
 27 29  2  0
M  END
$$$$

 Created by Python create_sdf_string function

 30 33  0  0  0  0  0  0  0  0999 V2000
    8.3036    9.8571   18.4133 C   0  0  0  0  0  0  0  0  0  0  0  0
    8.3694    7.6612   22.6703 C   0  0  0  0  0  0  0  0  0  0  0  0
    8.4143    6.6863   16.2273 C   0  0  0  0  0  0  0  0  0  0  0  0
   10.7581    6.5674   21.7636 C   0  0  0  0  0  0  0  0  0  0  0  0
    8.4452    8.7960   19.2958 O   0  0  0  0  0  0  0  0  0  0  0  0
    8.7122    6.7842   24.8569 C   0  0  0  0  0  0  0  0  0  0  0  0
   10.3400    6.1726   14.3081 C   0  0  0  0  0  0  0  0  0  0  0  0
    7.4297    7.5873   24.8962 C   0  0  0  0  0  0  0  0  0  0  0  0
    8.1566   10.0536   16.0516 O   0  0  0  0  0  0  0  0  0  0  0  0
   12.4989    6.2074   20.1776 C   0  0  0  0  0  0  0  0  0  0  0  0
    6.9192    9.1053   20.9073 O   0  0  0  0  0  0  0  0  0  0  0  0
   14.3979    6.0729   18.7784 C   0  0  0  0  0  0  0  0  0  0  0  0
    8.6811    9.5354   16.9998 C   0  0  0  0  0  0  0  0  0  0  0  0
    9.2512    4.2713   13.7653 O   0  0  0  0  0  0  0  0  0  0  0  0
    9.6495    8.6317   16.8332 N   0  0  0  0  0  0  0  0  0  0  0  0
    6.2934    8.6988   23.1988 O   0  0  0  0  0  0  0  0  0  0  0  0
    7.9806    8.6543   20.5437 C   0  0  0  0  0  0  0  0  0  0  0  0
   13.7270    5.7144   19.8610 O   0  0  0  0  0  0  0  0  0  0  0  0
    8.3351    5.5235   15.4478 C   0  0  0  0  0  0  0  0  0  0  0  0
    8.7700    7.8434   21.3915 C   0  0  0  0  0  0  0  0  0  0  0  0
   11.7856    6.8851   19.2401 C   0  0  0  0  0  0  0  0  0  0  0  0
   10.5281    7.4276   19.5649 C   0  0  0  0  0  0  0  0  0  0  0  0
   10.0256    7.2907   20.8484 C   0  0  0  0  0  0  0  0  0  0  0  0
    9.3113    5.3049   14.4911 C   0  0  0  0  0  0  0  0  0  0  0  0
    9.4607    7.5646   16.0139 C   0  0  0  0  0  0  0  0  0  0  0  0
   10.4192    7.3157   15.0955 C   0  0  0  0  0  0  0  0  0  0  0  0
   10.2489    6.4227   23.0218 N   0  0  0  0  0  0  0  0  0  0  0  0
    7.2472    8.0746   23.5050 C   0  0  0  0  0  0  0  0  0  0  0  0
    9.2051    6.9101   23.4604 C   0  0  0  0  0  0  0  0  0  0  0  0
   11.9646    6.0299   21.4251 C   0  0  0  0  0  0  0  0  0  0  0  0
  1  5  1  0
  1 13  1  0
  2 20  2  0
  2 28  1  0
  2 29  1  0
  3 19  4  0
  3 25  4  0
  4 23  4  0
  4 27  1  0
  4 30  4  0
  5 17  1  0
  6  8  1  0
  6 29  1  0
  7 24  4  0
  7 26  4  0
  8 28  1  0
  9 13  2  0
 10 18  1  0
 10 21  4  0
 10 30  4  0
 11 17  2  0
 12 18  1  0
 13 15  1  0
 14 24  1  0
 15 25  1  0
 16 28  2  0
 17 20  1  0
 19 24  4  0
 20 23  1  0
 21 22  4  0
 22 23  4  0
 25 26  4  0
 27 29  2  0
M  END
$$$$

 Created by Python create_sdf_string function

 30 33  0  0  0  0  0  0  0  0999 V2000
    8.3036    9.8571   18.4133 C   0  0  0  0  0  0  0  0  0  0  0  0
    8.3694    7.6612   22.6703 C   0  0  0  0  0  0  0  0  0  0  0  0
    8.4143    6.6863   16.2273 C   0  0  0  0  0  0  0  0  0  0  0  0
   10.7581    6.5674   21.7636 C   0  0  0  0  0  0  0  0  0  0  0  0
    8.4452    8.7960   19.2958 O   0  0  0  0  0  0  0  0  0  0  0  0
    8.7122    6.7842   24.8569 C   0  0  0  0  0  0  0  0  0  0  0  0
   10.3400    6.1726   14.3081 C   0  0  0  0  0  0  0  0  0  0  0  0
    7.4297    7.5873   24.8962 C   0  0  0  0  0  0  0  0  0  0  0  0
    8.1566   10.0536   16.0516 O   0  0  0  0  0  0  0  0  0  0  0  0
   12.4989    6.2074   20.1776 C   0  0  0  0  0  0  0  0  0  0  0  0
    6.9192    9.1053   20.9073 O   0  0  0  0  0  0  0  0  0  0  0  0
   14.3979    6.0729   18.7784 C   0  0  0  0  0  0  0  0  0  0  0  0
    8.6811    9.5354   16.9998 C   0  0  0  0  0  0  0  0  0  0  0  0
    9.2512    4.2713   13.7653 O   0  0  0  0  0  0  0  0  0  0  0  0
    9.6495    8.6317   16.8332 N   0  0  0  0  0  0  0  0  0  0  0  0
    6.2934    8.6988   23.1988 O   0  0  0  0  0  0  0  0  0  0  0  0
    7.9806    8.6543   20.5437 C   0  0  0  0  0  0  0  0  0  0  0  0
   13.7270    5.7144   19.8610 O   0  0  0  0  0  0  0  0  0  0  0  0
    8.3351    5.5235   15.4478 C   0  0  0  0  0  0  0  0  0  0  0  0
    8.7700    7.8434   21.3915 C   0  0  0  0  0  0  0  0  0  0  0  0
   11.7856    6.8851   19.2401 C   0  0  0  0  0  0  0  0  0  0  0  0
   10.5281    7.4276   19.5649 C   0  0  0  0  0  0  0  0  0  0  0  0
   10.0256    7.2907   20.8484 C   0  0  0  0  0  0  0  0  0  0  0  0
    9.3113    5.3049   14.4911 C   0  0  0  0  0  0  0  0  0  0  0  0
    9.4607    7.5646   16.0139 C   0  0  0  0  0  0  0  0  0  0  0  0
   10.4192    7.3157   15.0955 C   0  0  0  0  0  0  0  0  0  0  0  0
   10.2489    6.4227   23.0218 N   0  0  0  0  0  0  0  0  0  0  0  0
    7.2472    8.0746   23.5050 C   0  0  0  0  0  0  0  0  0  0  0  0
    9.2051    6.9101   23.4604 C   0  0  0  0  0  0  0  0  0  0  0  0
   11.9646    6.0299   21.4251 C   0  0  0  0  0  0  0  0  0  0  0  0
  1  5  1  0
  1 13  1  0
  2 20  2  0
  2 28  1  0
  2 29  1  0
  3 19  4  0
  3 25  4  0
  4 23  4  0
  4 27  1  0
  4 30  4  0
  5 17  1  0
  6  8  1  0
  6 29  1  0
  7 24  4  0
  7 26  4  0
  8 28  1  0
  9 13  2  0
 10 18  1  0
 10 21  4  0
 10 30  4  0
 11 17  2  0
 12 18  1  0
 13 15  1  0
 14 24  1  0
 15 25  1  0
 16 28  2  0
 17 20  1  0
 19 24  4  0
 20 23  1  0
 21 22  4  0
 22 23  4  0
 25 26  4  0
 27 29  2  0
M  END
$$$$

 Created by Python create_sdf_string function

 30 33  0  0  0  0  0  0  0  0999 V2000
    8.3036    9.8571   18.4133 C   0  0  0  0  0  0  0  0  0  0  0  0
    8.3694    7.6612   22.6703 C   0  0  0  0  0  0  0  0  0  0  0  0
    8.4143    6.6863   16.2273 C   0  0  0  0  0  0  0  0  0  0  0  0
   10.7581    6.5674   21.7636 C   0  0  0  0  0  0  0  0  0  0  0  0
    8.4452    8.7960   19.2958 O   0  0  0  0  0  0  0  0  0  0  0  0
    8.7122    6.7842   24.8569 C   0  0  0  0  0  0  0  0  0  0  0  0
   10.3400    6.1726   14.3081 C   0  0  0  0  0  0  0  0  0  0  0  0
    7.4297    7.5873   24.8962 C   0  0  0  0  0  0  0  0  0  0  0  0
    8.1566   10.0536   16.0516 O   0  0  0  0  0  0  0  0  0  0  0  0
   12.4989    6.2074   20.1776 C   0  0  0  0  0  0  0  0  0  0  0  0
    6.9192    9.1053   20.9073 O   0  0  0  0  0  0  0  0  0  0  0  0
   14.3979    6.0729   18.7784 C   0  0  0  0  0  0  0  0  0  0  0  0
    8.6811    9.5354   16.9998 C   0  0  0  0  0  0  0  0  0  0  0  0
    9.2512    4.2713   13.7653 O   0  0  0  0  0  0  0  0  0  0  0  0
    9.6495    8.6317   16.8332 N   0  0  0  0  0  0  0  0  0  0  0  0
    6.2934    8.6988   23.1988 O   0  0  0  0  0  0  0  0  0  0  0  0
    7.9806    8.6543   20.5437 C   0  0  0  0  0  0  0  0  0  0  0  0
   13.7270    5.7144   19.8610 O   0  0  0  0  0  0  0  0  0  0  0  0
    8.3351    5.5235   15.4478 C   0  0  0  0  0  0  0  0  0  0  0  0
    8.7700    7.8434   21.3915 C   0  0  0  0  0  0  0  0  0  0  0  0
   11.7856    6.8851   19.2401 C   0  0  0  0  0  0  0  0  0  0  0  0
   10.5281    7.4276   19.5649 C   0  0  0  0  0  0  0  0  0  0  0  0
   10.0256    7.2907   20.8484 C   0  0  0  0  0  0  0  0  0  0  0  0
    9.3113    5.3049   14.4911 C   0  0  0  0  0  0  0  0  0  0  0  0
    9.4607    7.5646   16.0139 C   0  0  0  0  0  0  0  0  0  0  0  0
   10.4192    7.3157   15.0955 C   0  0  0  0  0  0  0  0  0  0  0  0
   10.2489    6.4227   23.0218 N   0  0  0  0  0  0  0  0  0  0  0  0
    7.2472    8.0746   23.5050 C   0  0  0  0  0  0  0  0  0  0  0  0
    9.2051    6.9101   23.4604 C   0  0  0  0  0  0  0  0  0  0  0  0
   11.9646    6.0299   21.4251 C   0  0  0  0  0  0  0  0  0  0  0  0
  1  5  1  0
  1 13  1  0
  2 20  2  0
  2 28  1  0
  2 29  1  0
  3 19  4  0
  3 25  4  0
  4 23  4  0
  4 27  1  0
  4 30  4  0
  5 17  1  0
  6  8  1  0
  6 29  1  0
  7 24  4  0
  7 26  4  0
  8 28  1  0
  9 13  2  0
 10 18  1  0
 10 21  4  0
 10 30  4  0
 11 17  2  0
 12 18  1  0
 13 15  1  0
 14 24  1  0
 15 25  1  0
 16 28  2  0
 17 20  1  0
 19 24  4  0
 20 23  1  0
 21 22  4  0
 22 23  4  0
 25 26  4  0
 27 29  2  0
M  END
$$$$

 Created by Python create_sdf_string function

 30 33  0  0  0  0  0  0  0  0999 V2000
    8.3036    9.8571   18.4133 C   0  0  0  0  0  0  0  0  0  0  0  0
    8.3694    7.6612   22.6703 C   0  0  0  0  0  0  0  0  0  0  0  0
    8.4143    6.6863   16.2273 C   0  0  0  0  0  0  0  0  0  0  0  0
   10.7581    6.5674   21.7636 C   0  0  0  0  0  0  0  0  0  0  0  0
    8.4452    8.7960   19.2958 O   0  0  0  0  0  0  0  0  0  0  0  0
    8.7122    6.7842   24.8569 C   0  0  0  0  0  0  0  0  0  0  0  0
   10.3400    6.1726   14.3081 C   0  0  0  0  0  0  0  0  0  0  0  0
    7.4297    7.5873   24.8962 C   0  0  0  0  0  0  0  0  0  0  0  0
    8.1566   10.0536   16.0516 O   0  0  0  0  0  0  0  0  0  0  0  0
   12.4989    6.2074   20.1776 C   0  0  0  0  0  0  0  0  0  0  0  0
    6.9192    9.1053   20.9073 O   0  0  0  0  0  0  0  0  0  0  0  0
   14.3979    6.0729   18.7784 C   0  0  0  0  0  0  0  0  0  0  0  0
    8.6811    9.5354   16.9998 C   0  0  0  0  0  0  0  0  0  0  0  0
    9.2512    4.2713   13.7653 O   0  0  0  0  0  0  0  0  0  0  0  0
    9.6495    8.6317   16.8332 N   0  0  0  0  0  0  0  0  0  0  0  0
    6.2934    8.6988   23.1988 O   0  0  0  0  0  0  0  0  0  0  0  0
    7.9806    8.6543   20.5437 C   0  0  0  0  0  0  0  0  0  0  0  0
   13.7270    5.7144   19.8610 O   0  0  0  0  0  0  0  0  0  0  0  0
    8.3351    5.5235   15.4478 C   0  0  0  0  0  0  0  0  0  0  0  0
    8.7700    7.8434   21.3915 C   0  0  0  0  0  0  0  0  0  0  0  0
   11.7856    6.8851   19.2401 C   0  0  0  0  0  0  0  0  0  0  0  0
   10.5281    7.4276   19.5649 C   0  0  0  0  0  0  0  0  0  0  0  0
   10.0256    7.2907   20.8484 C   0  0  0  0  0  0  0  0  0  0  0  0
    9.3113    5.3049   14.4911 C   0  0  0  0  0  0  0  0  0  0  0  0
    9.4607    7.5646   16.0139 C   0  0  0  0  0  0  0  0  0  0  0  0
   10.4192    7.3157   15.0955 C   0  0  0  0  0  0  0  0  0  0  0  0
   10.2489    6.4227   23.0218 N   0  0  0  0  0  0  0  0  0  0  0  0
    7.2472    8.0746   23.5050 C   0  0  0  0  0  0  0  0  0  0  0  0
    9.2051    6.9101   23.4604 C   0  0  0  0  0  0  0  0  0  0  0  0
   11.9646    6.0299   21.4251 C   0  0  0  0  0  0  0  0  0  0  0  0
  1  5  1  0
  1 13  1  0
  2 20  2  0
  2 28  1  0
  2 29  1  0
  3 19  4  0
  3 25  4  0
  4 23  4  0
  4 27  1  0
  4 30  4  0
  5 17  1  0
  6  8  1  0
  6 29  1  0
  7 24  4  0
  7 26  4  0
  8 28  1  0
  9 13  2  0
 10 18  1  0
 10 21  4  0
 10 30  4  0
 11 17  2  0
 12 18  1  0
 13 15  1  0
 14 24  1  0
 15 25  1  0
 16 28  2  0
 17 20  1  0
 19 24  4  0
 20 23  1  0
 21 22  4  0
 22 23  4  0
 25 26  4  0
 27 29  2  0
M  END
$$$$

 Created by Python create_sdf_string function

 30 33  0  0  0  0  0  0  0  0999 V2000
    8.3036    9.8571   18.4133 C   0  0  0  0  0  0  0  0  0  0  0  0
    8.3694    7.6612   22.6703 C   0  0  0  0  0  0  0  0  0  0  0  0
    8.4143    6.6863   16.2273 C   0  0  0  0  0  0  0  0  0  0  0  0
   10.7581    6.5674   21.7636 C   0  0  0  0  0  0  0  0  0  0  0  0
    8.4452    8.7960   19.2958 O   0  0  0  0  0  0  0  0  0  0  0  0
    8.7122    6.7842   24.8569 C   0  0  0  0  0  0  0  0  0  0  0  0
   10.3400    6.1726   14.3081 C   0  0  0  0  0  0  0  0  0  0  0  0
    7.4297    7.5873   24.8962 C   0  0  0  0  0  0  0  0  0  0  0  0
    8.1566   10.0536   16.0516 O   0  0  0  0  0  0  0  0  0  0  0  0
   12.4989    6.2074   20.1776 C   0  0  0  0  0  0  0  0  0  0  0  0
    6.9192    9.1053   20.9073 O   0  0  0  0  0  0  0  0  0  0  0  0
   14.3979    6.0729   18.7784 C   0  0  0  0  0  0  0  0  0  0  0  0
    8.6811    9.5354   16.9998 C   0  0  0  0  0  0  0  0  0  0  0  0
    9.2512    4.2713   13.7653 O   0  0  0  0  0  0  0  0  0  0  0  0
    9.6495    8.6317   16.8332 N   0  0  0  0  0  0  0  0  0  0  0  0
    6.2934    8.6988   23.1988 O   0  0  0  0  0  0  0  0  0  0  0  0
    7.9806    8.6543   20.5437 C   0  0  0  0  0  0  0  0  0  0  0  0
   13.7270    5.7144   19.8610 O   0  0  0  0  0  0  0  0  0  0  0  0
    8.3351    5.5235   15.4478 C   0  0  0  0  0  0  0  0  0  0  0  0
    8.7700    7.8434   21.3915 C   0  0  0  0  0  0  0  0  0  0  0  0
   11.7856    6.8851   19.2401 C   0  0  0  0  0  0  0  0  0  0  0  0
   10.5281    7.4276   19.5649 C   0  0  0  0  0  0  0  0  0  0  0  0
   10.0256    7.2907   20.8484 C   0  0  0  0  0  0  0  0  0  0  0  0
    9.3113    5.3049   14.4911 C   0  0  0  0  0  0  0  0  0  0  0  0
    9.4607    7.5646   16.0139 C   0  0  0  0  0  0  0  0  0  0  0  0
   10.4192    7.3157   15.0955 C   0  0  0  0  0  0  0  0  0  0  0  0
   10.2489    6.4227   23.0218 N   0  0  0  0  0  0  0  0  0  0  0  0
    7.2472    8.0746   23.5050 C   0  0  0  0  0  0  0  0  0  0  0  0
    9.2051    6.9101   23.4604 C   0  0  0  0  0  0  0  0  0  0  0  0
   11.9646    6.0299   21.4251 C   0  0  0  0  0  0  0  0  0  0  0  0
  1  5  1  0
  1 13  1  0
  2 20  2  0
  2 28  1  0
  2 29  1  0
  3 19  4  0
  3 25  4  0
  4 23  4  0
  4 27  1  0
  4 30  4  0
  5 17  1  0
  6  8  1  0
  6 29  1  0
  7 24  4  0
  7 26  4  0
  8 28  1  0
  9 13  2  0
 10 18  1  0
 10 21  4  0
 10 30  4  0
 11 17  2  0
 12 18  1  0
 13 15  1  0
 14 24  1  0
 15 25  1  0
 16 28  2  0
 17 20  1  0
 19 24  4  0
 20 23  1  0
 21 22  4  0
 22 23  4  0
 25 26  4  0
 27 29  2  0
M  END
$$$$

 Created by Python create_sdf_string function

 30 33  0  0  0  0  0  0  0  0999 V2000
    8.3036    9.8571   18.4133 C   0  0  0  0  0  0  0  0  0  0  0  0
    8.3694    7.6612   22.6703 C   0  0  0  0  0  0  0  0  0  0  0  0
    8.4143    6.6863   16.2273 C   0  0  0  0  0  0  0  0  0  0  0  0
   10.7581    6.5674   21.7636 C   0  0  0  0  0  0  0  0  0  0  0  0
    8.4452    8.7960   19.2958 O   0  0  0  0  0  0  0  0  0  0  0  0
    8.7122    6.7842   24.8569 C   0  0  0  0  0  0  0  0  0  0  0  0
   10.3400    6.1726   14.3081 C   0  0  0  0  0  0  0  0  0  0  0  0
    7.4297    7.5873   24.8962 C   0  0  0  0  0  0  0  0  0  0  0  0
    8.1566   10.0536   16.0516 O   0  0  0  0  0  0  0  0  0  0  0  0
   12.4989    6.2074   20.1776 C   0  0  0  0  0  0  0  0  0  0  0  0
    6.9192    9.1053   20.9073 O   0  0  0  0  0  0  0  0  0  0  0  0
   14.3979    6.0729   18.7784 C   0  0  0  0  0  0  0  0  0  0  0  0
    8.6811    9.5354   16.9998 C   0  0  0  0  0  0  0  0  0  0  0  0
    9.2512    4.2713   13.7653 O   0  0  0  0  0  0  0  0  0  0  0  0
    9.6495    8.6317   16.8332 N   0  0  0  0  0  0  0  0  0  0  0  0
    6.2934    8.6988   23.1988 O   0  0  0  0  0  0  0  0  0  0  0  0
    7.9806    8.6543   20.5437 C   0  0  0  0  0  0  0  0  0  0  0  0
   13.7270    5.7144   19.8610 O   0  0  0  0  0  0  0  0  0  0  0  0
    8.3351    5.5235   15.4478 C   0  0  0  0  0  0  0  0  0  0  0  0
    8.7700    7.8434   21.3915 C   0  0  0  0  0  0  0  0  0  0  0  0
   11.7856    6.8851   19.2401 C   0  0  0  0  0  0  0  0  0  0  0  0
   10.5281    7.4276   19.5649 C   0  0  0  0  0  0  0  0  0  0  0  0
   10.0256    7.2907   20.8484 C   0  0  0  0  0  0  0  0  0  0  0  0
    9.3113    5.3049   14.4911 C   0  0  0  0  0  0  0  0  0  0  0  0
    9.4607    7.5646   16.0139 C   0  0  0  0  0  0  0  0  0  0  0  0
   10.4192    7.3157   15.0955 C   0  0  0  0  0  0  0  0  0  0  0  0
   10.2489    6.4227   23.0218 N   0  0  0  0  0  0  0  0  0  0  0  0
    7.2472    8.0746   23.5050 C   0  0  0  0  0  0  0  0  0  0  0  0
    9.2051    6.9101   23.4604 C   0  0  0  0  0  0  0  0  0  0  0  0
   11.9646    6.0299   21.4251 C   0  0  0  0  0  0  0  0  0  0  0  0
  1  5  1  0
  1 13  1  0
  2 20  2  0
  2 28  1  0
  2 29  1  0
  3 19  4  0
  3 25  4  0
  4 23  4  0
  4 27  1  0
  4 30  4  0
  5 17  1  0
  6  8  1  0
  6 29  1  0
  7 24  4  0
  7 26  4  0
  8 28  1  0
  9 13  2  0
 10 18  1  0
 10 21  4  0
 10 30  4  0
 11 17  2  0
 12 18  1  0
 13 15  1  0
 14 24  1  0
 15 25  1  0
 16 28  2  0
 17 20  1  0
 19 24  4  0
 20 23  1  0
 21 22  4  0
 22 23  4  0
 25 26  4  0
 27 29  2  0
M  END
$$$$

 Created by Python create_sdf_string function

 30 33  0  0  0  0  0  0  0  0999 V2000
    8.3036    9.8571   18.4133 C   0  0  0  0  0  0  0  0  0  0  0  0
    8.3694    7.6612   22.6703 C   0  0  0  0  0  0  0  0  0  0  0  0
    8.4143    6.6863   16.2273 C   0  0  0  0  0  0  0  0  0  0  0  0
   10.7581    6.5674   21.7636 C   0  0  0  0  0  0  0  0  0  0  0  0
    8.4452    8.7960   19.2958 O   0  0  0  0  0  0  0  0  0  0  0  0
    8.7122    6.7842   24.8569 C   0  0  0  0  0  0  0  0  0  0  0  0
   10.3400    6.1726   14.3081 C   0  0  0  0  0  0  0  0  0  0  0  0
    7.4297    7.5873   24.8962 C   0  0  0  0  0  0  0  0  0  0  0  0
    8.1566   10.0536   16.0516 O   0  0  0  0  0  0  0  0  0  0  0  0
   12.4989    6.2074   20.1776 C   0  0  0  0  0  0  0  0  0  0  0  0
    6.9192    9.1053   20.9073 O   0  0  0  0  0  0  0  0  0  0  0  0
   14.3979    6.0729   18.7784 C   0  0  0  0  0  0  0  0  0  0  0  0
    8.6811    9.5354   16.9998 C   0  0  0  0  0  0  0  0  0  0  0  0
    9.2512    4.2713   13.7653 O   0  0  0  0  0  0  0  0  0  0  0  0
    9.6495    8.6317   16.8332 N   0  0  0  0  0  0  0  0  0  0  0  0
    6.2934    8.6988   23.1988 O   0  0  0  0  0  0  0  0  0  0  0  0
    7.9806    8.6543   20.5437 C   0  0  0  0  0  0  0  0  0  0  0  0
   13.7270    5.7144   19.8610 O   0  0  0  0  0  0  0  0  0  0  0  0
    8.3351    5.5235   15.4478 C   0  0  0  0  0  0  0  0  0  0  0  0
    8.7700    7.8434   21.3915 C   0  0  0  0  0  0  0  0  0  0  0  0
   11.7856    6.8851   19.2401 C   0  0  0  0  0  0  0  0  0  0  0  0
   10.5281    7.4276   19.5649 C   0  0  0  0  0  0  0  0  0  0  0  0
   10.0256    7.2907   20.8484 C   0  0  0  0  0  0  0  0  0  0  0  0
    9.3113    5.3049   14.4911 C   0  0  0  0  0  0  0  0  0  0  0  0
    9.4607    7.5646   16.0139 C   0  0  0  0  0  0  0  0  0  0  0  0
   10.4192    7.3157   15.0955 C   0  0  0  0  0  0  0  0  0  0  0  0
   10.2489    6.4227   23.0218 N   0  0  0  0  0  0  0  0  0  0  0  0
    7.2472    8.0746   23.5050 C   0  0  0  0  0  0  0  0  0  0  0  0
    9.2051    6.9101   23.4604 C   0  0  0  0  0  0  0  0  0  0  0  0
   11.9646    6.0299   21.4251 C   0  0  0  0  0  0  0  0  0  0  0  0
  1  5  1  0
  1 13  1  0
  2 20  2  0
  2 28  1  0
  2 29  1  0
  3 19  4  0
  3 25  4  0
  4 23  4  0
  4 27  1  0
  4 30  4  0
  5 17  1  0
  6  8  1  0
  6 29  1  0
  7 24  4  0
  7 26  4  0
  8 28  1  0
  9 13  2  0
 10 18  1  0
 10 21  4  0
 10 30  4  0
 11 17  2  0
 12 18  1  0
 13 15  1  0
 14 24  1  0
 15 25  1  0
 16 28  2  0
 17 20  1  0
 19 24  4  0
 20 23  1  0
 21 22  4  0
 22 23  4  0
 25 26  4  0
 27 29  2  0
M  END
$$$$

 Created by Python create_sdf_string function

 30 33  0  0  0  0  0  0  0  0999 V2000
    8.3036    9.8571   18.4133 C   0  0  0  0  0  0  0  0  0  0  0  0
    8.3694    7.6612   22.6703 C   0  0  0  0  0  0  0  0  0  0  0  0
    8.4143    6.6863   16.2273 C   0  0  0  0  0  0  0  0  0  0  0  0
   10.7581    6.5674   21.7636 C   0  0  0  0  0  0  0  0  0  0  0  0
    8.4452    8.7960   19.2958 O   0  0  0  0  0  0  0  0  0  0  0  0
    8.7122    6.7842   24.8569 C   0  0  0  0  0  0  0  0  0  0  0  0
   10.3400    6.1726   14.3081 C   0  0  0  0  0  0  0  0  0  0  0  0
    7.4297    7.5873   24.8962 C   0  0  0  0  0  0  0  0  0  0  0  0
    8.1566   10.0536   16.0516 O   0  0  0  0  0  0  0  0  0  0  0  0
   12.4989    6.2074   20.1776 C   0  0  0  0  0  0  0  0  0  0  0  0
    6.9192    9.1053   20.9073 O   0  0  0  0  0  0  0  0  0  0  0  0
   14.3979    6.0729   18.7784 C   0  0  0  0  0  0  0  0  0  0  0  0
    8.6811    9.5354   16.9998 C   0  0  0  0  0  0  0  0  0  0  0  0
    9.2512    4.2713   13.7653 O   0  0  0  0  0  0  0  0  0  0  0  0
    9.6495    8.6317   16.8332 N   0  0  0  0  0  0  0  0  0  0  0  0
    6.2934    8.6988   23.1988 O   0  0  0  0  0  0  0  0  0  0  0  0
    7.9806    8.6543   20.5437 C   0  0  0  0  0  0  0  0  0  0  0  0
   13.7270    5.7144   19.8610 O   0  0  0  0  0  0  0  0  0  0  0  0
    8.3351    5.5235   15.4478 C   0  0  0  0  0  0  0  0  0  0  0  0
    8.7700    7.8434   21.3915 C   0  0  0  0  0  0  0  0  0  0  0  0
   11.7856    6.8851   19.2401 C   0  0  0  0  0  0  0  0  0  0  0  0
   10.5281    7.4276   19.5649 C   0  0  0  0  0  0  0  0  0  0  0  0
   10.0256    7.2907   20.8484 C   0  0  0  0  0  0  0  0  0  0  0  0
    9.3113    5.3049   14.4911 C   0  0  0  0  0  0  0  0  0  0  0  0
    9.4607    7.5646   16.0139 C   0  0  0  0  0  0  0  0  0  0  0  0
   10.4192    7.3157   15.0955 C   0  0  0  0  0  0  0  0  0  0  0  0
   10.2489    6.4227   23.0218 N   0  0  0  0  0  0  0  0  0  0  0  0
    7.2472    8.0746   23.5050 C   0  0  0  0  0  0  0  0  0  0  0  0
    9.2051    6.9101   23.4604 C   0  0  0  0  0  0  0  0  0  0  0  0
   11.9646    6.0299   21.4251 C   0  0  0  0  0  0  0  0  0  0  0  0
  1  5  1  0
  1 13  1  0
  2 20  2  0
  2 28  1  0
  2 29  1  0
  3 19  4  0
  3 25  4  0
  4 23  4  0
  4 27  1  0
  4 30  4  0
  5 17  1  0
  6  8  1  0
  6 29  1  0
  7 24  4  0
  7 26  4  0
  8 28  1  0
  9 13  2  0
 10 18  1  0
 10 21  4  0
 10 30  4  0
 11 17  2  0
 12 18  1  0
 13 15  1  0
 14 24  1  0
 15 25  1  0
 16 28  2  0
 17 20  1  0
 19 24  4  0
 20 23  1  0
 21 22  4  0
 22 23  4  0
 25 26  4  0
 27 29  2  0
M  END
$$$$

 Created by Python create_sdf_string function

 30 33  0  0  0  0  0  0  0  0999 V2000
    8.3036    9.8571   18.4133 C   0  0  0  0  0  0  0  0  0  0  0  0
    8.3694    7.6612   22.6703 C   0  0  0  0  0  0  0  0  0  0  0  0
    8.4143    6.6863   16.2273 C   0  0  0  0  0  0  0  0  0  0  0  0
   10.7581    6.5674   21.7636 C   0  0  0  0  0  0  0  0  0  0  0  0
    8.4452    8.7960   19.2958 O   0  0  0  0  0  0  0  0  0  0  0  0
    8.7122    6.7842   24.8569 C   0  0  0  0  0  0  0  0  0  0  0  0
   10.3400    6.1726   14.3081 C   0  0  0  0  0  0  0  0  0  0  0  0
    7.4297    7.5873   24.8962 C   0  0  0  0  0  0  0  0  0  0  0  0
    8.1566   10.0536   16.0516 O   0  0  0  0  0  0  0  0  0  0  0  0
   12.4989    6.2074   20.1776 C   0  0  0  0  0  0  0  0  0  0  0  0
    6.9192    9.1053   20.9073 O   0  0  0  0  0  0  0  0  0  0  0  0
   14.3979    6.0729   18.7784 C   0  0  0  0  0  0  0  0  0  0  0  0
    8.6811    9.5354   16.9998 C   0  0  0  0  0  0  0  0  0  0  0  0
    9.2512    4.2713   13.7653 O   0  0  0  0  0  0  0  0  0  0  0  0
    9.6495    8.6317   16.8332 N   0  0  0  0  0  0  0  0  0  0  0  0
    6.2934    8.6988   23.1988 O   0  0  0  0  0  0  0  0  0  0  0  0
    7.9806    8.6543   20.5437 C   0  0  0  0  0  0  0  0  0  0  0  0
   13.7270    5.7144   19.8610 O   0  0  0  0  0  0  0  0  0  0  0  0
    8.3351    5.5235   15.4478 C   0  0  0  0  0  0  0  0  0  0  0  0
    8.7700    7.8434   21.3915 C   0  0  0  0  0  0  0  0  0  0  0  0
   11.7856    6.8851   19.2401 C   0  0  0  0  0  0  0  0  0  0  0  0
   10.5281    7.4276   19.5649 C   0  0  0  0  0  0  0  0  0  0  0  0
   10.0256    7.2907   20.8484 C   0  0  0  0  0  0  0  0  0  0  0  0
    9.3113    5.3049   14.4911 C   0  0  0  0  0  0  0  0  0  0  0  0
    9.4607    7.5646   16.0139 C   0  0  0  0  0  0  0  0  0  0  0  0
   10.4192    7.3157   15.0955 C   0  0  0  0  0  0  0  0  0  0  0  0
   10.2489    6.4227   23.0218 N   0  0  0  0  0  0  0  0  0  0  0  0
    7.2472    8.0746   23.5050 C   0  0  0  0  0  0  0  0  0  0  0  0
    9.2051    6.9101   23.4604 C   0  0  0  0  0  0  0  0  0  0  0  0
   11.9646    6.0299   21.4251 C   0  0  0  0  0  0  0  0  0  0  0  0
  1  5  1  0
  1 13  1  0
  2 20  2  0
  2 28  1  0
  2 29  1  0
  3 19  4  0
  3 25  4  0
  4 23  4  0
  4 27  1  0
  4 30  4  0
  5 17  1  0
  6  8  1  0
  6 29  1  0
  7 24  4  0
  7 26  4  0
  8 28  1  0
  9 13  2  0
 10 18  1  0
 10 21  4  0
 10 30  4  0
 11 17  2  0
 12 18  1  0
 13 15  1  0
 14 24  1  0
 15 25  1  0
 16 28  2  0
 17 20  1  0
 19 24  4  0
 20 23  1  0
 21 22  4  0
 22 23  4  0
 25 26  4  0
 27 29  2  0
M  END
$$$$

 Created by Python create_sdf_string function

 30 33  0  0  0  0  0  0  0  0999 V2000
    8.3036    9.8571   18.4133 C   0  0  0  0  0  0  0  0  0  0  0  0
    8.3694    7.6612   22.6703 C   0  0  0  0  0  0  0  0  0  0  0  0
    8.4143    6.6863   16.2273 C   0  0  0  0  0  0  0  0  0  0  0  0
   10.7581    6.5674   21.7636 C   0  0  0  0  0  0  0  0  0  0  0  0
    8.4452    8.7960   19.2958 O   0  0  0  0  0  0  0  0  0  0  0  0
    8.7122    6.7842   24.8569 C   0  0  0  0  0  0  0  0  0  0  0  0
   10.3400    6.1726   14.3081 C   0  0  0  0  0  0  0  0  0  0  0  0
    7.4297    7.5873   24.8962 C   0  0  0  0  0  0  0  0  0  0  0  0
    8.1566   10.0536   16.0516 O   0  0  0  0  0  0  0  0  0  0  0  0
   12.4989    6.2074   20.1776 C   0  0  0  0  0  0  0  0  0  0  0  0
    6.9192    9.1053   20.9073 O   0  0  0  0  0  0  0  0  0  0  0  0
   14.3979    6.0729   18.7784 C   0  0  0  0  0  0  0  0  0  0  0  0
    8.6811    9.5354   16.9998 C   0  0  0  0  0  0  0  0  0  0  0  0
    9.2512    4.2713   13.7653 O   0  0  0  0  0  0  0  0  0  0  0  0
    9.6495    8.6317   16.8332 N   0  0  0  0  0  0  0  0  0  0  0  0
    6.2934    8.6988   23.1988 O   0  0  0  0  0  0  0  0  0  0  0  0
    7.9806    8.6543   20.5437 C   0  0  0  0  0  0  0  0  0  0  0  0
   13.7270    5.7144   19.8610 O   0  0  0  0  0  0  0  0  0  0  0  0
    8.3351    5.5235   15.4478 C   0  0  0  0  0  0  0  0  0  0  0  0
    8.7700    7.8434   21.3915 C   0  0  0  0  0  0  0  0  0  0  0  0
   11.7856    6.8851   19.2401 C   0  0  0  0  0  0  0  0  0  0  0  0
   10.5281    7.4276   19.5649 C   0  0  0  0  0  0  0  0  0  0  0  0
   10.0256    7.2907   20.8484 C   0  0  0  0  0  0  0  0  0  0  0  0
    9.3113    5.3049   14.4911 C   0  0  0  0  0  0  0  0  0  0  0  0
    9.4607    7.5646   16.0139 C   0  0  0  0  0  0  0  0  0  0  0  0
   10.4192    7.3157   15.0955 C   0  0  0  0  0  0  0  0  0  0  0  0
   10.2489    6.4227   23.0218 N   0  0  0  0  0  0  0  0  0  0  0  0
    7.2472    8.0746   23.5050 C   0  0  0  0  0  0  0  0  0  0  0  0
    9.2051    6.9101   23.4604 C   0  0  0  0  0  0  0  0  0  0  0  0
   11.9646    6.0299   21.4251 C   0  0  0  0  0  0  0  0  0  0  0  0
  1  5  1  0
  1 13  1  0
  2 20  2  0
  2 28  1  0
  2 29  1  0
  3 19  4  0
  3 25  4  0
  4 23  4  0
  4 27  1  0
  4 30  4  0
  5 17  1  0
  6  8  1  0
  6 29  1  0
  7 24  4  0
  7 26  4  0
  8 28  1  0
  9 13  2  0
 10 18  1  0
 10 21  4  0
 10 30  4  0
 11 17  2  0
 12 18  1  0
 13 15  1  0
 14 24  1  0
 15 25  1  0
 16 28  2  0
 17 20  1  0
 19 24  4  0
 20 23  1  0
 21 22  4  0
 22 23  4  0
 25 26  4  0
 27 29  2  0
M  END
$$$$

 Created by Python create_sdf_string function

 30 33  0  0  0  0  0  0  0  0999 V2000
    8.3036    9.8571   18.4133 C   0  0  0  0  0  0  0  0  0  0  0  0
    8.3694    7.6612   22.6703 C   0  0  0  0  0  0  0  0  0  0  0  0
    8.4143    6.6863   16.2273 C   0  0  0  0  0  0  0  0  0  0  0  0
   10.7581    6.5674   21.7636 C   0  0  0  0  0  0  0  0  0  0  0  0
    8.4452    8.7960   19.2958 O   0  0  0  0  0  0  0  0  0  0  0  0
    8.7122    6.7842   24.8569 C   0  0  0  0  0  0  0  0  0  0  0  0
   10.3400    6.1726   14.3081 C   0  0  0  0  0  0  0  0  0  0  0  0
    7.4297    7.5873   24.8962 C   0  0  0  0  0  0  0  0  0  0  0  0
    8.1566   10.0536   16.0516 O   0  0  0  0  0  0  0  0  0  0  0  0
   12.4989    6.2074   20.1776 C   0  0  0  0  0  0  0  0  0  0  0  0
    6.9192    9.1053   20.9073 O   0  0  0  0  0  0  0  0  0  0  0  0
   14.3979    6.0729   18.7784 C   0  0  0  0  0  0  0  0  0  0  0  0
    8.6811    9.5354   16.9998 C   0  0  0  0  0  0  0  0  0  0  0  0
    9.2512    4.2713   13.7653 O   0  0  0  0  0  0  0  0  0  0  0  0
    9.6495    8.6317   16.8332 N   0  0  0  0  0  0  0  0  0  0  0  0
    6.2934    8.6988   23.1988 O   0  0  0  0  0  0  0  0  0  0  0  0
    7.9806    8.6543   20.5437 C   0  0  0  0  0  0  0  0  0  0  0  0
   13.7270    5.7144   19.8610 O   0  0  0  0  0  0  0  0  0  0  0  0
    8.3351    5.5235   15.4478 C   0  0  0  0  0  0  0  0  0  0  0  0
    8.7700    7.8434   21.3915 C   0  0  0  0  0  0  0  0  0  0  0  0
   11.7856    6.8851   19.2401 C   0  0  0  0  0  0  0  0  0  0  0  0
   10.5281    7.4276   19.5649 C   0  0  0  0  0  0  0  0  0  0  0  0
   10.0256    7.2907   20.8484 C   0  0  0  0  0  0  0  0  0  0  0  0
    9.3113    5.3049   14.4911 C   0  0  0  0  0  0  0  0  0  0  0  0
    9.4607    7.5646   16.0139 C   0  0  0  0  0  0  0  0  0  0  0  0
   10.4192    7.3157   15.0955 C   0  0  0  0  0  0  0  0  0  0  0  0
   10.2489    6.4227   23.0218 N   0  0  0  0  0  0  0  0  0  0  0  0
    7.2472    8.0746   23.5050 C   0  0  0  0  0  0  0  0  0  0  0  0
    9.2051    6.9101   23.4604 C   0  0  0  0  0  0  0  0  0  0  0  0
   11.9646    6.0299   21.4251 C   0  0  0  0  0  0  0  0  0  0  0  0
  1  5  1  0
  1 13  1  0
  2 20  2  0
  2 28  1  0
  2 29  1  0
  3 19  4  0
  3 25  4  0
  4 23  4  0
  4 27  1  0
  4 30  4  0
  5 17  1  0
  6  8  1  0
  6 29  1  0
  7 24  4  0
  7 26  4  0
  8 28  1  0
  9 13  2  0
 10 18  1  0
 10 21  4  0
 10 30  4  0
 11 17  2  0
 12 18  1  0
 13 15  1  0
 14 24  1  0
 15 25  1  0
 16 28  2  0
 17 20  1  0
 19 24  4  0
 20 23  1  0
 21 22  4  0
 22 23  4  0
 25 26  4  0
 27 29  2  0
M  END
$$$$

 Created by Python create_sdf_string function

 30 33  0  0  0  0  0  0  0  0999 V2000
    8.3036    9.8571   18.4133 C   0  0  0  0  0  0  0  0  0  0  0  0
    8.3694    7.6612   22.6703 C   0  0  0  0  0  0  0  0  0  0  0  0
    8.4143    6.6863   16.2273 C   0  0  0  0  0  0  0  0  0  0  0  0
   10.7581    6.5674   21.7636 C   0  0  0  0  0  0  0  0  0  0  0  0
    8.4452    8.7960   19.2958 O   0  0  0  0  0  0  0  0  0  0  0  0
    8.7122    6.7842   24.8569 C   0  0  0  0  0  0  0  0  0  0  0  0
   10.3400    6.1726   14.3081 C   0  0  0  0  0  0  0  0  0  0  0  0
    7.4297    7.5873   24.8962 C   0  0  0  0  0  0  0  0  0  0  0  0
    8.1566   10.0536   16.0516 O   0  0  0  0  0  0  0  0  0  0  0  0
   12.4989    6.2074   20.1776 C   0  0  0  0  0  0  0  0  0  0  0  0
    6.9192    9.1053   20.9073 O   0  0  0  0  0  0  0  0  0  0  0  0
   14.3979    6.0729   18.7784 C   0  0  0  0  0  0  0  0  0  0  0  0
    8.6811    9.5354   16.9998 C   0  0  0  0  0  0  0  0  0  0  0  0
    9.2512    4.2713   13.7653 O   0  0  0  0  0  0  0  0  0  0  0  0
    9.6495    8.6317   16.8332 N   0  0  0  0  0  0  0  0  0  0  0  0
    6.2934    8.6988   23.1988 O   0  0  0  0  0  0  0  0  0  0  0  0
    7.9806    8.6543   20.5437 C   0  0  0  0  0  0  0  0  0  0  0  0
   13.7270    5.7144   19.8610 O   0  0  0  0  0  0  0  0  0  0  0  0
    8.3351    5.5235   15.4478 C   0  0  0  0  0  0  0  0  0  0  0  0
    8.7700    7.8434   21.3915 C   0  0  0  0  0  0  0  0  0  0  0  0
   11.7856    6.8851   19.2401 C   0  0  0  0  0  0  0  0  0  0  0  0
   10.5281    7.4276   19.5649 C   0  0  0  0  0  0  0  0  0  0  0  0
   10.0256    7.2907   20.8484 C   0  0  0  0  0  0  0  0  0  0  0  0
    9.3113    5.3049   14.4911 C   0  0  0  0  0  0  0  0  0  0  0  0
    9.4607    7.5646   16.0139 C   0  0  0  0  0  0  0  0  0  0  0  0
   10.4192    7.3157   15.0955 C   0  0  0  0  0  0  0  0  0  0  0  0
   10.2489    6.4227   23.0218 N   0  0  0  0  0  0  0  0  0  0  0  0
    7.2472    8.0746   23.5050 C   0  0  0  0  0  0  0  0  0  0  0  0
    9.2051    6.9101   23.4604 C   0  0  0  0  0  0  0  0  0  0  0  0
   11.9646    6.0299   21.4251 C   0  0  0  0  0  0  0  0  0  0  0  0
  1  5  1  0
  1 13  1  0
  2 20  2  0
  2 28  1  0
  2 29  1  0
  3 19  4  0
  3 25  4  0
  4 23  4  0
  4 27  1  0
  4 30  4  0
  5 17  1  0
  6  8  1  0
  6 29  1  0
  7 24  4  0
  7 26  4  0
  8 28  1  0
  9 13  2  0
 10 18  1  0
 10 21  4  0
 10 30  4  0
 11 17  2  0
 12 18  1  0
 13 15  1  0
 14 24  1  0
 15 25  1  0
 16 28  2  0
 17 20  1  0
 19 24  4  0
 20 23  1  0
 21 22  4  0
 22 23  4  0
 25 26  4  0
 27 29  2  0
M  END
$$$$

 Created by Python create_sdf_string function

 30 33  0  0  0  0  0  0  0  0999 V2000
    8.3036    9.8571   18.4133 C   0  0  0  0  0  0  0  0  0  0  0  0
    8.3694    7.6612   22.6703 C   0  0  0  0  0  0  0  0  0  0  0  0
    8.4143    6.6863   16.2273 C   0  0  0  0  0  0  0  0  0  0  0  0
   10.7581    6.5674   21.7636 C   0  0  0  0  0  0  0  0  0  0  0  0
    8.4452    8.7960   19.2958 O   0  0  0  0  0  0  0  0  0  0  0  0
    8.7122    6.7842   24.8569 C   0  0  0  0  0  0  0  0  0  0  0  0
   10.3400    6.1726   14.3081 C   0  0  0  0  0  0  0  0  0  0  0  0
    7.4297    7.5873   24.8962 C   0  0  0  0  0  0  0  0  0  0  0  0
    8.1566   10.0536   16.0516 O   0  0  0  0  0  0  0  0  0  0  0  0
   12.4989    6.2074   20.1776 C   0  0  0  0  0  0  0  0  0  0  0  0
    6.9192    9.1053   20.9073 O   0  0  0  0  0  0  0  0  0  0  0  0
   14.3979    6.0729   18.7784 C   0  0  0  0  0  0  0  0  0  0  0  0
    8.6811    9.5354   16.9998 C   0  0  0  0  0  0  0  0  0  0  0  0
    9.2512    4.2713   13.7653 O   0  0  0  0  0  0  0  0  0  0  0  0
    9.6495    8.6317   16.8332 N   0  0  0  0  0  0  0  0  0  0  0  0
    6.2934    8.6988   23.1988 O   0  0  0  0  0  0  0  0  0  0  0  0
    7.9806    8.6543   20.5437 C   0  0  0  0  0  0  0  0  0  0  0  0
   13.7270    5.7144   19.8610 O   0  0  0  0  0  0  0  0  0  0  0  0
    8.3351    5.5235   15.4478 C   0  0  0  0  0  0  0  0  0  0  0  0
    8.7700    7.8434   21.3915 C   0  0  0  0  0  0  0  0  0  0  0  0
   11.7856    6.8851   19.2401 C   0  0  0  0  0  0  0  0  0  0  0  0
   10.5281    7.4276   19.5649 C   0  0  0  0  0  0  0  0  0  0  0  0
   10.0256    7.2907   20.8484 C   0  0  0  0  0  0  0  0  0  0  0  0
    9.3113    5.3049   14.4911 C   0  0  0  0  0  0  0  0  0  0  0  0
    9.4607    7.5646   16.0139 C   0  0  0  0  0  0  0  0  0  0  0  0
   10.4192    7.3157   15.0955 C   0  0  0  0  0  0  0  0  0  0  0  0
   10.2489    6.4227   23.0218 N   0  0  0  0  0  0  0  0  0  0  0  0
    7.2472    8.0746   23.5050 C   0  0  0  0  0  0  0  0  0  0  0  0
    9.2051    6.9101   23.4604 C   0  0  0  0  0  0  0  0  0  0  0  0
   11.9646    6.0299   21.4251 C   0  0  0  0  0  0  0  0  0  0  0  0
  1  5  1  0
  1 13  1  0
  2 20  2  0
  2 28  1  0
  2 29  1  0
  3 19  4  0
  3 25  4  0
  4 23  4  0
  4 27  1  0
  4 30  4  0
  5 17  1  0
  6  8  1  0
  6 29  1  0
  7 24  4  0
  7 26  4  0
  8 28  1  0
  9 13  2  0
 10 18  1  0
 10 21  4  0
 10 30  4  0
 11 17  2  0
 12 18  1  0
 13 15  1  0
 14 24  1  0
 15 25  1  0
 16 28  2  0
 17 20  1  0
 19 24  4  0
 20 23  1  0
 21 22  4  0
 22 23  4  0
 25 26  4  0
 27 29  2  0
M  END
$$$$

 Created by Python create_sdf_string function

 30 33  0  0  0  0  0  0  0  0999 V2000
    8.3036    9.8571   18.4133 C   0  0  0  0  0  0  0  0  0  0  0  0
    8.3694    7.6612   22.6703 C   0  0  0  0  0  0  0  0  0  0  0  0
    8.4143    6.6863   16.2273 C   0  0  0  0  0  0  0  0  0  0  0  0
   10.7581    6.5674   21.7636 C   0  0  0  0  0  0  0  0  0  0  0  0
    8.4452    8.7960   19.2958 O   0  0  0  0  0  0  0  0  0  0  0  0
    8.7122    6.7842   24.8569 C   0  0  0  0  0  0  0  0  0  0  0  0
   10.3400    6.1726   14.3081 C   0  0  0  0  0  0  0  0  0  0  0  0
    7.4297    7.5873   24.8962 C   0  0  0  0  0  0  0  0  0  0  0  0
    8.1566   10.0536   16.0516 O   0  0  0  0  0  0  0  0  0  0  0  0
   12.4989    6.2074   20.1776 C   0  0  0  0  0  0  0  0  0  0  0  0
    6.9192    9.1053   20.9073 O   0  0  0  0  0  0  0  0  0  0  0  0
   14.3979    6.0729   18.7784 C   0  0  0  0  0  0  0  0  0  0  0  0
    8.6811    9.5354   16.9998 C   0  0  0  0  0  0  0  0  0  0  0  0
    9.2512    4.2713   13.7653 O   0  0  0  0  0  0  0  0  0  0  0  0
    9.6495    8.6317   16.8332 N   0  0  0  0  0  0  0  0  0  0  0  0
    6.2934    8.6988   23.1988 O   0  0  0  0  0  0  0  0  0  0  0  0
    7.9806    8.6543   20.5437 C   0  0  0  0  0  0  0  0  0  0  0  0
   13.7270    5.7144   19.8610 O   0  0  0  0  0  0  0  0  0  0  0  0
    8.3351    5.5235   15.4478 C   0  0  0  0  0  0  0  0  0  0  0  0
    8.7700    7.8434   21.3915 C   0  0  0  0  0  0  0  0  0  0  0  0
   11.7856    6.8851   19.2401 C   0  0  0  0  0  0  0  0  0  0  0  0
   10.5281    7.4276   19.5649 C   0  0  0  0  0  0  0  0  0  0  0  0
   10.0256    7.2907   20.8484 C   0  0  0  0  0  0  0  0  0  0  0  0
    9.3113    5.3049   14.4911 C   0  0  0  0  0  0  0  0  0  0  0  0
    9.4607    7.5646   16.0139 C   0  0  0  0  0  0  0  0  0  0  0  0
   10.4192    7.3157   15.0955 C   0  0  0  0  0  0  0  0  0  0  0  0
   10.2489    6.4227   23.0218 N   0  0  0  0  0  0  0  0  0  0  0  0
    7.2472    8.0746   23.5050 C   0  0  0  0  0  0  0  0  0  0  0  0
    9.2051    6.9101   23.4604 C   0  0  0  0  0  0  0  0  0  0  0  0
   11.9646    6.0299   21.4251 C   0  0  0  0  0  0  0  0  0  0  0  0
  1  5  1  0
  1 13  1  0
  2 20  2  0
  2 28  1  0
  2 29  1  0
  3 19  4  0
  3 25  4  0
  4 23  4  0
  4 27  1  0
  4 30  4  0
  5 17  1  0
  6  8  1  0
  6 29  1  0
  7 24  4  0
  7 26  4  0
  8 28  1  0
  9 13  2  0
 10 18  1  0
 10 21  4  0
 10 30  4  0
 11 17  2  0
 12 18  1  0
 13 15  1  0
 14 24  1  0
 15 25  1  0
 16 28  2  0
 17 20  1  0
 19 24  4  0
 20 23  1  0
 21 22  4  0
 22 23  4  0
 25 26  4  0
 27 29  2  0
M  END
$$$$

 Created by Python create_sdf_string function

 30 33  0  0  0  0  0  0  0  0999 V2000
    8.3036    9.8571   18.4133 C   0  0  0  0  0  0  0  0  0  0  0  0
    8.3694    7.6612   22.6703 C   0  0  0  0  0  0  0  0  0  0  0  0
    8.4143    6.6863   16.2273 C   0  0  0  0  0  0  0  0  0  0  0  0
   10.7581    6.5674   21.7636 C   0  0  0  0  0  0  0  0  0  0  0  0
    8.4452    8.7960   19.2958 O   0  0  0  0  0  0  0  0  0  0  0  0
    8.7122    6.7842   24.8569 C   0  0  0  0  0  0  0  0  0  0  0  0
   10.3400    6.1726   14.3081 C   0  0  0  0  0  0  0  0  0  0  0  0
    7.4297    7.5873   24.8962 C   0  0  0  0  0  0  0  0  0  0  0  0
    8.1566   10.0536   16.0516 O   0  0  0  0  0  0  0  0  0  0  0  0
   12.4989    6.2074   20.1776 C   0  0  0  0  0  0  0  0  0  0  0  0
    6.9192    9.1053   20.9073 O   0  0  0  0  0  0  0  0  0  0  0  0
   14.3979    6.0729   18.7784 C   0  0  0  0  0  0  0  0  0  0  0  0
    8.6811    9.5354   16.9998 C   0  0  0  0  0  0  0  0  0  0  0  0
    9.2512    4.2713   13.7653 O   0  0  0  0  0  0  0  0  0  0  0  0
    9.6495    8.6317   16.8332 N   0  0  0  0  0  0  0  0  0  0  0  0
    6.2934    8.6988   23.1988 O   0  0  0  0  0  0  0  0  0  0  0  0
    7.9806    8.6543   20.5437 C   0  0  0  0  0  0  0  0  0  0  0  0
   13.7270    5.7144   19.8610 O   0  0  0  0  0  0  0  0  0  0  0  0
    8.3351    5.5235   15.4478 C   0  0  0  0  0  0  0  0  0  0  0  0
    8.7700    7.8434   21.3915 C   0  0  0  0  0  0  0  0  0  0  0  0
   11.7856    6.8851   19.2401 C   0  0  0  0  0  0  0  0  0  0  0  0
   10.5281    7.4276   19.5649 C   0  0  0  0  0  0  0  0  0  0  0  0
   10.0256    7.2907   20.8484 C   0  0  0  0  0  0  0  0  0  0  0  0
    9.3113    5.3049   14.4911 C   0  0  0  0  0  0  0  0  0  0  0  0
    9.4607    7.5646   16.0139 C   0  0  0  0  0  0  0  0  0  0  0  0
   10.4192    7.3157   15.0955 C   0  0  0  0  0  0  0  0  0  0  0  0
   10.2489    6.4227   23.0218 N   0  0  0  0  0  0  0  0  0  0  0  0
    7.2472    8.0746   23.5050 C   0  0  0  0  0  0  0  0  0  0  0  0
    9.2051    6.9101   23.4604 C   0  0  0  0  0  0  0  0  0  0  0  0
   11.9646    6.0299   21.4251 C   0  0  0  0  0  0  0  0  0  0  0  0
  1  5  1  0
  1 13  1  0
  2 20  2  0
  2 28  1  0
  2 29  1  0
  3 19  4  0
  3 25  4  0
  4 23  4  0
  4 27  1  0
  4 30  4  0
  5 17  1  0
  6  8  1  0
  6 29  1  0
  7 24  4  0
  7 26  4  0
  8 28  1  0
  9 13  2  0
 10 18  1  0
 10 21  4  0
 10 30  4  0
 11 17  2  0
 12 18  1  0
 13 15  1  0
 14 24  1  0
 15 25  1  0
 16 28  2  0
 17 20  1  0
 19 24  4  0
 20 23  1  0
 21 22  4  0
 22 23  4  0
 25 26  4  0
 27 29  2  0
M  END
$$$$

 Created by Python create_sdf_string function

 30 33  0  0  0  0  0  0  0  0999 V2000
    8.3036    9.8571   18.4133 C   0  0  0  0  0  0  0  0  0  0  0  0
    8.3694    7.6612   22.6703 C   0  0  0  0  0  0  0  0  0  0  0  0
    8.4143    6.6863   16.2273 C   0  0  0  0  0  0  0  0  0  0  0  0
   10.7581    6.5674   21.7636 C   0  0  0  0  0  0  0  0  0  0  0  0
    8.4452    8.7960   19.2958 O   0  0  0  0  0  0  0  0  0  0  0  0
    8.7122    6.7842   24.8569 C   0  0  0  0  0  0  0  0  0  0  0  0
   10.3400    6.1726   14.3081 C   0  0  0  0  0  0  0  0  0  0  0  0
    7.4297    7.5873   24.8962 C   0  0  0  0  0  0  0  0  0  0  0  0
    8.1566   10.0536   16.0516 O   0  0  0  0  0  0  0  0  0  0  0  0
   12.4989    6.2074   20.1776 C   0  0  0  0  0  0  0  0  0  0  0  0
    6.9192    9.1053   20.9073 O   0  0  0  0  0  0  0  0  0  0  0  0
   14.3979    6.0729   18.7784 C   0  0  0  0  0  0  0  0  0  0  0  0
    8.6811    9.5354   16.9998 C   0  0  0  0  0  0  0  0  0  0  0  0
    9.2512    4.2713   13.7653 O   0  0  0  0  0  0  0  0  0  0  0  0
    9.6495    8.6317   16.8332 N   0  0  0  0  0  0  0  0  0  0  0  0
    6.2934    8.6988   23.1988 O   0  0  0  0  0  0  0  0  0  0  0  0
    7.9806    8.6543   20.5437 C   0  0  0  0  0  0  0  0  0  0  0  0
   13.7270    5.7144   19.8610 O   0  0  0  0  0  0  0  0  0  0  0  0
    8.3351    5.5235   15.4478 C   0  0  0  0  0  0  0  0  0  0  0  0
    8.7700    7.8434   21.3915 C   0  0  0  0  0  0  0  0  0  0  0  0
   11.7856    6.8851   19.2401 C   0  0  0  0  0  0  0  0  0  0  0  0
   10.5281    7.4276   19.5649 C   0  0  0  0  0  0  0  0  0  0  0  0
   10.0256    7.2907   20.8484 C   0  0  0  0  0  0  0  0  0  0  0  0
    9.3113    5.3049   14.4911 C   0  0  0  0  0  0  0  0  0  0  0  0
    9.4607    7.5646   16.0139 C   0  0  0  0  0  0  0  0  0  0  0  0
   10.4192    7.3157   15.0955 C   0  0  0  0  0  0  0  0  0  0  0  0
   10.2489    6.4227   23.0218 N   0  0  0  0  0  0  0  0  0  0  0  0
    7.2472    8.0746   23.5050 C   0  0  0  0  0  0  0  0  0  0  0  0
    9.2051    6.9101   23.4604 C   0  0  0  0  0  0  0  0  0  0  0  0
   11.9646    6.0299   21.4251 C   0  0  0  0  0  0  0  0  0  0  0  0
  1  5  1  0
  1 13  1  0
  2 20  2  0
  2 28  1  0
  2 29  1  0
  3 19  4  0
  3 25  4  0
  4 23  4  0
  4 27  1  0
  4 30  4  0
  5 17  1  0
  6  8  1  0
  6 29  1  0
  7 24  4  0
  7 26  4  0
  8 28  1  0
  9 13  2  0
 10 18  1  0
 10 21  4  0
 10 30  4  0
 11 17  2  0
 12 18  1  0
 13 15  1  0
 14 24  1  0
 15 25  1  0
 16 28  2  0
 17 20  1  0
 19 24  4  0
 20 23  1  0
 21 22  4  0
 22 23  4  0
 25 26  4  0
 27 29  2  0
M  END
$$$$

 Created by Python create_sdf_string function

 30 33  0  0  0  0  0  0  0  0999 V2000
    8.3036    9.8571   18.4133 C   0  0  0  0  0  0  0  0  0  0  0  0
    8.3694    7.6612   22.6703 C   0  0  0  0  0  0  0  0  0  0  0  0
    8.4143    6.6863   16.2273 C   0  0  0  0  0  0  0  0  0  0  0  0
   10.7581    6.5674   21.7636 C   0  0  0  0  0  0  0  0  0  0  0  0
    8.4452    8.7960   19.2958 O   0  0  0  0  0  0  0  0  0  0  0  0
    8.7122    6.7842   24.8569 C   0  0  0  0  0  0  0  0  0  0  0  0
   10.3400    6.1726   14.3081 C   0  0  0  0  0  0  0  0  0  0  0  0
    7.4297    7.5873   24.8962 C   0  0  0  0  0  0  0  0  0  0  0  0
    8.1566   10.0536   16.0516 O   0  0  0  0  0  0  0  0  0  0  0  0
   12.4989    6.2074   20.1776 C   0  0  0  0  0  0  0  0  0  0  0  0
    6.9192    9.1053   20.9073 O   0  0  0  0  0  0  0  0  0  0  0  0
   14.3979    6.0729   18.7784 C   0  0  0  0  0  0  0  0  0  0  0  0
    8.6811    9.5354   16.9998 C   0  0  0  0  0  0  0  0  0  0  0  0
    9.2512    4.2713   13.7653 O   0  0  0  0  0  0  0  0  0  0  0  0
    9.6495    8.6317   16.8332 N   0  0  0  0  0  0  0  0  0  0  0  0
    6.2934    8.6988   23.1988 O   0  0  0  0  0  0  0  0  0  0  0  0
    7.9806    8.6543   20.5437 C   0  0  0  0  0  0  0  0  0  0  0  0
   13.7270    5.7144   19.8610 O   0  0  0  0  0  0  0  0  0  0  0  0
    8.3351    5.5235   15.4478 C   0  0  0  0  0  0  0  0  0  0  0  0
    8.7700    7.8434   21.3915 C   0  0  0  0  0  0  0  0  0  0  0  0
   11.7856    6.8851   19.2401 C   0  0  0  0  0  0  0  0  0  0  0  0
   10.5281    7.4276   19.5649 C   0  0  0  0  0  0  0  0  0  0  0  0
   10.0256    7.2907   20.8484 C   0  0  0  0  0  0  0  0  0  0  0  0
    9.3113    5.3049   14.4911 C   0  0  0  0  0  0  0  0  0  0  0  0
    9.4607    7.5646   16.0139 C   0  0  0  0  0  0  0  0  0  0  0  0
   10.4192    7.3157   15.0955 C   0  0  0  0  0  0  0  0  0  0  0  0
   10.2489    6.4227   23.0218 N   0  0  0  0  0  0  0  0  0  0  0  0
    7.2472    8.0746   23.5050 C   0  0  0  0  0  0  0  0  0  0  0  0
    9.2051    6.9101   23.4604 C   0  0  0  0  0  0  0  0  0  0  0  0
   11.9646    6.0299   21.4251 C   0  0  0  0  0  0  0  0  0  0  0  0
  1  5  1  0
  1 13  1  0
  2 20  2  0
  2 28  1  0
  2 29  1  0
  3 19  4  0
  3 25  4  0
  4 23  4  0
  4 27  1  0
  4 30  4  0
  5 17  1  0
  6  8  1  0
  6 29  1  0
  7 24  4  0
  7 26  4  0
  8 28  1  0
  9 13  2  0
 10 18  1  0
 10 21  4  0
 10 30  4  0
 11 17  2  0
 12 18  1  0
 13 15  1  0
 14 24  1  0
 15 25  1  0
 16 28  2  0
 17 20  1  0
 19 24  4  0
 20 23  1  0
 21 22  4  0
 22 23  4  0
 25 26  4  0
 27 29  2  0
M  END
$$$$

 Created by Python create_sdf_string function

 30 33  0  0  0  0  0  0  0  0999 V2000
    8.3036    9.8571   18.4133 C   0  0  0  0  0  0  0  0  0  0  0  0
    8.3694    7.6612   22.6703 C   0  0  0  0  0  0  0  0  0  0  0  0
    8.4143    6.6863   16.2273 C   0  0  0  0  0  0  0  0  0  0  0  0
   10.7581    6.5674   21.7636 C   0  0  0  0  0  0  0  0  0  0  0  0
    8.4452    8.7960   19.2958 O   0  0  0  0  0  0  0  0  0  0  0  0
    8.7122    6.7842   24.8569 C   0  0  0  0  0  0  0  0  0  0  0  0
   10.3400    6.1726   14.3081 C   0  0  0  0  0  0  0  0  0  0  0  0
    7.4297    7.5873   24.8962 C   0  0  0  0  0  0  0  0  0  0  0  0
    8.1566   10.0536   16.0516 O   0  0  0  0  0  0  0  0  0  0  0  0
   12.4989    6.2074   20.1776 C   0  0  0  0  0  0  0  0  0  0  0  0
    6.9192    9.1053   20.9073 O   0  0  0  0  0  0  0  0  0  0  0  0
   14.3979    6.0729   18.7784 C   0  0  0  0  0  0  0  0  0  0  0  0
    8.6811    9.5354   16.9998 C   0  0  0  0  0  0  0  0  0  0  0  0
    9.2512    4.2713   13.7653 O   0  0  0  0  0  0  0  0  0  0  0  0
    9.6495    8.6317   16.8332 N   0  0  0  0  0  0  0  0  0  0  0  0
    6.2934    8.6988   23.1988 O   0  0  0  0  0  0  0  0  0  0  0  0
    7.9806    8.6543   20.5437 C   0  0  0  0  0  0  0  0  0  0  0  0
   13.7270    5.7144   19.8610 O   0  0  0  0  0  0  0  0  0  0  0  0
    8.3351    5.5235   15.4478 C   0  0  0  0  0  0  0  0  0  0  0  0
    8.7700    7.8434   21.3915 C   0  0  0  0  0  0  0  0  0  0  0  0
   11.7856    6.8851   19.2401 C   0  0  0  0  0  0  0  0  0  0  0  0
   10.5281    7.4276   19.5649 C   0  0  0  0  0  0  0  0  0  0  0  0
   10.0256    7.2907   20.8484 C   0  0  0  0  0  0  0  0  0  0  0  0
    9.3113    5.3049   14.4911 C   0  0  0  0  0  0  0  0  0  0  0  0
    9.4607    7.5646   16.0139 C   0  0  0  0  0  0  0  0  0  0  0  0
   10.4192    7.3157   15.0955 C   0  0  0  0  0  0  0  0  0  0  0  0
   10.2489    6.4227   23.0218 N   0  0  0  0  0  0  0  0  0  0  0  0
    7.2472    8.0746   23.5050 C   0  0  0  0  0  0  0  0  0  0  0  0
    9.2051    6.9101   23.4604 C   0  0  0  0  0  0  0  0  0  0  0  0
   11.9646    6.0299   21.4251 C   0  0  0  0  0  0  0  0  0  0  0  0
  1  5  1  0
  1 13  1  0
  2 20  2  0
  2 28  1  0
  2 29  1  0
  3 19  4  0
  3 25  4  0
  4 23  4  0
  4 27  1  0
  4 30  4  0
  5 17  1  0
  6  8  1  0
  6 29  1  0
  7 24  4  0
  7 26  4  0
  8 28  1  0
  9 13  2  0
 10 18  1  0
 10 21  4  0
 10 30  4  0
 11 17  2  0
 12 18  1  0
 13 15  1  0
 14 24  1  0
 15 25  1  0
 16 28  2  0
 17 20  1  0
 19 24  4  0
 20 23  1  0
 21 22  4  0
 22 23  4  0
 25 26  4  0
 27 29  2  0
M  END
$$$$

 Created by Python create_sdf_string function

 30 33  0  0  0  0  0  0  0  0999 V2000
    8.3036    9.8571   18.4133 C   0  0  0  0  0  0  0  0  0  0  0  0
    8.3694    7.6612   22.6703 C   0  0  0  0  0  0  0  0  0  0  0  0
    8.4143    6.6863   16.2273 C   0  0  0  0  0  0  0  0  0  0  0  0
   10.7581    6.5674   21.7636 C   0  0  0  0  0  0  0  0  0  0  0  0
    8.4452    8.7960   19.2958 O   0  0  0  0  0  0  0  0  0  0  0  0
    8.7122    6.7842   24.8569 C   0  0  0  0  0  0  0  0  0  0  0  0
   10.3400    6.1726   14.3081 C   0  0  0  0  0  0  0  0  0  0  0  0
    7.4297    7.5873   24.8962 C   0  0  0  0  0  0  0  0  0  0  0  0
    8.1566   10.0536   16.0516 O   0  0  0  0  0  0  0  0  0  0  0  0
   12.4989    6.2074   20.1776 C   0  0  0  0  0  0  0  0  0  0  0  0
    6.9192    9.1053   20.9073 O   0  0  0  0  0  0  0  0  0  0  0  0
   14.3979    6.0729   18.7784 C   0  0  0  0  0  0  0  0  0  0  0  0
    8.6811    9.5354   16.9998 C   0  0  0  0  0  0  0  0  0  0  0  0
    9.2512    4.2713   13.7653 O   0  0  0  0  0  0  0  0  0  0  0  0
    9.6495    8.6317   16.8332 N   0  0  0  0  0  0  0  0  0  0  0  0
    6.2934    8.6988   23.1988 O   0  0  0  0  0  0  0  0  0  0  0  0
    7.9806    8.6543   20.5437 C   0  0  0  0  0  0  0  0  0  0  0  0
   13.7270    5.7144   19.8610 O   0  0  0  0  0  0  0  0  0  0  0  0
    8.3351    5.5235   15.4478 C   0  0  0  0  0  0  0  0  0  0  0  0
    8.7700    7.8434   21.3915 C   0  0  0  0  0  0  0  0  0  0  0  0
   11.7856    6.8851   19.2401 C   0  0  0  0  0  0  0  0  0  0  0  0
   10.5281    7.4276   19.5649 C   0  0  0  0  0  0  0  0  0  0  0  0
   10.0256    7.2907   20.8484 C   0  0  0  0  0  0  0  0  0  0  0  0
    9.3113    5.3049   14.4911 C   0  0  0  0  0  0  0  0  0  0  0  0
    9.4607    7.5646   16.0139 C   0  0  0  0  0  0  0  0  0  0  0  0
   10.4192    7.3157   15.0955 C   0  0  0  0  0  0  0  0  0  0  0  0
   10.2489    6.4227   23.0218 N   0  0  0  0  0  0  0  0  0  0  0  0
    7.2472    8.0746   23.5050 C   0  0  0  0  0  0  0  0  0  0  0  0
    9.2051    6.9101   23.4604 C   0  0  0  0  0  0  0  0  0  0  0  0
   11.9646    6.0299   21.4251 C   0  0  0  0  0  0  0  0  0  0  0  0
  1  5  1  0
  1 13  1  0
  2 20  2  0
  2 28  1  0
  2 29  1  0
  3 19  4  0
  3 25  4  0
  4 23  4  0
  4 27  1  0
  4 30  4  0
  5 17  1  0
  6  8  1  0
  6 29  1  0
  7 24  4  0
  7 26  4  0
  8 28  1  0
  9 13  2  0
 10 18  1  0
 10 21  4  0
 10 30  4  0
 11 17  2  0
 12 18  1  0
 13 15  1  0
 14 24  1  0
 15 25  1  0
 16 28  2  0
 17 20  1  0
 19 24  4  0
 20 23  1  0
 21 22  4  0
 22 23  4  0
 25 26  4  0
 27 29  2  0
M  END
$$$$

 Created by Python create_sdf_string function

 30 33  0  0  0  0  0  0  0  0999 V2000
    8.3036    9.8571   18.4133 C   0  0  0  0  0  0  0  0  0  0  0  0
    8.3694    7.6612   22.6703 C   0  0  0  0  0  0  0  0  0  0  0  0
    8.4143    6.6863   16.2273 C   0  0  0  0  0  0  0  0  0  0  0  0
   10.7581    6.5674   21.7636 C   0  0  0  0  0  0  0  0  0  0  0  0
    8.4452    8.7960   19.2958 O   0  0  0  0  0  0  0  0  0  0  0  0
    8.7122    6.7842   24.8569 C   0  0  0  0  0  0  0  0  0  0  0  0
   10.3400    6.1726   14.3081 C   0  0  0  0  0  0  0  0  0  0  0  0
    7.4297    7.5873   24.8962 C   0  0  0  0  0  0  0  0  0  0  0  0
    8.1566   10.0536   16.0516 O   0  0  0  0  0  0  0  0  0  0  0  0
   12.4989    6.2074   20.1776 C   0  0  0  0  0  0  0  0  0  0  0  0
    6.9192    9.1053   20.9073 O   0  0  0  0  0  0  0  0  0  0  0  0
   14.3979    6.0729   18.7784 C   0  0  0  0  0  0  0  0  0  0  0  0
    8.6811    9.5354   16.9998 C   0  0  0  0  0  0  0  0  0  0  0  0
    9.2512    4.2713   13.7653 O   0  0  0  0  0  0  0  0  0  0  0  0
    9.6495    8.6317   16.8332 N   0  0  0  0  0  0  0  0  0  0  0  0
    6.2934    8.6988   23.1988 O   0  0  0  0  0  0  0  0  0  0  0  0
    7.9806    8.6543   20.5437 C   0  0  0  0  0  0  0  0  0  0  0  0
   13.7270    5.7144   19.8610 O   0  0  0  0  0  0  0  0  0  0  0  0
    8.3351    5.5235   15.4478 C   0  0  0  0  0  0  0  0  0  0  0  0
    8.7700    7.8434   21.3915 C   0  0  0  0  0  0  0  0  0  0  0  0
   11.7856    6.8851   19.2401 C   0  0  0  0  0  0  0  0  0  0  0  0
   10.5281    7.4276   19.5649 C   0  0  0  0  0  0  0  0  0  0  0  0
   10.0256    7.2907   20.8484 C   0  0  0  0  0  0  0  0  0  0  0  0
    9.3113    5.3049   14.4911 C   0  0  0  0  0  0  0  0  0  0  0  0
    9.4607    7.5646   16.0139 C   0  0  0  0  0  0  0  0  0  0  0  0
   10.4192    7.3157   15.0955 C   0  0  0  0  0  0  0  0  0  0  0  0
   10.2489    6.4227   23.0218 N   0  0  0  0  0  0  0  0  0  0  0  0
    7.2472    8.0746   23.5050 C   0  0  0  0  0  0  0  0  0  0  0  0
    9.2051    6.9101   23.4604 C   0  0  0  0  0  0  0  0  0  0  0  0
   11.9646    6.0299   21.4251 C   0  0  0  0  0  0  0  0  0  0  0  0
  1  5  1  0
  1 13  1  0
  2 20  2  0
  2 28  1  0
  2 29  1  0
  3 19  4  0
  3 25  4  0
  4 23  4  0
  4 27  1  0
  4 30  4  0
  5 17  1  0
  6  8  1  0
  6 29  1  0
  7 24  4  0
  7 26  4  0
  8 28  1  0
  9 13  2  0
 10 18  1  0
 10 21  4  0
 10 30  4  0
 11 17  2  0
 12 18  1  0
 13 15  1  0
 14 24  1  0
 15 25  1  0
 16 28  2  0
 17 20  1  0
 19 24  4  0
 20 23  1  0
 21 22  4  0
 22 23  4  0
 25 26  4  0
 27 29  2  0
M  END
$$$$

 Created by Python create_sdf_string function

 30 33  0  0  0  0  0  0  0  0999 V2000
    8.3036    9.8571   18.4133 C   0  0  0  0  0  0  0  0  0  0  0  0
    8.3694    7.6612   22.6703 C   0  0  0  0  0  0  0  0  0  0  0  0
    8.4143    6.6863   16.2273 C   0  0  0  0  0  0  0  0  0  0  0  0
   10.7581    6.5674   21.7636 C   0  0  0  0  0  0  0  0  0  0  0  0
    8.4452    8.7960   19.2958 O   0  0  0  0  0  0  0  0  0  0  0  0
    8.7122    6.7842   24.8569 C   0  0  0  0  0  0  0  0  0  0  0  0
   10.3400    6.1726   14.3081 C   0  0  0  0  0  0  0  0  0  0  0  0
    7.4297    7.5873   24.8962 C   0  0  0  0  0  0  0  0  0  0  0  0
    8.1566   10.0536   16.0516 O   0  0  0  0  0  0  0  0  0  0  0  0
   12.4989    6.2074   20.1776 C   0  0  0  0  0  0  0  0  0  0  0  0
    6.9192    9.1053   20.9073 O   0  0  0  0  0  0  0  0  0  0  0  0
   14.3979    6.0729   18.7784 C   0  0  0  0  0  0  0  0  0  0  0  0
    8.6811    9.5354   16.9998 C   0  0  0  0  0  0  0  0  0  0  0  0
    9.2512    4.2713   13.7653 O   0  0  0  0  0  0  0  0  0  0  0  0
    9.6495    8.6317   16.8332 N   0  0  0  0  0  0  0  0  0  0  0  0
    6.2934    8.6988   23.1988 O   0  0  0  0  0  0  0  0  0  0  0  0
    7.9806    8.6543   20.5437 C   0  0  0  0  0  0  0  0  0  0  0  0
   13.7270    5.7144   19.8610 O   0  0  0  0  0  0  0  0  0  0  0  0
    8.3351    5.5235   15.4478 C   0  0  0  0  0  0  0  0  0  0  0  0
    8.7700    7.8434   21.3915 C   0  0  0  0  0  0  0  0  0  0  0  0
   11.7856    6.8851   19.2401 C   0  0  0  0  0  0  0  0  0  0  0  0
   10.5281    7.4276   19.5649 C   0  0  0  0  0  0  0  0  0  0  0  0
   10.0256    7.2907   20.8484 C   0  0  0  0  0  0  0  0  0  0  0  0
    9.3113    5.3049   14.4911 C   0  0  0  0  0  0  0  0  0  0  0  0
    9.4607    7.5646   16.0139 C   0  0  0  0  0  0  0  0  0  0  0  0
   10.4192    7.3157   15.0955 C   0  0  0  0  0  0  0  0  0  0  0  0
   10.2489    6.4227   23.0218 N   0  0  0  0  0  0  0  0  0  0  0  0
    7.2472    8.0746   23.5050 C   0  0  0  0  0  0  0  0  0  0  0  0
    9.2051    6.9101   23.4604 C   0  0  0  0  0  0  0  0  0  0  0  0
   11.9646    6.0299   21.4251 C   0  0  0  0  0  0  0  0  0  0  0  0
  1  5  1  0
  1 13  1  0
  2 20  2  0
  2 28  1  0
  2 29  1  0
  3 19  4  0
  3 25  4  0
  4 23  4  0
  4 27  1  0
  4 30  4  0
  5 17  1  0
  6  8  1  0
  6 29  1  0
  7 24  4  0
  7 26  4  0
  8 28  1  0
  9 13  2  0
 10 18  1  0
 10 21  4  0
 10 30  4  0
 11 17  2  0
 12 18  1  0
 13 15  1  0
 14 24  1  0
 15 25  1  0
 16 28  2  0
 17 20  1  0
 19 24  4  0
 20 23  1  0
 21 22  4  0
 22 23  4  0
 25 26  4  0
 27 29  2  0
M  END
$$$$

 Created by Python create_sdf_string function

 30 33  0  0  0  0  0  0  0  0999 V2000
    8.3036    9.8571   18.4133 C   0  0  0  0  0  0  0  0  0  0  0  0
    8.3694    7.6612   22.6703 C   0  0  0  0  0  0  0  0  0  0  0  0
    8.4143    6.6863   16.2273 C   0  0  0  0  0  0  0  0  0  0  0  0
   10.7581    6.5674   21.7636 C   0  0  0  0  0  0  0  0  0  0  0  0
    8.4452    8.7960   19.2958 O   0  0  0  0  0  0  0  0  0  0  0  0
    8.7122    6.7842   24.8569 C   0  0  0  0  0  0  0  0  0  0  0  0
   10.3400    6.1726   14.3081 C   0  0  0  0  0  0  0  0  0  0  0  0
    7.4297    7.5873   24.8962 C   0  0  0  0  0  0  0  0  0  0  0  0
    8.1566   10.0536   16.0516 O   0  0  0  0  0  0  0  0  0  0  0  0
   12.4989    6.2074   20.1776 C   0  0  0  0  0  0  0  0  0  0  0  0
    6.9192    9.1053   20.9073 O   0  0  0  0  0  0  0  0  0  0  0  0
   14.3979    6.0729   18.7784 C   0  0  0  0  0  0  0  0  0  0  0  0
    8.6811    9.5354   16.9998 C   0  0  0  0  0  0  0  0  0  0  0  0
    9.2512    4.2713   13.7653 O   0  0  0  0  0  0  0  0  0  0  0  0
    9.6495    8.6317   16.8332 N   0  0  0  0  0  0  0  0  0  0  0  0
    6.2934    8.6988   23.1988 O   0  0  0  0  0  0  0  0  0  0  0  0
    7.9806    8.6543   20.5437 C   0  0  0  0  0  0  0  0  0  0  0  0
   13.7270    5.7144   19.8610 O   0  0  0  0  0  0  0  0  0  0  0  0
    8.3351    5.5235   15.4478 C   0  0  0  0  0  0  0  0  0  0  0  0
    8.7700    7.8434   21.3915 C   0  0  0  0  0  0  0  0  0  0  0  0
   11.7856    6.8851   19.2401 C   0  0  0  0  0  0  0  0  0  0  0  0
   10.5281    7.4276   19.5649 C   0  0  0  0  0  0  0  0  0  0  0  0
   10.0256    7.2907   20.8484 C   0  0  0  0  0  0  0  0  0  0  0  0
    9.3113    5.3049   14.4911 C   0  0  0  0  0  0  0  0  0  0  0  0
    9.4607    7.5646   16.0139 C   0  0  0  0  0  0  0  0  0  0  0  0
   10.4192    7.3157   15.0955 C   0  0  0  0  0  0  0  0  0  0  0  0
   10.2489    6.4227   23.0218 N   0  0  0  0  0  0  0  0  0  0  0  0
    7.2472    8.0746   23.5050 C   0  0  0  0  0  0  0  0  0  0  0  0
    9.2051    6.9101   23.4604 C   0  0  0  0  0  0  0  0  0  0  0  0
   11.9646    6.0299   21.4251 C   0  0  0  0  0  0  0  0  0  0  0  0
  1  5  1  0
  1 13  1  0
  2 20  2  0
  2 28  1  0
  2 29  1  0
  3 19  4  0
  3 25  4  0
  4 23  4  0
  4 27  1  0
  4 30  4  0
  5 17  1  0
  6  8  1  0
  6 29  1  0
  7 24  4  0
  7 26  4  0
  8 28  1  0
  9 13  2  0
 10 18  1  0
 10 21  4  0
 10 30  4  0
 11 17  2  0
 12 18  1  0
 13 15  1  0
 14 24  1  0
 15 25  1  0
 16 28  2  0
 17 20  1  0
 19 24  4  0
 20 23  1  0
 21 22  4  0
 22 23  4  0
 25 26  4  0
 27 29  2  0
M  END
$$$$

 Created by Python create_sdf_string function

 30 33  0  0  0  0  0  0  0  0999 V2000
    8.3036    9.8571   18.4133 C   0  0  0  0  0  0  0  0  0  0  0  0
    8.3694    7.6612   22.6703 C   0  0  0  0  0  0  0  0  0  0  0  0
    8.4143    6.6863   16.2273 C   0  0  0  0  0  0  0  0  0  0  0  0
   10.7581    6.5674   21.7636 C   0  0  0  0  0  0  0  0  0  0  0  0
    8.4452    8.7960   19.2958 O   0  0  0  0  0  0  0  0  0  0  0  0
    8.7122    6.7842   24.8569 C   0  0  0  0  0  0  0  0  0  0  0  0
   10.3400    6.1726   14.3081 C   0  0  0  0  0  0  0  0  0  0  0  0
    7.4297    7.5873   24.8962 C   0  0  0  0  0  0  0  0  0  0  0  0
    8.1566   10.0536   16.0516 O   0  0  0  0  0  0  0  0  0  0  0  0
   12.4989    6.2074   20.1776 C   0  0  0  0  0  0  0  0  0  0  0  0
    6.9192    9.1053   20.9073 O   0  0  0  0  0  0  0  0  0  0  0  0
   14.3979    6.0729   18.7784 C   0  0  0  0  0  0  0  0  0  0  0  0
    8.6811    9.5354   16.9998 C   0  0  0  0  0  0  0  0  0  0  0  0
    9.2512    4.2713   13.7653 O   0  0  0  0  0  0  0  0  0  0  0  0
    9.6495    8.6317   16.8332 N   0  0  0  0  0  0  0  0  0  0  0  0
    6.2934    8.6988   23.1988 O   0  0  0  0  0  0  0  0  0  0  0  0
    7.9806    8.6543   20.5437 C   0  0  0  0  0  0  0  0  0  0  0  0
   13.7270    5.7144   19.8610 O   0  0  0  0  0  0  0  0  0  0  0  0
    8.3351    5.5235   15.4478 C   0  0  0  0  0  0  0  0  0  0  0  0
    8.7700    7.8434   21.3915 C   0  0  0  0  0  0  0  0  0  0  0  0
   11.7856    6.8851   19.2401 C   0  0  0  0  0  0  0  0  0  0  0  0
   10.5281    7.4276   19.5649 C   0  0  0  0  0  0  0  0  0  0  0  0
   10.0256    7.2907   20.8484 C   0  0  0  0  0  0  0  0  0  0  0  0
    9.3113    5.3049   14.4911 C   0  0  0  0  0  0  0  0  0  0  0  0
    9.4607    7.5646   16.0139 C   0  0  0  0  0  0  0  0  0  0  0  0
   10.4192    7.3157   15.0955 C   0  0  0  0  0  0  0  0  0  0  0  0
   10.2489    6.4227   23.0218 N   0  0  0  0  0  0  0  0  0  0  0  0
    7.2472    8.0746   23.5050 C   0  0  0  0  0  0  0  0  0  0  0  0
    9.2051    6.9101   23.4604 C   0  0  0  0  0  0  0  0  0  0  0  0
   11.9646    6.0299   21.4251 C   0  0  0  0  0  0  0  0  0  0  0  0
  1  5  1  0
  1 13  1  0
  2 20  2  0
  2 28  1  0
  2 29  1  0
  3 19  4  0
  3 25  4  0
  4 23  4  0
  4 27  1  0
  4 30  4  0
  5 17  1  0
  6  8  1  0
  6 29  1  0
  7 24  4  0
  7 26  4  0
  8 28  1  0
  9 13  2  0
 10 18  1  0
 10 21  4  0
 10 30  4  0
 11 17  2  0
 12 18  1  0
 13 15  1  0
 14 24  1  0
 15 25  1  0
 16 28  2  0
 17 20  1  0
 19 24  4  0
 20 23  1  0
 21 22  4  0
 22 23  4  0
 25 26  4  0
 27 29  2  0
M  END
$$$$

 Created by Python create_sdf_string function

 30 33  0  0  0  0  0  0  0  0999 V2000
    8.3036    9.8571   18.4133 C   0  0  0  0  0  0  0  0  0  0  0  0
    8.3694    7.6612   22.6703 C   0  0  0  0  0  0  0  0  0  0  0  0
    8.4143    6.6863   16.2273 C   0  0  0  0  0  0  0  0  0  0  0  0
   10.7581    6.5674   21.7636 C   0  0  0  0  0  0  0  0  0  0  0  0
    8.4452    8.7960   19.2958 O   0  0  0  0  0  0  0  0  0  0  0  0
    8.7122    6.7842   24.8569 C   0  0  0  0  0  0  0  0  0  0  0  0
   10.3400    6.1726   14.3081 C   0  0  0  0  0  0  0  0  0  0  0  0
    7.4297    7.5873   24.8962 C   0  0  0  0  0  0  0  0  0  0  0  0
    8.1566   10.0536   16.0516 O   0  0  0  0  0  0  0  0  0  0  0  0
   12.4989    6.2074   20.1776 C   0  0  0  0  0  0  0  0  0  0  0  0
    6.9192    9.1053   20.9073 O   0  0  0  0  0  0  0  0  0  0  0  0
   14.3979    6.0729   18.7784 C   0  0  0  0  0  0  0  0  0  0  0  0
    8.6811    9.5354   16.9998 C   0  0  0  0  0  0  0  0  0  0  0  0
    9.2512    4.2713   13.7653 O   0  0  0  0  0  0  0  0  0  0  0  0
    9.6495    8.6317   16.8332 N   0  0  0  0  0  0  0  0  0  0  0  0
    6.2934    8.6988   23.1988 O   0  0  0  0  0  0  0  0  0  0  0  0
    7.9806    8.6543   20.5437 C   0  0  0  0  0  0  0  0  0  0  0  0
   13.7270    5.7144   19.8610 O   0  0  0  0  0  0  0  0  0  0  0  0
    8.3351    5.5235   15.4478 C   0  0  0  0  0  0  0  0  0  0  0  0
    8.7700    7.8434   21.3915 C   0  0  0  0  0  0  0  0  0  0  0  0
   11.7856    6.8851   19.2401 C   0  0  0  0  0  0  0  0  0  0  0  0
   10.5281    7.4276   19.5649 C   0  0  0  0  0  0  0  0  0  0  0  0
   10.0256    7.2907   20.8484 C   0  0  0  0  0  0  0  0  0  0  0  0
    9.3113    5.3049   14.4911 C   0  0  0  0  0  0  0  0  0  0  0  0
    9.4607    7.5646   16.0139 C   0  0  0  0  0  0  0  0  0  0  0  0
   10.4192    7.3157   15.0955 C   0  0  0  0  0  0  0  0  0  0  0  0
   10.2489    6.4227   23.0218 N   0  0  0  0  0  0  0  0  0  0  0  0
    7.2472    8.0746   23.5050 C   0  0  0  0  0  0  0  0  0  0  0  0
    9.2051    6.9101   23.4604 C   0  0  0  0  0  0  0  0  0  0  0  0
   11.9646    6.0299   21.4251 C   0  0  0  0  0  0  0  0  0  0  0  0
  1  5  1  0
  1 13  1  0
  2 20  2  0
  2 28  1  0
  2 29  1  0
  3 19  4  0
  3 25  4  0
  4 23  4  0
  4 27  1  0
  4 30  4  0
  5 17  1  0
  6  8  1  0
  6 29  1  0
  7 24  4  0
  7 26  4  0
  8 28  1  0
  9 13  2  0
 10 18  1  0
 10 21  4  0
 10 30  4  0
 11 17  2  0
 12 18  1  0
 13 15  1  0
 14 24  1  0
 15 25  1  0
 16 28  2  0
 17 20  1  0
 19 24  4  0
 20 23  1  0
 21 22  4  0
 22 23  4  0
 25 26  4  0
 27 29  2  0
M  END
$$$$

 Created by Python create_sdf_string function

 30 33  0  0  0  0  0  0  0  0999 V2000
    8.3036    9.8571   18.4133 C   0  0  0  0  0  0  0  0  0  0  0  0
    8.3694    7.6612   22.6703 C   0  0  0  0  0  0  0  0  0  0  0  0
    8.4143    6.6863   16.2273 C   0  0  0  0  0  0  0  0  0  0  0  0
   10.7581    6.5674   21.7636 C   0  0  0  0  0  0  0  0  0  0  0  0
    8.4452    8.7960   19.2958 O   0  0  0  0  0  0  0  0  0  0  0  0
    8.7122    6.7842   24.8569 C   0  0  0  0  0  0  0  0  0  0  0  0
   10.3400    6.1726   14.3081 C   0  0  0  0  0  0  0  0  0  0  0  0
    7.4297    7.5873   24.8962 C   0  0  0  0  0  0  0  0  0  0  0  0
    8.1566   10.0536   16.0516 O   0  0  0  0  0  0  0  0  0  0  0  0
   12.4989    6.2074   20.1776 C   0  0  0  0  0  0  0  0  0  0  0  0
    6.9192    9.1053   20.9073 O   0  0  0  0  0  0  0  0  0  0  0  0
   14.3979    6.0729   18.7784 C   0  0  0  0  0  0  0  0  0  0  0  0
    8.6811    9.5354   16.9998 C   0  0  0  0  0  0  0  0  0  0  0  0
    9.2512    4.2713   13.7653 O   0  0  0  0  0  0  0  0  0  0  0  0
    9.6495    8.6317   16.8332 N   0  0  0  0  0  0  0  0  0  0  0  0
    6.2934    8.6988   23.1988 O   0  0  0  0  0  0  0  0  0  0  0  0
    7.9806    8.6543   20.5437 C   0  0  0  0  0  0  0  0  0  0  0  0
   13.7270    5.7144   19.8610 O   0  0  0  0  0  0  0  0  0  0  0  0
    8.3351    5.5235   15.4478 C   0  0  0  0  0  0  0  0  0  0  0  0
    8.7700    7.8434   21.3915 C   0  0  0  0  0  0  0  0  0  0  0  0
   11.7856    6.8851   19.2401 C   0  0  0  0  0  0  0  0  0  0  0  0
   10.5281    7.4276   19.5649 C   0  0  0  0  0  0  0  0  0  0  0  0
   10.0256    7.2907   20.8484 C   0  0  0  0  0  0  0  0  0  0  0  0
    9.3113    5.3049   14.4911 C   0  0  0  0  0  0  0  0  0  0  0  0
    9.4607    7.5646   16.0139 C   0  0  0  0  0  0  0  0  0  0  0  0
   10.4192    7.3157   15.0955 C   0  0  0  0  0  0  0  0  0  0  0  0
   10.2489    6.4227   23.0218 N   0  0  0  0  0  0  0  0  0  0  0  0
    7.2472    8.0746   23.5050 C   0  0  0  0  0  0  0  0  0  0  0  0
    9.2051    6.9101   23.4604 C   0  0  0  0  0  0  0  0  0  0  0  0
   11.9646    6.0299   21.4251 C   0  0  0  0  0  0  0  0  0  0  0  0
  1  5  1  0
  1 13  1  0
  2 20  2  0
  2 28  1  0
  2 29  1  0
  3 19  4  0
  3 25  4  0
  4 23  4  0
  4 27  1  0
  4 30  4  0
  5 17  1  0
  6  8  1  0
  6 29  1  0
  7 24  4  0
  7 26  4  0
  8 28  1  0
  9 13  2  0
 10 18  1  0
 10 21  4  0
 10 30  4  0
 11 17  2  0
 12 18  1  0
 13 15  1  0
 14 24  1  0
 15 25  1  0
 16 28  2  0
 17 20  1  0
 19 24  4  0
 20 23  1  0
 21 22  4  0
 22 23  4  0
 25 26  4  0
 27 29  2  0
M  END
$$$$

 Created by Python create_sdf_string function

 30 33  0  0  0  0  0  0  0  0999 V2000
    8.3036    9.8571   18.4133 C   0  0  0  0  0  0  0  0  0  0  0  0
    8.3694    7.6612   22.6703 C   0  0  0  0  0  0  0  0  0  0  0  0
    8.4143    6.6863   16.2273 C   0  0  0  0  0  0  0  0  0  0  0  0
   10.7581    6.5674   21.7636 C   0  0  0  0  0  0  0  0  0  0  0  0
    8.4452    8.7960   19.2958 O   0  0  0  0  0  0  0  0  0  0  0  0
    8.7122    6.7842   24.8569 C   0  0  0  0  0  0  0  0  0  0  0  0
   10.3400    6.1726   14.3081 C   0  0  0  0  0  0  0  0  0  0  0  0
    7.4297    7.5873   24.8962 C   0  0  0  0  0  0  0  0  0  0  0  0
    8.1566   10.0536   16.0516 O   0  0  0  0  0  0  0  0  0  0  0  0
   12.4989    6.2074   20.1776 C   0  0  0  0  0  0  0  0  0  0  0  0
    6.9192    9.1053   20.9073 O   0  0  0  0  0  0  0  0  0  0  0  0
   14.3979    6.0729   18.7784 C   0  0  0  0  0  0  0  0  0  0  0  0
    8.6811    9.5354   16.9998 C   0  0  0  0  0  0  0  0  0  0  0  0
    9.2512    4.2713   13.7653 O   0  0  0  0  0  0  0  0  0  0  0  0
    9.6495    8.6317   16.8332 N   0  0  0  0  0  0  0  0  0  0  0  0
    6.2934    8.6988   23.1988 O   0  0  0  0  0  0  0  0  0  0  0  0
    7.9806    8.6543   20.5437 C   0  0  0  0  0  0  0  0  0  0  0  0
   13.7270    5.7144   19.8610 O   0  0  0  0  0  0  0  0  0  0  0  0
    8.3351    5.5235   15.4478 C   0  0  0  0  0  0  0  0  0  0  0  0
    8.7700    7.8434   21.3915 C   0  0  0  0  0  0  0  0  0  0  0  0
   11.7856    6.8851   19.2401 C   0  0  0  0  0  0  0  0  0  0  0  0
   10.5281    7.4276   19.5649 C   0  0  0  0  0  0  0  0  0  0  0  0
   10.0256    7.2907   20.8484 C   0  0  0  0  0  0  0  0  0  0  0  0
    9.3113    5.3049   14.4911 C   0  0  0  0  0  0  0  0  0  0  0  0
    9.4607    7.5646   16.0139 C   0  0  0  0  0  0  0  0  0  0  0  0
   10.4192    7.3157   15.0955 C   0  0  0  0  0  0  0  0  0  0  0  0
   10.2489    6.4227   23.0218 N   0  0  0  0  0  0  0  0  0  0  0  0
    7.2472    8.0746   23.5050 C   0  0  0  0  0  0  0  0  0  0  0  0
    9.2051    6.9101   23.4604 C   0  0  0  0  0  0  0  0  0  0  0  0
   11.9646    6.0299   21.4251 C   0  0  0  0  0  0  0  0  0  0  0  0
  1  5  1  0
  1 13  1  0
  2 20  2  0
  2 28  1  0
  2 29  1  0
  3 19  4  0
  3 25  4  0
  4 23  4  0
  4 27  1  0
  4 30  4  0
  5 17  1  0
  6  8  1  0
  6 29  1  0
  7 24  4  0
  7 26  4  0
  8 28  1  0
  9 13  2  0
 10 18  1  0
 10 21  4  0
 10 30  4  0
 11 17  2  0
 12 18  1  0
 13 15  1  0
 14 24  1  0
 15 25  1  0
 16 28  2  0
 17 20  1  0
 19 24  4  0
 20 23  1  0
 21 22  4  0
 22 23  4  0
 25 26  4  0
 27 29  2  0
M  END
$$$$

 Created by Python create_sdf_string function

 30 33  0  0  0  0  0  0  0  0999 V2000
    8.3036    9.8571   18.4133 C   0  0  0  0  0  0  0  0  0  0  0  0
    8.3694    7.6612   22.6703 C   0  0  0  0  0  0  0  0  0  0  0  0
    8.4143    6.6863   16.2273 C   0  0  0  0  0  0  0  0  0  0  0  0
   10.7581    6.5674   21.7636 C   0  0  0  0  0  0  0  0  0  0  0  0
    8.4452    8.7960   19.2958 O   0  0  0  0  0  0  0  0  0  0  0  0
    8.7122    6.7842   24.8569 C   0  0  0  0  0  0  0  0  0  0  0  0
   10.3400    6.1726   14.3081 C   0  0  0  0  0  0  0  0  0  0  0  0
    7.4297    7.5873   24.8962 C   0  0  0  0  0  0  0  0  0  0  0  0
    8.1566   10.0536   16.0516 O   0  0  0  0  0  0  0  0  0  0  0  0
   12.4989    6.2074   20.1776 C   0  0  0  0  0  0  0  0  0  0  0  0
    6.9192    9.1053   20.9073 O   0  0  0  0  0  0  0  0  0  0  0  0
   14.3979    6.0729   18.7784 C   0  0  0  0  0  0  0  0  0  0  0  0
    8.6811    9.5354   16.9998 C   0  0  0  0  0  0  0  0  0  0  0  0
    9.2512    4.2713   13.7653 O   0  0  0  0  0  0  0  0  0  0  0  0
    9.6495    8.6317   16.8332 N   0  0  0  0  0  0  0  0  0  0  0  0
    6.2934    8.6988   23.1988 O   0  0  0  0  0  0  0  0  0  0  0  0
    7.9806    8.6543   20.5437 C   0  0  0  0  0  0  0  0  0  0  0  0
   13.7270    5.7144   19.8610 O   0  0  0  0  0  0  0  0  0  0  0  0
    8.3351    5.5235   15.4478 C   0  0  0  0  0  0  0  0  0  0  0  0
    8.7700    7.8434   21.3915 C   0  0  0  0  0  0  0  0  0  0  0  0
   11.7856    6.8851   19.2401 C   0  0  0  0  0  0  0  0  0  0  0  0
   10.5281    7.4276   19.5649 C   0  0  0  0  0  0  0  0  0  0  0  0
   10.0256    7.2907   20.8484 C   0  0  0  0  0  0  0  0  0  0  0  0
    9.3113    5.3049   14.4911 C   0  0  0  0  0  0  0  0  0  0  0  0
    9.4607    7.5646   16.0139 C   0  0  0  0  0  0  0  0  0  0  0  0
   10.4192    7.3157   15.0955 C   0  0  0  0  0  0  0  0  0  0  0  0
   10.2489    6.4227   23.0218 N   0  0  0  0  0  0  0  0  0  0  0  0
    7.2472    8.0746   23.5050 C   0  0  0  0  0  0  0  0  0  0  0  0
    9.2051    6.9101   23.4604 C   0  0  0  0  0  0  0  0  0  0  0  0
   11.9646    6.0299   21.4251 C   0  0  0  0  0  0  0  0  0  0  0  0
  1  5  1  0
  1 13  1  0
  2 20  2  0
  2 28  1  0
  2 29  1  0
  3 19  4  0
  3 25  4  0
  4 23  4  0
  4 27  1  0
  4 30  4  0
  5 17  1  0
  6  8  1  0
  6 29  1  0
  7 24  4  0
  7 26  4  0
  8 28  1  0
  9 13  2  0
 10 18  1  0
 10 21  4  0
 10 30  4  0
 11 17  2  0
 12 18  1  0
 13 15  1  0
 14 24  1  0
 15 25  1  0
 16 28  2  0
 17 20  1  0
 19 24  4  0
 20 23  1  0
 21 22  4  0
 22 23  4  0
 25 26  4  0
 27 29  2  0
M  END
$$$$

 Created by Python create_sdf_string function

 30 33  0  0  0  0  0  0  0  0999 V2000
    8.3036    9.8571   18.4133 C   0  0  0  0  0  0  0  0  0  0  0  0
    8.3694    7.6612   22.6703 C   0  0  0  0  0  0  0  0  0  0  0  0
    8.4143    6.6863   16.2273 C   0  0  0  0  0  0  0  0  0  0  0  0
   10.7581    6.5674   21.7636 C   0  0  0  0  0  0  0  0  0  0  0  0
    8.4452    8.7960   19.2958 O   0  0  0  0  0  0  0  0  0  0  0  0
    8.7122    6.7842   24.8569 C   0  0  0  0  0  0  0  0  0  0  0  0
   10.3400    6.1726   14.3081 C   0  0  0  0  0  0  0  0  0  0  0  0
    7.4297    7.5873   24.8962 C   0  0  0  0  0  0  0  0  0  0  0  0
    8.1566   10.0536   16.0516 O   0  0  0  0  0  0  0  0  0  0  0  0
   12.4989    6.2074   20.1776 C   0  0  0  0  0  0  0  0  0  0  0  0
    6.9192    9.1053   20.9073 O   0  0  0  0  0  0  0  0  0  0  0  0
   14.3979    6.0729   18.7784 C   0  0  0  0  0  0  0  0  0  0  0  0
    8.6811    9.5354   16.9998 C   0  0  0  0  0  0  0  0  0  0  0  0
    9.2512    4.2713   13.7653 O   0  0  0  0  0  0  0  0  0  0  0  0
    9.6495    8.6317   16.8332 N   0  0  0  0  0  0  0  0  0  0  0  0
    6.2934    8.6988   23.1988 O   0  0  0  0  0  0  0  0  0  0  0  0
    7.9806    8.6543   20.5437 C   0  0  0  0  0  0  0  0  0  0  0  0
   13.7270    5.7144   19.8610 O   0  0  0  0  0  0  0  0  0  0  0  0
    8.3351    5.5235   15.4478 C   0  0  0  0  0  0  0  0  0  0  0  0
    8.7700    7.8434   21.3915 C   0  0  0  0  0  0  0  0  0  0  0  0
   11.7856    6.8851   19.2401 C   0  0  0  0  0  0  0  0  0  0  0  0
   10.5281    7.4276   19.5649 C   0  0  0  0  0  0  0  0  0  0  0  0
   10.0256    7.2907   20.8484 C   0  0  0  0  0  0  0  0  0  0  0  0
    9.3113    5.3049   14.4911 C   0  0  0  0  0  0  0  0  0  0  0  0
    9.4607    7.5646   16.0139 C   0  0  0  0  0  0  0  0  0  0  0  0
   10.4192    7.3157   15.0955 C   0  0  0  0  0  0  0  0  0  0  0  0
   10.2489    6.4227   23.0218 N   0  0  0  0  0  0  0  0  0  0  0  0
    7.2472    8.0746   23.5050 C   0  0  0  0  0  0  0  0  0  0  0  0
    9.2051    6.9101   23.4604 C   0  0  0  0  0  0  0  0  0  0  0  0
   11.9646    6.0299   21.4251 C   0  0  0  0  0  0  0  0  0  0  0  0
  1  5  1  0
  1 13  1  0
  2 20  2  0
  2 28  1  0
  2 29  1  0
  3 19  4  0
  3 25  4  0
  4 23  4  0
  4 27  1  0
  4 30  4  0
  5 17  1  0
  6  8  1  0
  6 29  1  0
  7 24  4  0
  7 26  4  0
  8 28  1  0
  9 13  2  0
 10 18  1  0
 10 21  4  0
 10 30  4  0
 11 17  2  0
 12 18  1  0
 13 15  1  0
 14 24  1  0
 15 25  1  0
 16 28  2  0
 17 20  1  0
 19 24  4  0
 20 23  1  0
 21 22  4  0
 22 23  4  0
 25 26  4  0
 27 29  2  0
M  END
$$$$

 Created by Python create_sdf_string function

 30 33  0  0  0  0  0  0  0  0999 V2000
    8.3036    9.8571   18.4133 C   0  0  0  0  0  0  0  0  0  0  0  0
    8.3694    7.6612   22.6703 C   0  0  0  0  0  0  0  0  0  0  0  0
    8.4143    6.6863   16.2273 C   0  0  0  0  0  0  0  0  0  0  0  0
   10.7581    6.5674   21.7636 C   0  0  0  0  0  0  0  0  0  0  0  0
    8.4452    8.7960   19.2958 O   0  0  0  0  0  0  0  0  0  0  0  0
    8.7122    6.7842   24.8569 C   0  0  0  0  0  0  0  0  0  0  0  0
   10.3400    6.1726   14.3081 C   0  0  0  0  0  0  0  0  0  0  0  0
    7.4297    7.5873   24.8962 C   0  0  0  0  0  0  0  0  0  0  0  0
    8.1566   10.0536   16.0516 O   0  0  0  0  0  0  0  0  0  0  0  0
   12.4989    6.2074   20.1776 C   0  0  0  0  0  0  0  0  0  0  0  0
    6.9192    9.1053   20.9073 O   0  0  0  0  0  0  0  0  0  0  0  0
   14.3979    6.0729   18.7784 C   0  0  0  0  0  0  0  0  0  0  0  0
    8.6811    9.5354   16.9998 C   0  0  0  0  0  0  0  0  0  0  0  0
    9.2512    4.2713   13.7653 O   0  0  0  0  0  0  0  0  0  0  0  0
    9.6495    8.6317   16.8332 N   0  0  0  0  0  0  0  0  0  0  0  0
    6.2934    8.6988   23.1988 O   0  0  0  0  0  0  0  0  0  0  0  0
    7.9806    8.6543   20.5437 C   0  0  0  0  0  0  0  0  0  0  0  0
   13.7270    5.7144   19.8610 O   0  0  0  0  0  0  0  0  0  0  0  0
    8.3351    5.5235   15.4478 C   0  0  0  0  0  0  0  0  0  0  0  0
    8.7700    7.8434   21.3915 C   0  0  0  0  0  0  0  0  0  0  0  0
   11.7856    6.8851   19.2401 C   0  0  0  0  0  0  0  0  0  0  0  0
   10.5281    7.4276   19.5649 C   0  0  0  0  0  0  0  0  0  0  0  0
   10.0256    7.2907   20.8484 C   0  0  0  0  0  0  0  0  0  0  0  0
    9.3113    5.3049   14.4911 C   0  0  0  0  0  0  0  0  0  0  0  0
    9.4607    7.5646   16.0139 C   0  0  0  0  0  0  0  0  0  0  0  0
   10.4192    7.3157   15.0955 C   0  0  0  0  0  0  0  0  0  0  0  0
   10.2489    6.4227   23.0218 N   0  0  0  0  0  0  0  0  0  0  0  0
    7.2472    8.0746   23.5050 C   0  0  0  0  0  0  0  0  0  0  0  0
    9.2051    6.9101   23.4604 C   0  0  0  0  0  0  0  0  0  0  0  0
   11.9646    6.0299   21.4251 C   0  0  0  0  0  0  0  0  0  0  0  0
  1  5  1  0
  1 13  1  0
  2 20  2  0
  2 28  1  0
  2 29  1  0
  3 19  4  0
  3 25  4  0
  4 23  4  0
  4 27  1  0
  4 30  4  0
  5 17  1  0
  6  8  1  0
  6 29  1  0
  7 24  4  0
  7 26  4  0
  8 28  1  0
  9 13  2  0
 10 18  1  0
 10 21  4  0
 10 30  4  0
 11 17  2  0
 12 18  1  0
 13 15  1  0
 14 24  1  0
 15 25  1  0
 16 28  2  0
 17 20  1  0
 19 24  4  0
 20 23  1  0
 21 22  4  0
 22 23  4  0
 25 26  4  0
 27 29  2  0
M  END
$$$$

 Created by Python create_sdf_string function

 30 33  0  0  0  0  0  0  0  0999 V2000
    8.3036    9.8571   18.4133 C   0  0  0  0  0  0  0  0  0  0  0  0
    8.3694    7.6612   22.6703 C   0  0  0  0  0  0  0  0  0  0  0  0
    8.4143    6.6863   16.2273 C   0  0  0  0  0  0  0  0  0  0  0  0
   10.7581    6.5674   21.7636 C   0  0  0  0  0  0  0  0  0  0  0  0
    8.4452    8.7960   19.2958 O   0  0  0  0  0  0  0  0  0  0  0  0
    8.7122    6.7842   24.8569 C   0  0  0  0  0  0  0  0  0  0  0  0
   10.3400    6.1726   14.3081 C   0  0  0  0  0  0  0  0  0  0  0  0
    7.4297    7.5873   24.8962 C   0  0  0  0  0  0  0  0  0  0  0  0
    8.1566   10.0536   16.0516 O   0  0  0  0  0  0  0  0  0  0  0  0
   12.4989    6.2074   20.1776 C   0  0  0  0  0  0  0  0  0  0  0  0
    6.9192    9.1053   20.9073 O   0  0  0  0  0  0  0  0  0  0  0  0
   14.3979    6.0729   18.7784 C   0  0  0  0  0  0  0  0  0  0  0  0
    8.6811    9.5354   16.9998 C   0  0  0  0  0  0  0  0  0  0  0  0
    9.2512    4.2713   13.7653 O   0  0  0  0  0  0  0  0  0  0  0  0
    9.6495    8.6317   16.8332 N   0  0  0  0  0  0  0  0  0  0  0  0
    6.2934    8.6988   23.1988 O   0  0  0  0  0  0  0  0  0  0  0  0
    7.9806    8.6543   20.5437 C   0  0  0  0  0  0  0  0  0  0  0  0
   13.7270    5.7144   19.8610 O   0  0  0  0  0  0  0  0  0  0  0  0
    8.3351    5.5235   15.4478 C   0  0  0  0  0  0  0  0  0  0  0  0
    8.7700    7.8434   21.3915 C   0  0  0  0  0  0  0  0  0  0  0  0
   11.7856    6.8851   19.2401 C   0  0  0  0  0  0  0  0  0  0  0  0
   10.5281    7.4276   19.5649 C   0  0  0  0  0  0  0  0  0  0  0  0
   10.0256    7.2907   20.8484 C   0  0  0  0  0  0  0  0  0  0  0  0
    9.3113    5.3049   14.4911 C   0  0  0  0  0  0  0  0  0  0  0  0
    9.4607    7.5646   16.0139 C   0  0  0  0  0  0  0  0  0  0  0  0
   10.4192    7.3157   15.0955 C   0  0  0  0  0  0  0  0  0  0  0  0
   10.2489    6.4227   23.0218 N   0  0  0  0  0  0  0  0  0  0  0  0
    7.2472    8.0746   23.5050 C   0  0  0  0  0  0  0  0  0  0  0  0
    9.2051    6.9101   23.4604 C   0  0  0  0  0  0  0  0  0  0  0  0
   11.9646    6.0299   21.4251 C   0  0  0  0  0  0  0  0  0  0  0  0
  1  5  1  0
  1 13  1  0
  2 20  2  0
  2 28  1  0
  2 29  1  0
  3 19  4  0
  3 25  4  0
  4 23  4  0
  4 27  1  0
  4 30  4  0
  5 17  1  0
  6  8  1  0
  6 29  1  0
  7 24  4  0
  7 26  4  0
  8 28  1  0
  9 13  2  0
 10 18  1  0
 10 21  4  0
 10 30  4  0
 11 17  2  0
 12 18  1  0
 13 15  1  0
 14 24  1  0
 15 25  1  0
 16 28  2  0
 17 20  1  0
 19 24  4  0
 20 23  1  0
 21 22  4  0
 22 23  4  0
 25 26  4  0
 27 29  2  0
M  END
$$$$

 Created by Python create_sdf_string function

 30 33  0  0  0  0  0  0  0  0999 V2000
    8.3036    9.8571   18.4133 C   0  0  0  0  0  0  0  0  0  0  0  0
    8.3694    7.6612   22.6703 C   0  0  0  0  0  0  0  0  0  0  0  0
    8.4143    6.6863   16.2273 C   0  0  0  0  0  0  0  0  0  0  0  0
   10.7581    6.5674   21.7636 C   0  0  0  0  0  0  0  0  0  0  0  0
    8.4452    8.7960   19.2958 O   0  0  0  0  0  0  0  0  0  0  0  0
    8.7122    6.7842   24.8569 C   0  0  0  0  0  0  0  0  0  0  0  0
   10.3400    6.1726   14.3081 C   0  0  0  0  0  0  0  0  0  0  0  0
    7.4297    7.5873   24.8962 C   0  0  0  0  0  0  0  0  0  0  0  0
    8.1566   10.0536   16.0516 O   0  0  0  0  0  0  0  0  0  0  0  0
   12.4989    6.2074   20.1776 C   0  0  0  0  0  0  0  0  0  0  0  0
    6.9192    9.1053   20.9073 O   0  0  0  0  0  0  0  0  0  0  0  0
   14.3979    6.0729   18.7784 C   0  0  0  0  0  0  0  0  0  0  0  0
    8.6811    9.5354   16.9998 C   0  0  0  0  0  0  0  0  0  0  0  0
    9.2512    4.2713   13.7653 O   0  0  0  0  0  0  0  0  0  0  0  0
    9.6495    8.6317   16.8332 N   0  0  0  0  0  0  0  0  0  0  0  0
    6.2934    8.6988   23.1988 O   0  0  0  0  0  0  0  0  0  0  0  0
    7.9806    8.6543   20.5437 C   0  0  0  0  0  0  0  0  0  0  0  0
   13.7270    5.7144   19.8610 O   0  0  0  0  0  0  0  0  0  0  0  0
    8.3351    5.5235   15.4478 C   0  0  0  0  0  0  0  0  0  0  0  0
    8.7700    7.8434   21.3915 C   0  0  0  0  0  0  0  0  0  0  0  0
   11.7856    6.8851   19.2401 C   0  0  0  0  0  0  0  0  0  0  0  0
   10.5281    7.4276   19.5649 C   0  0  0  0  0  0  0  0  0  0  0  0
   10.0256    7.2907   20.8484 C   0  0  0  0  0  0  0  0  0  0  0  0
    9.3113    5.3049   14.4911 C   0  0  0  0  0  0  0  0  0  0  0  0
    9.4607    7.5646   16.0139 C   0  0  0  0  0  0  0  0  0  0  0  0
   10.4192    7.3157   15.0955 C   0  0  0  0  0  0  0  0  0  0  0  0
   10.2489    6.4227   23.0218 N   0  0  0  0  0  0  0  0  0  0  0  0
    7.2472    8.0746   23.5050 C   0  0  0  0  0  0  0  0  0  0  0  0
    9.2051    6.9101   23.4604 C   0  0  0  0  0  0  0  0  0  0  0  0
   11.9646    6.0299   21.4251 C   0  0  0  0  0  0  0  0  0  0  0  0
  1  5  1  0
  1 13  1  0
  2 20  2  0
  2 28  1  0
  2 29  1  0
  3 19  4  0
  3 25  4  0
  4 23  4  0
  4 27  1  0
  4 30  4  0
  5 17  1  0
  6  8  1  0
  6 29  1  0
  7 24  4  0
  7 26  4  0
  8 28  1  0
  9 13  2  0
 10 18  1  0
 10 21  4  0
 10 30  4  0
 11 17  2  0
 12 18  1  0
 13 15  1  0
 14 24  1  0
 15 25  1  0
 16 28  2  0
 17 20  1  0
 19 24  4  0
 20 23  1  0
 21 22  4  0
 22 23  4  0
 25 26  4  0
 27 29  2  0
M  END
$$$$

 Created by Python create_sdf_string function

 30 33  0  0  0  0  0  0  0  0999 V2000
    8.3036    9.8571   18.4133 C   0  0  0  0  0  0  0  0  0  0  0  0
    8.3694    7.6612   22.6703 C   0  0  0  0  0  0  0  0  0  0  0  0
    8.4143    6.6863   16.2273 C   0  0  0  0  0  0  0  0  0  0  0  0
   10.7581    6.5674   21.7636 C   0  0  0  0  0  0  0  0  0  0  0  0
    8.4452    8.7960   19.2958 O   0  0  0  0  0  0  0  0  0  0  0  0
    8.7122    6.7842   24.8569 C   0  0  0  0  0  0  0  0  0  0  0  0
   10.3400    6.1726   14.3081 C   0  0  0  0  0  0  0  0  0  0  0  0
    7.4297    7.5873   24.8962 C   0  0  0  0  0  0  0  0  0  0  0  0
    8.1566   10.0536   16.0516 O   0  0  0  0  0  0  0  0  0  0  0  0
   12.4989    6.2074   20.1776 C   0  0  0  0  0  0  0  0  0  0  0  0
    6.9192    9.1053   20.9073 O   0  0  0  0  0  0  0  0  0  0  0  0
   14.3979    6.0729   18.7784 C   0  0  0  0  0  0  0  0  0  0  0  0
    8.6811    9.5354   16.9998 C   0  0  0  0  0  0  0  0  0  0  0  0
    9.2512    4.2713   13.7653 O   0  0  0  0  0  0  0  0  0  0  0  0
    9.6495    8.6317   16.8332 N   0  0  0  0  0  0  0  0  0  0  0  0
    6.2934    8.6988   23.1988 O   0  0  0  0  0  0  0  0  0  0  0  0
    7.9806    8.6543   20.5437 C   0  0  0  0  0  0  0  0  0  0  0  0
   13.7270    5.7144   19.8610 O   0  0  0  0  0  0  0  0  0  0  0  0
    8.3351    5.5235   15.4478 C   0  0  0  0  0  0  0  0  0  0  0  0
    8.7700    7.8434   21.3915 C   0  0  0  0  0  0  0  0  0  0  0  0
   11.7856    6.8851   19.2401 C   0  0  0  0  0  0  0  0  0  0  0  0
   10.5281    7.4276   19.5649 C   0  0  0  0  0  0  0  0  0  0  0  0
   10.0256    7.2907   20.8484 C   0  0  0  0  0  0  0  0  0  0  0  0
    9.3113    5.3049   14.4911 C   0  0  0  0  0  0  0  0  0  0  0  0
    9.4607    7.5646   16.0139 C   0  0  0  0  0  0  0  0  0  0  0  0
   10.4192    7.3157   15.0955 C   0  0  0  0  0  0  0  0  0  0  0  0
   10.2489    6.4227   23.0218 N   0  0  0  0  0  0  0  0  0  0  0  0
    7.2472    8.0746   23.5050 C   0  0  0  0  0  0  0  0  0  0  0  0
    9.2051    6.9101   23.4604 C   0  0  0  0  0  0  0  0  0  0  0  0
   11.9646    6.0299   21.4251 C   0  0  0  0  0  0  0  0  0  0  0  0
  1  5  1  0
  1 13  1  0
  2 20  2  0
  2 28  1  0
  2 29  1  0
  3 19  4  0
  3 25  4  0
  4 23  4  0
  4 27  1  0
  4 30  4  0
  5 17  1  0
  6  8  1  0
  6 29  1  0
  7 24  4  0
  7 26  4  0
  8 28  1  0
  9 13  2  0
 10 18  1  0
 10 21  4  0
 10 30  4  0
 11 17  2  0
 12 18  1  0
 13 15  1  0
 14 24  1  0
 15 25  1  0
 16 28  2  0
 17 20  1  0
 19 24  4  0
 20 23  1  0
 21 22  4  0
 22 23  4  0
 25 26  4  0
 27 29  2  0
M  END
$$$$

 Created by Python create_sdf_string function

 30 33  0  0  0  0  0  0  0  0999 V2000
    8.3036    9.8571   18.4133 C   0  0  0  0  0  0  0  0  0  0  0  0
    8.3694    7.6612   22.6703 C   0  0  0  0  0  0  0  0  0  0  0  0
    8.4143    6.6863   16.2273 C   0  0  0  0  0  0  0  0  0  0  0  0
   10.7581    6.5674   21.7636 C   0  0  0  0  0  0  0  0  0  0  0  0
    8.4452    8.7960   19.2958 O   0  0  0  0  0  0  0  0  0  0  0  0
    8.7122    6.7842   24.8569 C   0  0  0  0  0  0  0  0  0  0  0  0
   10.3400    6.1726   14.3081 C   0  0  0  0  0  0  0  0  0  0  0  0
    7.4297    7.5873   24.8962 C   0  0  0  0  0  0  0  0  0  0  0  0
    8.1566   10.0536   16.0516 O   0  0  0  0  0  0  0  0  0  0  0  0
   12.4989    6.2074   20.1776 C   0  0  0  0  0  0  0  0  0  0  0  0
    6.9192    9.1053   20.9073 O   0  0  0  0  0  0  0  0  0  0  0  0
   14.3979    6.0729   18.7784 C   0  0  0  0  0  0  0  0  0  0  0  0
    8.6811    9.5354   16.9998 C   0  0  0  0  0  0  0  0  0  0  0  0
    9.2512    4.2713   13.7653 O   0  0  0  0  0  0  0  0  0  0  0  0
    9.6495    8.6317   16.8332 N   0  0  0  0  0  0  0  0  0  0  0  0
    6.2934    8.6988   23.1988 O   0  0  0  0  0  0  0  0  0  0  0  0
    7.9806    8.6543   20.5437 C   0  0  0  0  0  0  0  0  0  0  0  0
   13.7270    5.7144   19.8610 O   0  0  0  0  0  0  0  0  0  0  0  0
    8.3351    5.5235   15.4478 C   0  0  0  0  0  0  0  0  0  0  0  0
    8.7700    7.8434   21.3915 C   0  0  0  0  0  0  0  0  0  0  0  0
   11.7856    6.8851   19.2401 C   0  0  0  0  0  0  0  0  0  0  0  0
   10.5281    7.4276   19.5649 C   0  0  0  0  0  0  0  0  0  0  0  0
   10.0256    7.2907   20.8484 C   0  0  0  0  0  0  0  0  0  0  0  0
    9.3113    5.3049   14.4911 C   0  0  0  0  0  0  0  0  0  0  0  0
    9.4607    7.5646   16.0139 C   0  0  0  0  0  0  0  0  0  0  0  0
   10.4192    7.3157   15.0955 C   0  0  0  0  0  0  0  0  0  0  0  0
   10.2489    6.4227   23.0218 N   0  0  0  0  0  0  0  0  0  0  0  0
    7.2472    8.0746   23.5050 C   0  0  0  0  0  0  0  0  0  0  0  0
    9.2051    6.9101   23.4604 C   0  0  0  0  0  0  0  0  0  0  0  0
   11.9646    6.0299   21.4251 C   0  0  0  0  0  0  0  0  0  0  0  0
  1  5  1  0
  1 13  1  0
  2 20  2  0
  2 28  1  0
  2 29  1  0
  3 19  4  0
  3 25  4  0
  4 23  4  0
  4 27  1  0
  4 30  4  0
  5 17  1  0
  6  8  1  0
  6 29  1  0
  7 24  4  0
  7 26  4  0
  8 28  1  0
  9 13  2  0
 10 18  1  0
 10 21  4  0
 10 30  4  0
 11 17  2  0
 12 18  1  0
 13 15  1  0
 14 24  1  0
 15 25  1  0
 16 28  2  0
 17 20  1  0
 19 24  4  0
 20 23  1  0
 21 22  4  0
 22 23  4  0
 25 26  4  0
 27 29  2  0
M  END
$$$$

 Created by Python create_sdf_string function

 30 33  0  0  0  0  0  0  0  0999 V2000
    8.3036    9.8571   18.4133 C   0  0  0  0  0  0  0  0  0  0  0  0
    8.3694    7.6612   22.6703 C   0  0  0  0  0  0  0  0  0  0  0  0
    8.4143    6.6863   16.2273 C   0  0  0  0  0  0  0  0  0  0  0  0
   10.7581    6.5674   21.7636 C   0  0  0  0  0  0  0  0  0  0  0  0
    8.4452    8.7960   19.2958 O   0  0  0  0  0  0  0  0  0  0  0  0
    8.7122    6.7842   24.8569 C   0  0  0  0  0  0  0  0  0  0  0  0
   10.3400    6.1726   14.3081 C   0  0  0  0  0  0  0  0  0  0  0  0
    7.4297    7.5873   24.8962 C   0  0  0  0  0  0  0  0  0  0  0  0
    8.1566   10.0536   16.0516 O   0  0  0  0  0  0  0  0  0  0  0  0
   12.4989    6.2074   20.1776 C   0  0  0  0  0  0  0  0  0  0  0  0
    6.9192    9.1053   20.9073 O   0  0  0  0  0  0  0  0  0  0  0  0
   14.3979    6.0729   18.7784 C   0  0  0  0  0  0  0  0  0  0  0  0
    8.6811    9.5354   16.9998 C   0  0  0  0  0  0  0  0  0  0  0  0
    9.2512    4.2713   13.7653 O   0  0  0  0  0  0  0  0  0  0  0  0
    9.6495    8.6317   16.8332 N   0  0  0  0  0  0  0  0  0  0  0  0
    6.2934    8.6988   23.1988 O   0  0  0  0  0  0  0  0  0  0  0  0
    7.9806    8.6543   20.5437 C   0  0  0  0  0  0  0  0  0  0  0  0
   13.7270    5.7144   19.8610 O   0  0  0  0  0  0  0  0  0  0  0  0
    8.3351    5.5235   15.4478 C   0  0  0  0  0  0  0  0  0  0  0  0
    8.7700    7.8434   21.3915 C   0  0  0  0  0  0  0  0  0  0  0  0
   11.7856    6.8851   19.2401 C   0  0  0  0  0  0  0  0  0  0  0  0
   10.5281    7.4276   19.5649 C   0  0  0  0  0  0  0  0  0  0  0  0
   10.0256    7.2907   20.8484 C   0  0  0  0  0  0  0  0  0  0  0  0
    9.3113    5.3049   14.4911 C   0  0  0  0  0  0  0  0  0  0  0  0
    9.4607    7.5646   16.0139 C   0  0  0  0  0  0  0  0  0  0  0  0
   10.4192    7.3157   15.0955 C   0  0  0  0  0  0  0  0  0  0  0  0
   10.2489    6.4227   23.0218 N   0  0  0  0  0  0  0  0  0  0  0  0
    7.2472    8.0746   23.5050 C   0  0  0  0  0  0  0  0  0  0  0  0
    9.2051    6.9101   23.4604 C   0  0  0  0  0  0  0  0  0  0  0  0
   11.9646    6.0299   21.4251 C   0  0  0  0  0  0  0  0  0  0  0  0
  1  5  1  0
  1 13  1  0
  2 20  2  0
  2 28  1  0
  2 29  1  0
  3 19  4  0
  3 25  4  0
  4 23  4  0
  4 27  1  0
  4 30  4  0
  5 17  1  0
  6  8  1  0
  6 29  1  0
  7 24  4  0
  7 26  4  0
  8 28  1  0
  9 13  2  0
 10 18  1  0
 10 21  4  0
 10 30  4  0
 11 17  2  0
 12 18  1  0
 13 15  1  0
 14 24  1  0
 15 25  1  0
 16 28  2  0
 17 20  1  0
 19 24  4  0
 20 23  1  0
 21 22  4  0
 22 23  4  0
 25 26  4  0
 27 29  2  0
M  END
$$$$

 Created by Python create_sdf_string function

 30 33  0  0  0  0  0  0  0  0999 V2000
    8.3036    9.8571   18.4133 C   0  0  0  0  0  0  0  0  0  0  0  0
    8.3694    7.6612   22.6703 C   0  0  0  0  0  0  0  0  0  0  0  0
    8.4143    6.6863   16.2273 C   0  0  0  0  0  0  0  0  0  0  0  0
   10.7581    6.5674   21.7636 C   0  0  0  0  0  0  0  0  0  0  0  0
    8.4452    8.7960   19.2958 O   0  0  0  0  0  0  0  0  0  0  0  0
    8.7122    6.7842   24.8569 C   0  0  0  0  0  0  0  0  0  0  0  0
   10.3400    6.1726   14.3081 C   0  0  0  0  0  0  0  0  0  0  0  0
    7.4297    7.5873   24.8962 C   0  0  0  0  0  0  0  0  0  0  0  0
    8.1566   10.0536   16.0516 O   0  0  0  0  0  0  0  0  0  0  0  0
   12.4989    6.2074   20.1776 C   0  0  0  0  0  0  0  0  0  0  0  0
    6.9192    9.1053   20.9073 O   0  0  0  0  0  0  0  0  0  0  0  0
   14.3979    6.0729   18.7784 C   0  0  0  0  0  0  0  0  0  0  0  0
    8.6811    9.5354   16.9998 C   0  0  0  0  0  0  0  0  0  0  0  0
    9.2512    4.2713   13.7653 O   0  0  0  0  0  0  0  0  0  0  0  0
    9.6495    8.6317   16.8332 N   0  0  0  0  0  0  0  0  0  0  0  0
    6.2934    8.6988   23.1988 O   0  0  0  0  0  0  0  0  0  0  0  0
    7.9806    8.6543   20.5437 C   0  0  0  0  0  0  0  0  0  0  0  0
   13.7270    5.7144   19.8610 O   0  0  0  0  0  0  0  0  0  0  0  0
    8.3351    5.5235   15.4478 C   0  0  0  0  0  0  0  0  0  0  0  0
    8.7700    7.8434   21.3915 C   0  0  0  0  0  0  0  0  0  0  0  0
   11.7856    6.8851   19.2401 C   0  0  0  0  0  0  0  0  0  0  0  0
   10.5281    7.4276   19.5649 C   0  0  0  0  0  0  0  0  0  0  0  0
   10.0256    7.2907   20.8484 C   0  0  0  0  0  0  0  0  0  0  0  0
    9.3113    5.3049   14.4911 C   0  0  0  0  0  0  0  0  0  0  0  0
    9.4607    7.5646   16.0139 C   0  0  0  0  0  0  0  0  0  0  0  0
   10.4192    7.3157   15.0955 C   0  0  0  0  0  0  0  0  0  0  0  0
   10.2489    6.4227   23.0218 N   0  0  0  0  0  0  0  0  0  0  0  0
    7.2472    8.0746   23.5050 C   0  0  0  0  0  0  0  0  0  0  0  0
    9.2051    6.9101   23.4604 C   0  0  0  0  0  0  0  0  0  0  0  0
   11.9646    6.0299   21.4251 C   0  0  0  0  0  0  0  0  0  0  0  0
  1  5  1  0
  1 13  1  0
  2 20  2  0
  2 28  1  0
  2 29  1  0
  3 19  4  0
  3 25  4  0
  4 23  4  0
  4 27  1  0
  4 30  4  0
  5 17  1  0
  6  8  1  0
  6 29  1  0
  7 24  4  0
  7 26  4  0
  8 28  1  0
  9 13  2  0
 10 18  1  0
 10 21  4  0
 10 30  4  0
 11 17  2  0
 12 18  1  0
 13 15  1  0
 14 24  1  0
 15 25  1  0
 16 28  2  0
 17 20  1  0
 19 24  4  0
 20 23  1  0
 21 22  4  0
 22 23  4  0
 25 26  4  0
 27 29  2  0
M  END
$$$$

 Created by Python create_sdf_string function

 30 33  0  0  0  0  0  0  0  0999 V2000
    8.3036    9.8571   18.4133 C   0  0  0  0  0  0  0  0  0  0  0  0
    8.3694    7.6612   22.6703 C   0  0  0  0  0  0  0  0  0  0  0  0
    8.4143    6.6863   16.2273 C   0  0  0  0  0  0  0  0  0  0  0  0
   10.7581    6.5674   21.7636 C   0  0  0  0  0  0  0  0  0  0  0  0
    8.4452    8.7960   19.2958 O   0  0  0  0  0  0  0  0  0  0  0  0
    8.7122    6.7842   24.8569 C   0  0  0  0  0  0  0  0  0  0  0  0
   10.3400    6.1726   14.3081 C   0  0  0  0  0  0  0  0  0  0  0  0
    7.4297    7.5873   24.8962 C   0  0  0  0  0  0  0  0  0  0  0  0
    8.1566   10.0536   16.0516 O   0  0  0  0  0  0  0  0  0  0  0  0
   12.4989    6.2074   20.1776 C   0  0  0  0  0  0  0  0  0  0  0  0
    6.9192    9.1053   20.9073 O   0  0  0  0  0  0  0  0  0  0  0  0
   14.3979    6.0729   18.7784 C   0  0  0  0  0  0  0  0  0  0  0  0
    8.6811    9.5354   16.9998 C   0  0  0  0  0  0  0  0  0  0  0  0
    9.2512    4.2713   13.7653 O   0  0  0  0  0  0  0  0  0  0  0  0
    9.6495    8.6317   16.8332 N   0  0  0  0  0  0  0  0  0  0  0  0
    6.2934    8.6988   23.1988 O   0  0  0  0  0  0  0  0  0  0  0  0
    7.9806    8.6543   20.5437 C   0  0  0  0  0  0  0  0  0  0  0  0
   13.7270    5.7144   19.8610 O   0  0  0  0  0  0  0  0  0  0  0  0
    8.3351    5.5235   15.4478 C   0  0  0  0  0  0  0  0  0  0  0  0
    8.7700    7.8434   21.3915 C   0  0  0  0  0  0  0  0  0  0  0  0
   11.7856    6.8851   19.2401 C   0  0  0  0  0  0  0  0  0  0  0  0
   10.5281    7.4276   19.5649 C   0  0  0  0  0  0  0  0  0  0  0  0
   10.0256    7.2907   20.8484 C   0  0  0  0  0  0  0  0  0  0  0  0
    9.3113    5.3049   14.4911 C   0  0  0  0  0  0  0  0  0  0  0  0
    9.4607    7.5646   16.0139 C   0  0  0  0  0  0  0  0  0  0  0  0
   10.4192    7.3157   15.0955 C   0  0  0  0  0  0  0  0  0  0  0  0
   10.2489    6.4227   23.0218 N   0  0  0  0  0  0  0  0  0  0  0  0
    7.2472    8.0746   23.5050 C   0  0  0  0  0  0  0  0  0  0  0  0
    9.2051    6.9101   23.4604 C   0  0  0  0  0  0  0  0  0  0  0  0
   11.9646    6.0299   21.4251 C   0  0  0  0  0  0  0  0  0  0  0  0
  1  5  1  0
  1 13  1  0
  2 20  2  0
  2 28  1  0
  2 29  1  0
  3 19  4  0
  3 25  4  0
  4 23  4  0
  4 27  1  0
  4 30  4  0
  5 17  1  0
  6  8  1  0
  6 29  1  0
  7 24  4  0
  7 26  4  0
  8 28  1  0
  9 13  2  0
 10 18  1  0
 10 21  4  0
 10 30  4  0
 11 17  2  0
 12 18  1  0
 13 15  1  0
 14 24  1  0
 15 25  1  0
 16 28  2  0
 17 20  1  0
 19 24  4  0
 20 23  1  0
 21 22  4  0
 22 23  4  0
 25 26  4  0
 27 29  2  0
M  END
$$$$

 Created by Python create_sdf_string function

 30 33  0  0  0  0  0  0  0  0999 V2000
    8.3036    9.8571   18.4133 C   0  0  0  0  0  0  0  0  0  0  0  0
    8.3694    7.6612   22.6703 C   0  0  0  0  0  0  0  0  0  0  0  0
    8.4143    6.6863   16.2273 C   0  0  0  0  0  0  0  0  0  0  0  0
   10.7581    6.5674   21.7636 C   0  0  0  0  0  0  0  0  0  0  0  0
    8.4452    8.7960   19.2958 O   0  0  0  0  0  0  0  0  0  0  0  0
    8.7122    6.7842   24.8569 C   0  0  0  0  0  0  0  0  0  0  0  0
   10.3400    6.1726   14.3081 C   0  0  0  0  0  0  0  0  0  0  0  0
    7.4297    7.5873   24.8962 C   0  0  0  0  0  0  0  0  0  0  0  0
    8.1566   10.0536   16.0516 O   0  0  0  0  0  0  0  0  0  0  0  0
   12.4989    6.2074   20.1776 C   0  0  0  0  0  0  0  0  0  0  0  0
    6.9192    9.1053   20.9073 O   0  0  0  0  0  0  0  0  0  0  0  0
   14.3979    6.0729   18.7784 C   0  0  0  0  0  0  0  0  0  0  0  0
    8.6811    9.5354   16.9998 C   0  0  0  0  0  0  0  0  0  0  0  0
    9.2512    4.2713   13.7653 O   0  0  0  0  0  0  0  0  0  0  0  0
    9.6495    8.6317   16.8332 N   0  0  0  0  0  0  0  0  0  0  0  0
    6.2934    8.6988   23.1988 O   0  0  0  0  0  0  0  0  0  0  0  0
    7.9806    8.6543   20.5437 C   0  0  0  0  0  0  0  0  0  0  0  0
   13.7270    5.7144   19.8610 O   0  0  0  0  0  0  0  0  0  0  0  0
    8.3351    5.5235   15.4478 C   0  0  0  0  0  0  0  0  0  0  0  0
    8.7700    7.8434   21.3915 C   0  0  0  0  0  0  0  0  0  0  0  0
   11.7856    6.8851   19.2401 C   0  0  0  0  0  0  0  0  0  0  0  0
   10.5281    7.4276   19.5649 C   0  0  0  0  0  0  0  0  0  0  0  0
   10.0256    7.2907   20.8484 C   0  0  0  0  0  0  0  0  0  0  0  0
    9.3113    5.3049   14.4911 C   0  0  0  0  0  0  0  0  0  0  0  0
    9.4607    7.5646   16.0139 C   0  0  0  0  0  0  0  0  0  0  0  0
   10.4192    7.3157   15.0955 C   0  0  0  0  0  0  0  0  0  0  0  0
   10.2489    6.4227   23.0218 N   0  0  0  0  0  0  0  0  0  0  0  0
    7.2472    8.0746   23.5050 C   0  0  0  0  0  0  0  0  0  0  0  0
    9.2051    6.9101   23.4604 C   0  0  0  0  0  0  0  0  0  0  0  0
   11.9646    6.0299   21.4251 C   0  0  0  0  0  0  0  0  0  0  0  0
  1  5  1  0
  1 13  1  0
  2 20  2  0
  2 28  1  0
  2 29  1  0
  3 19  4  0
  3 25  4  0
  4 23  4  0
  4 27  1  0
  4 30  4  0
  5 17  1  0
  6  8  1  0
  6 29  1  0
  7 24  4  0
  7 26  4  0
  8 28  1  0
  9 13  2  0
 10 18  1  0
 10 21  4  0
 10 30  4  0
 11 17  2  0
 12 18  1  0
 13 15  1  0
 14 24  1  0
 15 25  1  0
 16 28  2  0
 17 20  1  0
 19 24  4  0
 20 23  1  0
 21 22  4  0
 22 23  4  0
 25 26  4  0
 27 29  2  0
M  END
$$$$

 Created by Python create_sdf_string function

 30 33  0  0  0  0  0  0  0  0999 V2000
    8.3036    9.8571   18.4133 C   0  0  0  0  0  0  0  0  0  0  0  0
    8.3694    7.6612   22.6703 C   0  0  0  0  0  0  0  0  0  0  0  0
    8.4143    6.6863   16.2273 C   0  0  0  0  0  0  0  0  0  0  0  0
   10.7581    6.5674   21.7636 C   0  0  0  0  0  0  0  0  0  0  0  0
    8.4452    8.7960   19.2958 O   0  0  0  0  0  0  0  0  0  0  0  0
    8.7122    6.7842   24.8569 C   0  0  0  0  0  0  0  0  0  0  0  0
   10.3400    6.1726   14.3081 C   0  0  0  0  0  0  0  0  0  0  0  0
    7.4297    7.5873   24.8962 C   0  0  0  0  0  0  0  0  0  0  0  0
    8.1566   10.0536   16.0516 O   0  0  0  0  0  0  0  0  0  0  0  0
   12.4989    6.2074   20.1776 C   0  0  0  0  0  0  0  0  0  0  0  0
    6.9192    9.1053   20.9073 O   0  0  0  0  0  0  0  0  0  0  0  0
   14.3979    6.0729   18.7784 C   0  0  0  0  0  0  0  0  0  0  0  0
    8.6811    9.5354   16.9998 C   0  0  0  0  0  0  0  0  0  0  0  0
    9.2512    4.2713   13.7653 O   0  0  0  0  0  0  0  0  0  0  0  0
    9.6495    8.6317   16.8332 N   0  0  0  0  0  0  0  0  0  0  0  0
    6.2934    8.6988   23.1988 O   0  0  0  0  0  0  0  0  0  0  0  0
    7.9806    8.6543   20.5437 C   0  0  0  0  0  0  0  0  0  0  0  0
   13.7270    5.7144   19.8610 O   0  0  0  0  0  0  0  0  0  0  0  0
    8.3351    5.5235   15.4478 C   0  0  0  0  0  0  0  0  0  0  0  0
    8.7700    7.8434   21.3915 C   0  0  0  0  0  0  0  0  0  0  0  0
   11.7856    6.8851   19.2401 C   0  0  0  0  0  0  0  0  0  0  0  0
   10.5281    7.4276   19.5649 C   0  0  0  0  0  0  0  0  0  0  0  0
   10.0256    7.2907   20.8484 C   0  0  0  0  0  0  0  0  0  0  0  0
    9.3113    5.3049   14.4911 C   0  0  0  0  0  0  0  0  0  0  0  0
    9.4607    7.5646   16.0139 C   0  0  0  0  0  0  0  0  0  0  0  0
   10.4192    7.3157   15.0955 C   0  0  0  0  0  0  0  0  0  0  0  0
   10.2489    6.4227   23.0218 N   0  0  0  0  0  0  0  0  0  0  0  0
    7.2472    8.0746   23.5050 C   0  0  0  0  0  0  0  0  0  0  0  0
    9.2051    6.9101   23.4604 C   0  0  0  0  0  0  0  0  0  0  0  0
   11.9646    6.0299   21.4251 C   0  0  0  0  0  0  0  0  0  0  0  0
  1  5  1  0
  1 13  1  0
  2 20  2  0
  2 28  1  0
  2 29  1  0
  3 19  4  0
  3 25  4  0
  4 23  4  0
  4 27  1  0
  4 30  4  0
  5 17  1  0
  6  8  1  0
  6 29  1  0
  7 24  4  0
  7 26  4  0
  8 28  1  0
  9 13  2  0
 10 18  1  0
 10 21  4  0
 10 30  4  0
 11 17  2  0
 12 18  1  0
 13 15  1  0
 14 24  1  0
 15 25  1  0
 16 28  2  0
 17 20  1  0
 19 24  4  0
 20 23  1  0
 21 22  4  0
 22 23  4  0
 25 26  4  0
 27 29  2  0
M  END
$$$$

 Created by Python create_sdf_string function

 30 33  0  0  0  0  0  0  0  0999 V2000
    8.3036    9.8571   18.4133 C   0  0  0  0  0  0  0  0  0  0  0  0
    8.3694    7.6612   22.6703 C   0  0  0  0  0  0  0  0  0  0  0  0
    8.4143    6.6863   16.2273 C   0  0  0  0  0  0  0  0  0  0  0  0
   10.7581    6.5674   21.7636 C   0  0  0  0  0  0  0  0  0  0  0  0
    8.4452    8.7960   19.2958 O   0  0  0  0  0  0  0  0  0  0  0  0
    8.7122    6.7842   24.8569 C   0  0  0  0  0  0  0  0  0  0  0  0
   10.3400    6.1726   14.3081 C   0  0  0  0  0  0  0  0  0  0  0  0
    7.4297    7.5873   24.8962 C   0  0  0  0  0  0  0  0  0  0  0  0
    8.1566   10.0536   16.0516 O   0  0  0  0  0  0  0  0  0  0  0  0
   12.4989    6.2074   20.1776 C   0  0  0  0  0  0  0  0  0  0  0  0
    6.9192    9.1053   20.9073 O   0  0  0  0  0  0  0  0  0  0  0  0
   14.3979    6.0729   18.7784 C   0  0  0  0  0  0  0  0  0  0  0  0
    8.6811    9.5354   16.9998 C   0  0  0  0  0  0  0  0  0  0  0  0
    9.2512    4.2713   13.7653 O   0  0  0  0  0  0  0  0  0  0  0  0
    9.6495    8.6317   16.8332 N   0  0  0  0  0  0  0  0  0  0  0  0
    6.2934    8.6988   23.1988 O   0  0  0  0  0  0  0  0  0  0  0  0
    7.9806    8.6543   20.5437 C   0  0  0  0  0  0  0  0  0  0  0  0
   13.7270    5.7144   19.8610 O   0  0  0  0  0  0  0  0  0  0  0  0
    8.3351    5.5235   15.4478 C   0  0  0  0  0  0  0  0  0  0  0  0
    8.7700    7.8434   21.3915 C   0  0  0  0  0  0  0  0  0  0  0  0
   11.7856    6.8851   19.2401 C   0  0  0  0  0  0  0  0  0  0  0  0
   10.5281    7.4276   19.5649 C   0  0  0  0  0  0  0  0  0  0  0  0
   10.0256    7.2907   20.8484 C   0  0  0  0  0  0  0  0  0  0  0  0
    9.3113    5.3049   14.4911 C   0  0  0  0  0  0  0  0  0  0  0  0
    9.4607    7.5646   16.0139 C   0  0  0  0  0  0  0  0  0  0  0  0
   10.4192    7.3157   15.0955 C   0  0  0  0  0  0  0  0  0  0  0  0
   10.2489    6.4227   23.0218 N   0  0  0  0  0  0  0  0  0  0  0  0
    7.2472    8.0746   23.5050 C   0  0  0  0  0  0  0  0  0  0  0  0
    9.2051    6.9101   23.4604 C   0  0  0  0  0  0  0  0  0  0  0  0
   11.9646    6.0299   21.4251 C   0  0  0  0  0  0  0  0  0  0  0  0
  1  5  1  0
  1 13  1  0
  2 20  2  0
  2 28  1  0
  2 29  1  0
  3 19  4  0
  3 25  4  0
  4 23  4  0
  4 27  1  0
  4 30  4  0
  5 17  1  0
  6  8  1  0
  6 29  1  0
  7 24  4  0
  7 26  4  0
  8 28  1  0
  9 13  2  0
 10 18  1  0
 10 21  4  0
 10 30  4  0
 11 17  2  0
 12 18  1  0
 13 15  1  0
 14 24  1  0
 15 25  1  0
 16 28  2  0
 17 20  1  0
 19 24  4  0
 20 23  1  0
 21 22  4  0
 22 23  4  0
 25 26  4  0
 27 29  2  0
M  END
$$$$

 Created by Python create_sdf_string function

 30 33  0  0  0  0  0  0  0  0999 V2000
    8.3036    9.8571   18.4133 C   0  0  0  0  0  0  0  0  0  0  0  0
    8.3694    7.6612   22.6703 C   0  0  0  0  0  0  0  0  0  0  0  0
    8.4143    6.6863   16.2273 C   0  0  0  0  0  0  0  0  0  0  0  0
   10.7581    6.5674   21.7636 C   0  0  0  0  0  0  0  0  0  0  0  0
    8.4452    8.7960   19.2958 O   0  0  0  0  0  0  0  0  0  0  0  0
    8.7122    6.7842   24.8569 C   0  0  0  0  0  0  0  0  0  0  0  0
   10.3400    6.1726   14.3081 C   0  0  0  0  0  0  0  0  0  0  0  0
    7.4297    7.5873   24.8962 C   0  0  0  0  0  0  0  0  0  0  0  0
    8.1566   10.0536   16.0516 O   0  0  0  0  0  0  0  0  0  0  0  0
   12.4989    6.2074   20.1776 C   0  0  0  0  0  0  0  0  0  0  0  0
    6.9192    9.1053   20.9073 O   0  0  0  0  0  0  0  0  0  0  0  0
   14.3979    6.0729   18.7784 C   0  0  0  0  0  0  0  0  0  0  0  0
    8.6811    9.5354   16.9998 C   0  0  0  0  0  0  0  0  0  0  0  0
    9.2512    4.2713   13.7653 O   0  0  0  0  0  0  0  0  0  0  0  0
    9.6495    8.6317   16.8332 N   0  0  0  0  0  0  0  0  0  0  0  0
    6.2934    8.6988   23.1988 O   0  0  0  0  0  0  0  0  0  0  0  0
    7.9806    8.6543   20.5437 C   0  0  0  0  0  0  0  0  0  0  0  0
   13.7270    5.7144   19.8610 O   0  0  0  0  0  0  0  0  0  0  0  0
    8.3351    5.5235   15.4478 C   0  0  0  0  0  0  0  0  0  0  0  0
    8.7700    7.8434   21.3915 C   0  0  0  0  0  0  0  0  0  0  0  0
   11.7856    6.8851   19.2401 C   0  0  0  0  0  0  0  0  0  0  0  0
   10.5281    7.4276   19.5649 C   0  0  0  0  0  0  0  0  0  0  0  0
   10.0256    7.2907   20.8484 C   0  0  0  0  0  0  0  0  0  0  0  0
    9.3113    5.3049   14.4911 C   0  0  0  0  0  0  0  0  0  0  0  0
    9.4607    7.5646   16.0139 C   0  0  0  0  0  0  0  0  0  0  0  0
   10.4192    7.3157   15.0955 C   0  0  0  0  0  0  0  0  0  0  0  0
   10.2489    6.4227   23.0218 N   0  0  0  0  0  0  0  0  0  0  0  0
    7.2472    8.0746   23.5050 C   0  0  0  0  0  0  0  0  0  0  0  0
    9.2051    6.9101   23.4604 C   0  0  0  0  0  0  0  0  0  0  0  0
   11.9646    6.0299   21.4251 C   0  0  0  0  0  0  0  0  0  0  0  0
  1  5  1  0
  1 13  1  0
  2 20  2  0
  2 28  1  0
  2 29  1  0
  3 19  4  0
  3 25  4  0
  4 23  4  0
  4 27  1  0
  4 30  4  0
  5 17  1  0
  6  8  1  0
  6 29  1  0
  7 24  4  0
  7 26  4  0
  8 28  1  0
  9 13  2  0
 10 18  1  0
 10 21  4  0
 10 30  4  0
 11 17  2  0
 12 18  1  0
 13 15  1  0
 14 24  1  0
 15 25  1  0
 16 28  2  0
 17 20  1  0
 19 24  4  0
 20 23  1  0
 21 22  4  0
 22 23  4  0
 25 26  4  0
 27 29  2  0
M  END
$$$$

 Created by Python create_sdf_string function

 30 33  0  0  0  0  0  0  0  0999 V2000
    8.3036    9.8571   18.4133 C   0  0  0  0  0  0  0  0  0  0  0  0
    8.3694    7.6612   22.6703 C   0  0  0  0  0  0  0  0  0  0  0  0
    8.4143    6.6863   16.2273 C   0  0  0  0  0  0  0  0  0  0  0  0
   10.7581    6.5674   21.7636 C   0  0  0  0  0  0  0  0  0  0  0  0
    8.4452    8.7960   19.2958 O   0  0  0  0  0  0  0  0  0  0  0  0
    8.7122    6.7842   24.8569 C   0  0  0  0  0  0  0  0  0  0  0  0
   10.3400    6.1726   14.3081 C   0  0  0  0  0  0  0  0  0  0  0  0
    7.4297    7.5873   24.8962 C   0  0  0  0  0  0  0  0  0  0  0  0
    8.1566   10.0536   16.0516 O   0  0  0  0  0  0  0  0  0  0  0  0
   12.4989    6.2074   20.1776 C   0  0  0  0  0  0  0  0  0  0  0  0
    6.9192    9.1053   20.9073 O   0  0  0  0  0  0  0  0  0  0  0  0
   14.3979    6.0729   18.7784 C   0  0  0  0  0  0  0  0  0  0  0  0
    8.6811    9.5354   16.9998 C   0  0  0  0  0  0  0  0  0  0  0  0
    9.2512    4.2713   13.7653 O   0  0  0  0  0  0  0  0  0  0  0  0
    9.6495    8.6317   16.8332 N   0  0  0  0  0  0  0  0  0  0  0  0
    6.2934    8.6988   23.1988 O   0  0  0  0  0  0  0  0  0  0  0  0
    7.9806    8.6543   20.5437 C   0  0  0  0  0  0  0  0  0  0  0  0
   13.7270    5.7144   19.8610 O   0  0  0  0  0  0  0  0  0  0  0  0
    8.3351    5.5235   15.4478 C   0  0  0  0  0  0  0  0  0  0  0  0
    8.7700    7.8434   21.3915 C   0  0  0  0  0  0  0  0  0  0  0  0
   11.7856    6.8851   19.2401 C   0  0  0  0  0  0  0  0  0  0  0  0
   10.5281    7.4276   19.5649 C   0  0  0  0  0  0  0  0  0  0  0  0
   10.0256    7.2907   20.8484 C   0  0  0  0  0  0  0  0  0  0  0  0
    9.3113    5.3049   14.4911 C   0  0  0  0  0  0  0  0  0  0  0  0
    9.4607    7.5646   16.0139 C   0  0  0  0  0  0  0  0  0  0  0  0
   10.4192    7.3157   15.0955 C   0  0  0  0  0  0  0  0  0  0  0  0
   10.2489    6.4227   23.0218 N   0  0  0  0  0  0  0  0  0  0  0  0
    7.2472    8.0746   23.5050 C   0  0  0  0  0  0  0  0  0  0  0  0
    9.2051    6.9101   23.4604 C   0  0  0  0  0  0  0  0  0  0  0  0
   11.9646    6.0299   21.4251 C   0  0  0  0  0  0  0  0  0  0  0  0
  1  5  1  0
  1 13  1  0
  2 20  2  0
  2 28  1  0
  2 29  1  0
  3 19  4  0
  3 25  4  0
  4 23  4  0
  4 27  1  0
  4 30  4  0
  5 17  1  0
  6  8  1  0
  6 29  1  0
  7 24  4  0
  7 26  4  0
  8 28  1  0
  9 13  2  0
 10 18  1  0
 10 21  4  0
 10 30  4  0
 11 17  2  0
 12 18  1  0
 13 15  1  0
 14 24  1  0
 15 25  1  0
 16 28  2  0
 17 20  1  0
 19 24  4  0
 20 23  1  0
 21 22  4  0
 22 23  4  0
 25 26  4  0
 27 29  2  0
M  END
$$$$

 Created by Python create_sdf_string function

 30 33  0  0  0  0  0  0  0  0999 V2000
    8.3036    9.8571   18.4133 C   0  0  0  0  0  0  0  0  0  0  0  0
    8.3694    7.6612   22.6703 C   0  0  0  0  0  0  0  0  0  0  0  0
    8.4143    6.6863   16.2273 C   0  0  0  0  0  0  0  0  0  0  0  0
   10.7581    6.5674   21.7636 C   0  0  0  0  0  0  0  0  0  0  0  0
    8.4452    8.7960   19.2958 O   0  0  0  0  0  0  0  0  0  0  0  0
    8.7122    6.7842   24.8569 C   0  0  0  0  0  0  0  0  0  0  0  0
   10.3400    6.1726   14.3081 C   0  0  0  0  0  0  0  0  0  0  0  0
    7.4297    7.5873   24.8962 C   0  0  0  0  0  0  0  0  0  0  0  0
    8.1566   10.0536   16.0516 O   0  0  0  0  0  0  0  0  0  0  0  0
   12.4989    6.2074   20.1776 C   0  0  0  0  0  0  0  0  0  0  0  0
    6.9192    9.1053   20.9073 O   0  0  0  0  0  0  0  0  0  0  0  0
   14.3979    6.0729   18.7784 C   0  0  0  0  0  0  0  0  0  0  0  0
    8.6811    9.5354   16.9998 C   0  0  0  0  0  0  0  0  0  0  0  0
    9.2512    4.2713   13.7653 O   0  0  0  0  0  0  0  0  0  0  0  0
    9.6495    8.6317   16.8332 N   0  0  0  0  0  0  0  0  0  0  0  0
    6.2934    8.6988   23.1988 O   0  0  0  0  0  0  0  0  0  0  0  0
    7.9806    8.6543   20.5437 C   0  0  0  0  0  0  0  0  0  0  0  0
   13.7270    5.7144   19.8610 O   0  0  0  0  0  0  0  0  0  0  0  0
    8.3351    5.5235   15.4478 C   0  0  0  0  0  0  0  0  0  0  0  0
    8.7700    7.8434   21.3915 C   0  0  0  0  0  0  0  0  0  0  0  0
   11.7856    6.8851   19.2401 C   0  0  0  0  0  0  0  0  0  0  0  0
   10.5281    7.4276   19.5649 C   0  0  0  0  0  0  0  0  0  0  0  0
   10.0256    7.2907   20.8484 C   0  0  0  0  0  0  0  0  0  0  0  0
    9.3113    5.3049   14.4911 C   0  0  0  0  0  0  0  0  0  0  0  0
    9.4607    7.5646   16.0139 C   0  0  0  0  0  0  0  0  0  0  0  0
   10.4192    7.3157   15.0955 C   0  0  0  0  0  0  0  0  0  0  0  0
   10.2489    6.4227   23.0218 N   0  0  0  0  0  0  0  0  0  0  0  0
    7.2472    8.0746   23.5050 C   0  0  0  0  0  0  0  0  0  0  0  0
    9.2051    6.9101   23.4604 C   0  0  0  0  0  0  0  0  0  0  0  0
   11.9646    6.0299   21.4251 C   0  0  0  0  0  0  0  0  0  0  0  0
  1  5  1  0
  1 13  1  0
  2 20  2  0
  2 28  1  0
  2 29  1  0
  3 19  4  0
  3 25  4  0
  4 23  4  0
  4 27  1  0
  4 30  4  0
  5 17  1  0
  6  8  1  0
  6 29  1  0
  7 24  4  0
  7 26  4  0
  8 28  1  0
  9 13  2  0
 10 18  1  0
 10 21  4  0
 10 30  4  0
 11 17  2  0
 12 18  1  0
 13 15  1  0
 14 24  1  0
 15 25  1  0
 16 28  2  0
 17 20  1  0
 19 24  4  0
 20 23  1  0
 21 22  4  0
 22 23  4  0
 25 26  4  0
 27 29  2  0
M  END
$$$$

 Created by Python create_sdf_string function

 30 33  0  0  0  0  0  0  0  0999 V2000
    8.3036    9.8571   18.4133 C   0  0  0  0  0  0  0  0  0  0  0  0
    8.3694    7.6612   22.6703 C   0  0  0  0  0  0  0  0  0  0  0  0
    8.4143    6.6863   16.2273 C   0  0  0  0  0  0  0  0  0  0  0  0
   10.7581    6.5674   21.7636 C   0  0  0  0  0  0  0  0  0  0  0  0
    8.4452    8.7960   19.2958 O   0  0  0  0  0  0  0  0  0  0  0  0
    8.7122    6.7842   24.8569 C   0  0  0  0  0  0  0  0  0  0  0  0
   10.3400    6.1726   14.3081 C   0  0  0  0  0  0  0  0  0  0  0  0
    7.4297    7.5873   24.8962 C   0  0  0  0  0  0  0  0  0  0  0  0
    8.1566   10.0536   16.0516 O   0  0  0  0  0  0  0  0  0  0  0  0
   12.4989    6.2074   20.1776 C   0  0  0  0  0  0  0  0  0  0  0  0
    6.9192    9.1053   20.9073 O   0  0  0  0  0  0  0  0  0  0  0  0
   14.3979    6.0729   18.7784 C   0  0  0  0  0  0  0  0  0  0  0  0
    8.6811    9.5354   16.9998 C   0  0  0  0  0  0  0  0  0  0  0  0
    9.2512    4.2713   13.7653 O   0  0  0  0  0  0  0  0  0  0  0  0
    9.6495    8.6317   16.8332 N   0  0  0  0  0  0  0  0  0  0  0  0
    6.2934    8.6988   23.1988 O   0  0  0  0  0  0  0  0  0  0  0  0
    7.9806    8.6543   20.5437 C   0  0  0  0  0  0  0  0  0  0  0  0
   13.7270    5.7144   19.8610 O   0  0  0  0  0  0  0  0  0  0  0  0
    8.3351    5.5235   15.4478 C   0  0  0  0  0  0  0  0  0  0  0  0
    8.7700    7.8434   21.3915 C   0  0  0  0  0  0  0  0  0  0  0  0
   11.7856    6.8851   19.2401 C   0  0  0  0  0  0  0  0  0  0  0  0
   10.5281    7.4276   19.5649 C   0  0  0  0  0  0  0  0  0  0  0  0
   10.0256    7.2907   20.8484 C   0  0  0  0  0  0  0  0  0  0  0  0
    9.3113    5.3049   14.4911 C   0  0  0  0  0  0  0  0  0  0  0  0
    9.4607    7.5646   16.0139 C   0  0  0  0  0  0  0  0  0  0  0  0
   10.4192    7.3157   15.0955 C   0  0  0  0  0  0  0  0  0  0  0  0
   10.2489    6.4227   23.0218 N   0  0  0  0  0  0  0  0  0  0  0  0
    7.2472    8.0746   23.5050 C   0  0  0  0  0  0  0  0  0  0  0  0
    9.2051    6.9101   23.4604 C   0  0  0  0  0  0  0  0  0  0  0  0
   11.9646    6.0299   21.4251 C   0  0  0  0  0  0  0  0  0  0  0  0
  1  5  1  0
  1 13  1  0
  2 20  2  0
  2 28  1  0
  2 29  1  0
  3 19  4  0
  3 25  4  0
  4 23  4  0
  4 27  1  0
  4 30  4  0
  5 17  1  0
  6  8  1  0
  6 29  1  0
  7 24  4  0
  7 26  4  0
  8 28  1  0
  9 13  2  0
 10 18  1  0
 10 21  4  0
 10 30  4  0
 11 17  2  0
 12 18  1  0
 13 15  1  0
 14 24  1  0
 15 25  1  0
 16 28  2  0
 17 20  1  0
 19 24  4  0
 20 23  1  0
 21 22  4  0
 22 23  4  0
 25 26  4  0
 27 29  2  0
M  END
$$$$

 Created by Python create_sdf_string function

 30 33  0  0  0  0  0  0  0  0999 V2000
    8.3036    9.8571   18.4133 C   0  0  0  0  0  0  0  0  0  0  0  0
    8.3694    7.6612   22.6703 C   0  0  0  0  0  0  0  0  0  0  0  0
    8.4143    6.6863   16.2273 C   0  0  0  0  0  0  0  0  0  0  0  0
   10.7581    6.5674   21.7636 C   0  0  0  0  0  0  0  0  0  0  0  0
    8.4452    8.7960   19.2958 O   0  0  0  0  0  0  0  0  0  0  0  0
    8.7122    6.7842   24.8569 C   0  0  0  0  0  0  0  0  0  0  0  0
   10.3400    6.1726   14.3081 C   0  0  0  0  0  0  0  0  0  0  0  0
    7.4297    7.5873   24.8962 C   0  0  0  0  0  0  0  0  0  0  0  0
    8.1566   10.0536   16.0516 O   0  0  0  0  0  0  0  0  0  0  0  0
   12.4989    6.2074   20.1776 C   0  0  0  0  0  0  0  0  0  0  0  0
    6.9192    9.1053   20.9073 O   0  0  0  0  0  0  0  0  0  0  0  0
   14.3979    6.0729   18.7784 C   0  0  0  0  0  0  0  0  0  0  0  0
    8.6811    9.5354   16.9998 C   0  0  0  0  0  0  0  0  0  0  0  0
    9.2512    4.2713   13.7653 O   0  0  0  0  0  0  0  0  0  0  0  0
    9.6495    8.6317   16.8332 N   0  0  0  0  0  0  0  0  0  0  0  0
    6.2934    8.6988   23.1988 O   0  0  0  0  0  0  0  0  0  0  0  0
    7.9806    8.6543   20.5437 C   0  0  0  0  0  0  0  0  0  0  0  0
   13.7270    5.7144   19.8610 O   0  0  0  0  0  0  0  0  0  0  0  0
    8.3351    5.5235   15.4478 C   0  0  0  0  0  0  0  0  0  0  0  0
    8.7700    7.8434   21.3915 C   0  0  0  0  0  0  0  0  0  0  0  0
   11.7856    6.8851   19.2401 C   0  0  0  0  0  0  0  0  0  0  0  0
   10.5281    7.4276   19.5649 C   0  0  0  0  0  0  0  0  0  0  0  0
   10.0256    7.2907   20.8484 C   0  0  0  0  0  0  0  0  0  0  0  0
    9.3113    5.3049   14.4911 C   0  0  0  0  0  0  0  0  0  0  0  0
    9.4607    7.5646   16.0139 C   0  0  0  0  0  0  0  0  0  0  0  0
   10.4192    7.3157   15.0955 C   0  0  0  0  0  0  0  0  0  0  0  0
   10.2489    6.4227   23.0218 N   0  0  0  0  0  0  0  0  0  0  0  0
    7.2472    8.0746   23.5050 C   0  0  0  0  0  0  0  0  0  0  0  0
    9.2051    6.9101   23.4604 C   0  0  0  0  0  0  0  0  0  0  0  0
   11.9646    6.0299   21.4251 C   0  0  0  0  0  0  0  0  0  0  0  0
  1  5  1  0
  1 13  1  0
  2 20  2  0
  2 28  1  0
  2 29  1  0
  3 19  4  0
  3 25  4  0
  4 23  4  0
  4 27  1  0
  4 30  4  0
  5 17  1  0
  6  8  1  0
  6 29  1  0
  7 24  4  0
  7 26  4  0
  8 28  1  0
  9 13  2  0
 10 18  1  0
 10 21  4  0
 10 30  4  0
 11 17  2  0
 12 18  1  0
 13 15  1  0
 14 24  1  0
 15 25  1  0
 16 28  2  0
 17 20  1  0
 19 24  4  0
 20 23  1  0
 21 22  4  0
 22 23  4  0
 25 26  4  0
 27 29  2  0
M  END
$$$$

 Created by Python create_sdf_string function

 30 33  0  0  0  0  0  0  0  0999 V2000
    8.3036    9.8571   18.4133 C   0  0  0  0  0  0  0  0  0  0  0  0
    8.3694    7.6612   22.6703 C   0  0  0  0  0  0  0  0  0  0  0  0
    8.4143    6.6863   16.2273 C   0  0  0  0  0  0  0  0  0  0  0  0
   10.7581    6.5674   21.7636 C   0  0  0  0  0  0  0  0  0  0  0  0
    8.4452    8.7960   19.2958 O   0  0  0  0  0  0  0  0  0  0  0  0
    8.7122    6.7842   24.8569 C   0  0  0  0  0  0  0  0  0  0  0  0
   10.3400    6.1726   14.3081 C   0  0  0  0  0  0  0  0  0  0  0  0
    7.4297    7.5873   24.8962 C   0  0  0  0  0  0  0  0  0  0  0  0
    8.1566   10.0536   16.0516 O   0  0  0  0  0  0  0  0  0  0  0  0
   12.4989    6.2074   20.1776 C   0  0  0  0  0  0  0  0  0  0  0  0
    6.9192    9.1053   20.9073 O   0  0  0  0  0  0  0  0  0  0  0  0
   14.3979    6.0729   18.7784 C   0  0  0  0  0  0  0  0  0  0  0  0
    8.6811    9.5354   16.9998 C   0  0  0  0  0  0  0  0  0  0  0  0
    9.2512    4.2713   13.7653 O   0  0  0  0  0  0  0  0  0  0  0  0
    9.6495    8.6317   16.8332 N   0  0  0  0  0  0  0  0  0  0  0  0
    6.2934    8.6988   23.1988 O   0  0  0  0  0  0  0  0  0  0  0  0
    7.9806    8.6543   20.5437 C   0  0  0  0  0  0  0  0  0  0  0  0
   13.7270    5.7144   19.8610 O   0  0  0  0  0  0  0  0  0  0  0  0
    8.3351    5.5235   15.4478 C   0  0  0  0  0  0  0  0  0  0  0  0
    8.7700    7.8434   21.3915 C   0  0  0  0  0  0  0  0  0  0  0  0
   11.7856    6.8851   19.2401 C   0  0  0  0  0  0  0  0  0  0  0  0
   10.5281    7.4276   19.5649 C   0  0  0  0  0  0  0  0  0  0  0  0
   10.0256    7.2907   20.8484 C   0  0  0  0  0  0  0  0  0  0  0  0
    9.3113    5.3049   14.4911 C   0  0  0  0  0  0  0  0  0  0  0  0
    9.4607    7.5646   16.0139 C   0  0  0  0  0  0  0  0  0  0  0  0
   10.4192    7.3157   15.0955 C   0  0  0  0  0  0  0  0  0  0  0  0
   10.2489    6.4227   23.0218 N   0  0  0  0  0  0  0  0  0  0  0  0
    7.2472    8.0746   23.5050 C   0  0  0  0  0  0  0  0  0  0  0  0
    9.2051    6.9101   23.4604 C   0  0  0  0  0  0  0  0  0  0  0  0
   11.9646    6.0299   21.4251 C   0  0  0  0  0  0  0  0  0  0  0  0
  1  5  1  0
  1 13  1  0
  2 20  2  0
  2 28  1  0
  2 29  1  0
  3 19  4  0
  3 25  4  0
  4 23  4  0
  4 27  1  0
  4 30  4  0
  5 17  1  0
  6  8  1  0
  6 29  1  0
  7 24  4  0
  7 26  4  0
  8 28  1  0
  9 13  2  0
 10 18  1  0
 10 21  4  0
 10 30  4  0
 11 17  2  0
 12 18  1  0
 13 15  1  0
 14 24  1  0
 15 25  1  0
 16 28  2  0
 17 20  1  0
 19 24  4  0
 20 23  1  0
 21 22  4  0
 22 23  4  0
 25 26  4  0
 27 29  2  0
M  END
$$$$

 Created by Python create_sdf_string function

 30 33  0  0  0  0  0  0  0  0999 V2000
    8.3036    9.8571   18.4133 C   0  0  0  0  0  0  0  0  0  0  0  0
    8.3694    7.6612   22.6703 C   0  0  0  0  0  0  0  0  0  0  0  0
    8.4143    6.6863   16.2273 C   0  0  0  0  0  0  0  0  0  0  0  0
   10.7581    6.5674   21.7636 C   0  0  0  0  0  0  0  0  0  0  0  0
    8.4452    8.7960   19.2958 O   0  0  0  0  0  0  0  0  0  0  0  0
    8.7122    6.7842   24.8569 C   0  0  0  0  0  0  0  0  0  0  0  0
   10.3400    6.1726   14.3081 C   0  0  0  0  0  0  0  0  0  0  0  0
    7.4297    7.5873   24.8962 C   0  0  0  0  0  0  0  0  0  0  0  0
    8.1566   10.0536   16.0516 O   0  0  0  0  0  0  0  0  0  0  0  0
   12.4989    6.2074   20.1776 C   0  0  0  0  0  0  0  0  0  0  0  0
    6.9192    9.1053   20.9073 O   0  0  0  0  0  0  0  0  0  0  0  0
   14.3979    6.0729   18.7784 C   0  0  0  0  0  0  0  0  0  0  0  0
    8.6811    9.5354   16.9998 C   0  0  0  0  0  0  0  0  0  0  0  0
    9.2512    4.2713   13.7653 O   0  0  0  0  0  0  0  0  0  0  0  0
    9.6495    8.6317   16.8332 N   0  0  0  0  0  0  0  0  0  0  0  0
    6.2934    8.6988   23.1988 O   0  0  0  0  0  0  0  0  0  0  0  0
    7.9806    8.6543   20.5437 C   0  0  0  0  0  0  0  0  0  0  0  0
   13.7270    5.7144   19.8610 O   0  0  0  0  0  0  0  0  0  0  0  0
    8.3351    5.5235   15.4478 C   0  0  0  0  0  0  0  0  0  0  0  0
    8.7700    7.8434   21.3915 C   0  0  0  0  0  0  0  0  0  0  0  0
   11.7856    6.8851   19.2401 C   0  0  0  0  0  0  0  0  0  0  0  0
   10.5281    7.4276   19.5649 C   0  0  0  0  0  0  0  0  0  0  0  0
   10.0256    7.2907   20.8484 C   0  0  0  0  0  0  0  0  0  0  0  0
    9.3113    5.3049   14.4911 C   0  0  0  0  0  0  0  0  0  0  0  0
    9.4607    7.5646   16.0139 C   0  0  0  0  0  0  0  0  0  0  0  0
   10.4192    7.3157   15.0955 C   0  0  0  0  0  0  0  0  0  0  0  0
   10.2489    6.4227   23.0218 N   0  0  0  0  0  0  0  0  0  0  0  0
    7.2472    8.0746   23.5050 C   0  0  0  0  0  0  0  0  0  0  0  0
    9.2051    6.9101   23.4604 C   0  0  0  0  0  0  0  0  0  0  0  0
   11.9646    6.0299   21.4251 C   0  0  0  0  0  0  0  0  0  0  0  0
  1  5  1  0
  1 13  1  0
  2 20  2  0
  2 28  1  0
  2 29  1  0
  3 19  4  0
  3 25  4  0
  4 23  4  0
  4 27  1  0
  4 30  4  0
  5 17  1  0
  6  8  1  0
  6 29  1  0
  7 24  4  0
  7 26  4  0
  8 28  1  0
  9 13  2  0
 10 18  1  0
 10 21  4  0
 10 30  4  0
 11 17  2  0
 12 18  1  0
 13 15  1  0
 14 24  1  0
 15 25  1  0
 16 28  2  0
 17 20  1  0
 19 24  4  0
 20 23  1  0
 21 22  4  0
 22 23  4  0
 25 26  4  0
 27 29  2  0
M  END
$$$$

 Created by Python create_sdf_string function

 30 33  0  0  0  0  0  0  0  0999 V2000
    8.3036    9.8571   18.4133 C   0  0  0  0  0  0  0  0  0  0  0  0
    8.3694    7.6612   22.6703 C   0  0  0  0  0  0  0  0  0  0  0  0
    8.4143    6.6863   16.2273 C   0  0  0  0  0  0  0  0  0  0  0  0
   10.7581    6.5674   21.7636 C   0  0  0  0  0  0  0  0  0  0  0  0
    8.4452    8.7960   19.2958 O   0  0  0  0  0  0  0  0  0  0  0  0
    8.7122    6.7842   24.8569 C   0  0  0  0  0  0  0  0  0  0  0  0
   10.3400    6.1726   14.3081 C   0  0  0  0  0  0  0  0  0  0  0  0
    7.4297    7.5873   24.8962 C   0  0  0  0  0  0  0  0  0  0  0  0
    8.1566   10.0536   16.0516 O   0  0  0  0  0  0  0  0  0  0  0  0
   12.4989    6.2074   20.1776 C   0  0  0  0  0  0  0  0  0  0  0  0
    6.9192    9.1053   20.9073 O   0  0  0  0  0  0  0  0  0  0  0  0
   14.3979    6.0729   18.7784 C   0  0  0  0  0  0  0  0  0  0  0  0
    8.6811    9.5354   16.9998 C   0  0  0  0  0  0  0  0  0  0  0  0
    9.2512    4.2713   13.7653 O   0  0  0  0  0  0  0  0  0  0  0  0
    9.6495    8.6317   16.8332 N   0  0  0  0  0  0  0  0  0  0  0  0
    6.2934    8.6988   23.1988 O   0  0  0  0  0  0  0  0  0  0  0  0
    7.9806    8.6543   20.5437 C   0  0  0  0  0  0  0  0  0  0  0  0
   13.7270    5.7144   19.8610 O   0  0  0  0  0  0  0  0  0  0  0  0
    8.3351    5.5235   15.4478 C   0  0  0  0  0  0  0  0  0  0  0  0
    8.7700    7.8434   21.3915 C   0  0  0  0  0  0  0  0  0  0  0  0
   11.7856    6.8851   19.2401 C   0  0  0  0  0  0  0  0  0  0  0  0
   10.5281    7.4276   19.5649 C   0  0  0  0  0  0  0  0  0  0  0  0
   10.0256    7.2907   20.8484 C   0  0  0  0  0  0  0  0  0  0  0  0
    9.3113    5.3049   14.4911 C   0  0  0  0  0  0  0  0  0  0  0  0
    9.4607    7.5646   16.0139 C   0  0  0  0  0  0  0  0  0  0  0  0
   10.4192    7.3157   15.0955 C   0  0  0  0  0  0  0  0  0  0  0  0
   10.2489    6.4227   23.0218 N   0  0  0  0  0  0  0  0  0  0  0  0
    7.2472    8.0746   23.5050 C   0  0  0  0  0  0  0  0  0  0  0  0
    9.2051    6.9101   23.4604 C   0  0  0  0  0  0  0  0  0  0  0  0
   11.9646    6.0299   21.4251 C   0  0  0  0  0  0  0  0  0  0  0  0
  1  5  1  0
  1 13  1  0
  2 20  2  0
  2 28  1  0
  2 29  1  0
  3 19  4  0
  3 25  4  0
  4 23  4  0
  4 27  1  0
  4 30  4  0
  5 17  1  0
  6  8  1  0
  6 29  1  0
  7 24  4  0
  7 26  4  0
  8 28  1  0
  9 13  2  0
 10 18  1  0
 10 21  4  0
 10 30  4  0
 11 17  2  0
 12 18  1  0
 13 15  1  0
 14 24  1  0
 15 25  1  0
 16 28  2  0
 17 20  1  0
 19 24  4  0
 20 23  1  0
 21 22  4  0
 22 23  4  0
 25 26  4  0
 27 29  2  0
M  END
$$$$

 Created by Python create_sdf_string function

 30 33  0  0  0  0  0  0  0  0999 V2000
    8.3036    9.8571   18.4133 C   0  0  0  0  0  0  0  0  0  0  0  0
    8.3694    7.6612   22.6703 C   0  0  0  0  0  0  0  0  0  0  0  0
    8.4143    6.6863   16.2273 C   0  0  0  0  0  0  0  0  0  0  0  0
   10.7581    6.5674   21.7636 C   0  0  0  0  0  0  0  0  0  0  0  0
    8.4452    8.7960   19.2958 O   0  0  0  0  0  0  0  0  0  0  0  0
    8.7122    6.7842   24.8569 C   0  0  0  0  0  0  0  0  0  0  0  0
   10.3400    6.1726   14.3081 C   0  0  0  0  0  0  0  0  0  0  0  0
    7.4297    7.5873   24.8962 C   0  0  0  0  0  0  0  0  0  0  0  0
    8.1566   10.0536   16.0516 O   0  0  0  0  0  0  0  0  0  0  0  0
   12.4989    6.2074   20.1776 C   0  0  0  0  0  0  0  0  0  0  0  0
    6.9192    9.1053   20.9073 O   0  0  0  0  0  0  0  0  0  0  0  0
   14.3979    6.0729   18.7784 C   0  0  0  0  0  0  0  0  0  0  0  0
    8.6811    9.5354   16.9998 C   0  0  0  0  0  0  0  0  0  0  0  0
    9.2512    4.2713   13.7653 O   0  0  0  0  0  0  0  0  0  0  0  0
    9.6495    8.6317   16.8332 N   0  0  0  0  0  0  0  0  0  0  0  0
    6.2934    8.6988   23.1988 O   0  0  0  0  0  0  0  0  0  0  0  0
    7.9806    8.6543   20.5437 C   0  0  0  0  0  0  0  0  0  0  0  0
   13.7270    5.7144   19.8610 O   0  0  0  0  0  0  0  0  0  0  0  0
    8.3351    5.5235   15.4478 C   0  0  0  0  0  0  0  0  0  0  0  0
    8.7700    7.8434   21.3915 C   0  0  0  0  0  0  0  0  0  0  0  0
   11.7856    6.8851   19.2401 C   0  0  0  0  0  0  0  0  0  0  0  0
   10.5281    7.4276   19.5649 C   0  0  0  0  0  0  0  0  0  0  0  0
   10.0256    7.2907   20.8484 C   0  0  0  0  0  0  0  0  0  0  0  0
    9.3113    5.3049   14.4911 C   0  0  0  0  0  0  0  0  0  0  0  0
    9.4607    7.5646   16.0139 C   0  0  0  0  0  0  0  0  0  0  0  0
   10.4192    7.3157   15.0955 C   0  0  0  0  0  0  0  0  0  0  0  0
   10.2489    6.4227   23.0218 N   0  0  0  0  0  0  0  0  0  0  0  0
    7.2472    8.0746   23.5050 C   0  0  0  0  0  0  0  0  0  0  0  0
    9.2051    6.9101   23.4604 C   0  0  0  0  0  0  0  0  0  0  0  0
   11.9646    6.0299   21.4251 C   0  0  0  0  0  0  0  0  0  0  0  0
  1  5  1  0
  1 13  1  0
  2 20  2  0
  2 28  1  0
  2 29  1  0
  3 19  4  0
  3 25  4  0
  4 23  4  0
  4 27  1  0
  4 30  4  0
  5 17  1  0
  6  8  1  0
  6 29  1  0
  7 24  4  0
  7 26  4  0
  8 28  1  0
  9 13  2  0
 10 18  1  0
 10 21  4  0
 10 30  4  0
 11 17  2  0
 12 18  1  0
 13 15  1  0
 14 24  1  0
 15 25  1  0
 16 28  2  0
 17 20  1  0
 19 24  4  0
 20 23  1  0
 21 22  4  0
 22 23  4  0
 25 26  4  0
 27 29  2  0
M  END
$$$$

 Created by Python create_sdf_string function

 30 33  0  0  0  0  0  0  0  0999 V2000
    8.3036    9.8571   18.4133 C   0  0  0  0  0  0  0  0  0  0  0  0
    8.3694    7.6612   22.6703 C   0  0  0  0  0  0  0  0  0  0  0  0
    8.4143    6.6863   16.2273 C   0  0  0  0  0  0  0  0  0  0  0  0
   10.7581    6.5674   21.7636 C   0  0  0  0  0  0  0  0  0  0  0  0
    8.4452    8.7960   19.2958 O   0  0  0  0  0  0  0  0  0  0  0  0
    8.7122    6.7842   24.8569 C   0  0  0  0  0  0  0  0  0  0  0  0
   10.3400    6.1726   14.3081 C   0  0  0  0  0  0  0  0  0  0  0  0
    7.4297    7.5873   24.8962 C   0  0  0  0  0  0  0  0  0  0  0  0
    8.1566   10.0536   16.0516 O   0  0  0  0  0  0  0  0  0  0  0  0
   12.4989    6.2074   20.1776 C   0  0  0  0  0  0  0  0  0  0  0  0
    6.9192    9.1053   20.9073 O   0  0  0  0  0  0  0  0  0  0  0  0
   14.3979    6.0729   18.7784 C   0  0  0  0  0  0  0  0  0  0  0  0
    8.6811    9.5354   16.9998 C   0  0  0  0  0  0  0  0  0  0  0  0
    9.2512    4.2713   13.7653 O   0  0  0  0  0  0  0  0  0  0  0  0
    9.6495    8.6317   16.8332 N   0  0  0  0  0  0  0  0  0  0  0  0
    6.2934    8.6988   23.1988 O   0  0  0  0  0  0  0  0  0  0  0  0
    7.9806    8.6543   20.5437 C   0  0  0  0  0  0  0  0  0  0  0  0
   13.7270    5.7144   19.8610 O   0  0  0  0  0  0  0  0  0  0  0  0
    8.3351    5.5235   15.4478 C   0  0  0  0  0  0  0  0  0  0  0  0
    8.7700    7.8434   21.3915 C   0  0  0  0  0  0  0  0  0  0  0  0
   11.7856    6.8851   19.2401 C   0  0  0  0  0  0  0  0  0  0  0  0
   10.5281    7.4276   19.5649 C   0  0  0  0  0  0  0  0  0  0  0  0
   10.0256    7.2907   20.8484 C   0  0  0  0  0  0  0  0  0  0  0  0
    9.3113    5.3049   14.4911 C   0  0  0  0  0  0  0  0  0  0  0  0
    9.4607    7.5646   16.0139 C   0  0  0  0  0  0  0  0  0  0  0  0
   10.4192    7.3157   15.0955 C   0  0  0  0  0  0  0  0  0  0  0  0
   10.2489    6.4227   23.0218 N   0  0  0  0  0  0  0  0  0  0  0  0
    7.2472    8.0746   23.5050 C   0  0  0  0  0  0  0  0  0  0  0  0
    9.2051    6.9101   23.4604 C   0  0  0  0  0  0  0  0  0  0  0  0
   11.9646    6.0299   21.4251 C   0  0  0  0  0  0  0  0  0  0  0  0
  1  5  1  0
  1 13  1  0
  2 20  2  0
  2 28  1  0
  2 29  1  0
  3 19  4  0
  3 25  4  0
  4 23  4  0
  4 27  1  0
  4 30  4  0
  5 17  1  0
  6  8  1  0
  6 29  1  0
  7 24  4  0
  7 26  4  0
  8 28  1  0
  9 13  2  0
 10 18  1  0
 10 21  4  0
 10 30  4  0
 11 17  2  0
 12 18  1  0
 13 15  1  0
 14 24  1  0
 15 25  1  0
 16 28  2  0
 17 20  1  0
 19 24  4  0
 20 23  1  0
 21 22  4  0
 22 23  4  0
 25 26  4  0
 27 29  2  0
M  END
$$$$

 Created by Python create_sdf_string function

 30 33  0  0  0  0  0  0  0  0999 V2000
    8.3036    9.8571   18.4133 C   0  0  0  0  0  0  0  0  0  0  0  0
    8.3694    7.6612   22.6703 C   0  0  0  0  0  0  0  0  0  0  0  0
    8.4143    6.6863   16.2273 C   0  0  0  0  0  0  0  0  0  0  0  0
   10.7581    6.5674   21.7636 C   0  0  0  0  0  0  0  0  0  0  0  0
    8.4452    8.7960   19.2958 O   0  0  0  0  0  0  0  0  0  0  0  0
    8.7122    6.7842   24.8569 C   0  0  0  0  0  0  0  0  0  0  0  0
   10.3400    6.1726   14.3081 C   0  0  0  0  0  0  0  0  0  0  0  0
    7.4297    7.5873   24.8962 C   0  0  0  0  0  0  0  0  0  0  0  0
    8.1566   10.0536   16.0516 O   0  0  0  0  0  0  0  0  0  0  0  0
   12.4989    6.2074   20.1776 C   0  0  0  0  0  0  0  0  0  0  0  0
    6.9192    9.1053   20.9073 O   0  0  0  0  0  0  0  0  0  0  0  0
   14.3979    6.0729   18.7784 C   0  0  0  0  0  0  0  0  0  0  0  0
    8.6811    9.5354   16.9998 C   0  0  0  0  0  0  0  0  0  0  0  0
    9.2512    4.2713   13.7653 O   0  0  0  0  0  0  0  0  0  0  0  0
    9.6495    8.6317   16.8332 N   0  0  0  0  0  0  0  0  0  0  0  0
    6.2934    8.6988   23.1988 O   0  0  0  0  0  0  0  0  0  0  0  0
    7.9806    8.6543   20.5437 C   0  0  0  0  0  0  0  0  0  0  0  0
   13.7270    5.7144   19.8610 O   0  0  0  0  0  0  0  0  0  0  0  0
    8.3351    5.5235   15.4478 C   0  0  0  0  0  0  0  0  0  0  0  0
    8.7700    7.8434   21.3915 C   0  0  0  0  0  0  0  0  0  0  0  0
   11.7856    6.8851   19.2401 C   0  0  0  0  0  0  0  0  0  0  0  0
   10.5281    7.4276   19.5649 C   0  0  0  0  0  0  0  0  0  0  0  0
   10.0256    7.2907   20.8484 C   0  0  0  0  0  0  0  0  0  0  0  0
    9.3113    5.3049   14.4911 C   0  0  0  0  0  0  0  0  0  0  0  0
    9.4607    7.5646   16.0139 C   0  0  0  0  0  0  0  0  0  0  0  0
   10.4192    7.3157   15.0955 C   0  0  0  0  0  0  0  0  0  0  0  0
   10.2489    6.4227   23.0218 N   0  0  0  0  0  0  0  0  0  0  0  0
    7.2472    8.0746   23.5050 C   0  0  0  0  0  0  0  0  0  0  0  0
    9.2051    6.9101   23.4604 C   0  0  0  0  0  0  0  0  0  0  0  0
   11.9646    6.0299   21.4251 C   0  0  0  0  0  0  0  0  0  0  0  0
  1  5  1  0
  1 13  1  0
  2 20  2  0
  2 28  1  0
  2 29  1  0
  3 19  4  0
  3 25  4  0
  4 23  4  0
  4 27  1  0
  4 30  4  0
  5 17  1  0
  6  8  1  0
  6 29  1  0
  7 24  4  0
  7 26  4  0
  8 28  1  0
  9 13  2  0
 10 18  1  0
 10 21  4  0
 10 30  4  0
 11 17  2  0
 12 18  1  0
 13 15  1  0
 14 24  1  0
 15 25  1  0
 16 28  2  0
 17 20  1  0
 19 24  4  0
 20 23  1  0
 21 22  4  0
 22 23  4  0
 25 26  4  0
 27 29  2  0
M  END
$$$$

 Created by Python create_sdf_string function

 30 33  0  0  0  0  0  0  0  0999 V2000
    8.3036    9.8571   18.4133 C   0  0  0  0  0  0  0  0  0  0  0  0
    8.3694    7.6612   22.6703 C   0  0  0  0  0  0  0  0  0  0  0  0
    8.4143    6.6863   16.2273 C   0  0  0  0  0  0  0  0  0  0  0  0
   10.7581    6.5674   21.7636 C   0  0  0  0  0  0  0  0  0  0  0  0
    8.4452    8.7960   19.2958 O   0  0  0  0  0  0  0  0  0  0  0  0
    8.7122    6.7842   24.8569 C   0  0  0  0  0  0  0  0  0  0  0  0
   10.3400    6.1726   14.3081 C   0  0  0  0  0  0  0  0  0  0  0  0
    7.4297    7.5873   24.8962 C   0  0  0  0  0  0  0  0  0  0  0  0
    8.1566   10.0536   16.0516 O   0  0  0  0  0  0  0  0  0  0  0  0
   12.4989    6.2074   20.1776 C   0  0  0  0  0  0  0  0  0  0  0  0
    6.9192    9.1053   20.9073 O   0  0  0  0  0  0  0  0  0  0  0  0
   14.3979    6.0729   18.7784 C   0  0  0  0  0  0  0  0  0  0  0  0
    8.6811    9.5354   16.9998 C   0  0  0  0  0  0  0  0  0  0  0  0
    9.2512    4.2713   13.7653 O   0  0  0  0  0  0  0  0  0  0  0  0
    9.6495    8.6317   16.8332 N   0  0  0  0  0  0  0  0  0  0  0  0
    6.2934    8.6988   23.1988 O   0  0  0  0  0  0  0  0  0  0  0  0
    7.9806    8.6543   20.5437 C   0  0  0  0  0  0  0  0  0  0  0  0
   13.7270    5.7144   19.8610 O   0  0  0  0  0  0  0  0  0  0  0  0
    8.3351    5.5235   15.4478 C   0  0  0  0  0  0  0  0  0  0  0  0
    8.7700    7.8434   21.3915 C   0  0  0  0  0  0  0  0  0  0  0  0
   11.7856    6.8851   19.2401 C   0  0  0  0  0  0  0  0  0  0  0  0
   10.5281    7.4276   19.5649 C   0  0  0  0  0  0  0  0  0  0  0  0
   10.0256    7.2907   20.8484 C   0  0  0  0  0  0  0  0  0  0  0  0
    9.3113    5.3049   14.4911 C   0  0  0  0  0  0  0  0  0  0  0  0
    9.4607    7.5646   16.0139 C   0  0  0  0  0  0  0  0  0  0  0  0
   10.4192    7.3157   15.0955 C   0  0  0  0  0  0  0  0  0  0  0  0
   10.2489    6.4227   23.0218 N   0  0  0  0  0  0  0  0  0  0  0  0
    7.2472    8.0746   23.5050 C   0  0  0  0  0  0  0  0  0  0  0  0
    9.2051    6.9101   23.4604 C   0  0  0  0  0  0  0  0  0  0  0  0
   11.9646    6.0299   21.4251 C   0  0  0  0  0  0  0  0  0  0  0  0
  1  5  1  0
  1 13  1  0
  2 20  2  0
  2 28  1  0
  2 29  1  0
  3 19  4  0
  3 25  4  0
  4 23  4  0
  4 27  1  0
  4 30  4  0
  5 17  1  0
  6  8  1  0
  6 29  1  0
  7 24  4  0
  7 26  4  0
  8 28  1  0
  9 13  2  0
 10 18  1  0
 10 21  4  0
 10 30  4  0
 11 17  2  0
 12 18  1  0
 13 15  1  0
 14 24  1  0
 15 25  1  0
 16 28  2  0
 17 20  1  0
 19 24  4  0
 20 23  1  0
 21 22  4  0
 22 23  4  0
 25 26  4  0
 27 29  2  0
M  END
$$$$

 Created by Python create_sdf_string function

 30 33  0  0  0  0  0  0  0  0999 V2000
    8.3036    9.8571   18.4133 C   0  0  0  0  0  0  0  0  0  0  0  0
    8.3694    7.6612   22.6703 C   0  0  0  0  0  0  0  0  0  0  0  0
    8.4143    6.6863   16.2273 C   0  0  0  0  0  0  0  0  0  0  0  0
   10.7581    6.5674   21.7636 C   0  0  0  0  0  0  0  0  0  0  0  0
    8.4452    8.7960   19.2958 O   0  0  0  0  0  0  0  0  0  0  0  0
    8.7122    6.7842   24.8569 C   0  0  0  0  0  0  0  0  0  0  0  0
   10.3400    6.1726   14.3081 C   0  0  0  0  0  0  0  0  0  0  0  0
    7.4297    7.5873   24.8962 C   0  0  0  0  0  0  0  0  0  0  0  0
    8.1566   10.0536   16.0516 O   0  0  0  0  0  0  0  0  0  0  0  0
   12.4989    6.2074   20.1776 C   0  0  0  0  0  0  0  0  0  0  0  0
    6.9192    9.1053   20.9073 O   0  0  0  0  0  0  0  0  0  0  0  0
   14.3979    6.0729   18.7784 C   0  0  0  0  0  0  0  0  0  0  0  0
    8.6811    9.5354   16.9998 C   0  0  0  0  0  0  0  0  0  0  0  0
    9.2512    4.2713   13.7653 O   0  0  0  0  0  0  0  0  0  0  0  0
    9.6495    8.6317   16.8332 N   0  0  0  0  0  0  0  0  0  0  0  0
    6.2934    8.6988   23.1988 O   0  0  0  0  0  0  0  0  0  0  0  0
    7.9806    8.6543   20.5437 C   0  0  0  0  0  0  0  0  0  0  0  0
   13.7270    5.7144   19.8610 O   0  0  0  0  0  0  0  0  0  0  0  0
    8.3351    5.5235   15.4478 C   0  0  0  0  0  0  0  0  0  0  0  0
    8.7700    7.8434   21.3915 C   0  0  0  0  0  0  0  0  0  0  0  0
   11.7856    6.8851   19.2401 C   0  0  0  0  0  0  0  0  0  0  0  0
   10.5281    7.4276   19.5649 C   0  0  0  0  0  0  0  0  0  0  0  0
   10.0256    7.2907   20.8484 C   0  0  0  0  0  0  0  0  0  0  0  0
    9.3113    5.3049   14.4911 C   0  0  0  0  0  0  0  0  0  0  0  0
    9.4607    7.5646   16.0139 C   0  0  0  0  0  0  0  0  0  0  0  0
   10.4192    7.3157   15.0955 C   0  0  0  0  0  0  0  0  0  0  0  0
   10.2489    6.4227   23.0218 N   0  0  0  0  0  0  0  0  0  0  0  0
    7.2472    8.0746   23.5050 C   0  0  0  0  0  0  0  0  0  0  0  0
    9.2051    6.9101   23.4604 C   0  0  0  0  0  0  0  0  0  0  0  0
   11.9646    6.0299   21.4251 C   0  0  0  0  0  0  0  0  0  0  0  0
  1  5  1  0
  1 13  1  0
  2 20  2  0
  2 28  1  0
  2 29  1  0
  3 19  4  0
  3 25  4  0
  4 23  4  0
  4 27  1  0
  4 30  4  0
  5 17  1  0
  6  8  1  0
  6 29  1  0
  7 24  4  0
  7 26  4  0
  8 28  1  0
  9 13  2  0
 10 18  1  0
 10 21  4  0
 10 30  4  0
 11 17  2  0
 12 18  1  0
 13 15  1  0
 14 24  1  0
 15 25  1  0
 16 28  2  0
 17 20  1  0
 19 24  4  0
 20 23  1  0
 21 22  4  0
 22 23  4  0
 25 26  4  0
 27 29  2  0
M  END
$$$$

 Created by Python create_sdf_string function

 30 33  0  0  0  0  0  0  0  0999 V2000
    8.3036    9.8571   18.4133 C   0  0  0  0  0  0  0  0  0  0  0  0
    8.3694    7.6612   22.6703 C   0  0  0  0  0  0  0  0  0  0  0  0
    8.4143    6.6863   16.2273 C   0  0  0  0  0  0  0  0  0  0  0  0
   10.7581    6.5674   21.7636 C   0  0  0  0  0  0  0  0  0  0  0  0
    8.4452    8.7960   19.2958 O   0  0  0  0  0  0  0  0  0  0  0  0
    8.7122    6.7842   24.8569 C   0  0  0  0  0  0  0  0  0  0  0  0
   10.3400    6.1726   14.3081 C   0  0  0  0  0  0  0  0  0  0  0  0
    7.4297    7.5873   24.8962 C   0  0  0  0  0  0  0  0  0  0  0  0
    8.1566   10.0536   16.0516 O   0  0  0  0  0  0  0  0  0  0  0  0
   12.4989    6.2074   20.1776 C   0  0  0  0  0  0  0  0  0  0  0  0
    6.9192    9.1053   20.9073 O   0  0  0  0  0  0  0  0  0  0  0  0
   14.3979    6.0729   18.7784 C   0  0  0  0  0  0  0  0  0  0  0  0
    8.6811    9.5354   16.9998 C   0  0  0  0  0  0  0  0  0  0  0  0
    9.2512    4.2713   13.7653 O   0  0  0  0  0  0  0  0  0  0  0  0
    9.6495    8.6317   16.8332 N   0  0  0  0  0  0  0  0  0  0  0  0
    6.2934    8.6988   23.1988 O   0  0  0  0  0  0  0  0  0  0  0  0
    7.9806    8.6543   20.5437 C   0  0  0  0  0  0  0  0  0  0  0  0
   13.7270    5.7144   19.8610 O   0  0  0  0  0  0  0  0  0  0  0  0
    8.3351    5.5235   15.4478 C   0  0  0  0  0  0  0  0  0  0  0  0
    8.7700    7.8434   21.3915 C   0  0  0  0  0  0  0  0  0  0  0  0
   11.7856    6.8851   19.2401 C   0  0  0  0  0  0  0  0  0  0  0  0
   10.5281    7.4276   19.5649 C   0  0  0  0  0  0  0  0  0  0  0  0
   10.0256    7.2907   20.8484 C   0  0  0  0  0  0  0  0  0  0  0  0
    9.3113    5.3049   14.4911 C   0  0  0  0  0  0  0  0  0  0  0  0
    9.4607    7.5646   16.0139 C   0  0  0  0  0  0  0  0  0  0  0  0
   10.4192    7.3157   15.0955 C   0  0  0  0  0  0  0  0  0  0  0  0
   10.2489    6.4227   23.0218 N   0  0  0  0  0  0  0  0  0  0  0  0
    7.2472    8.0746   23.5050 C   0  0  0  0  0  0  0  0  0  0  0  0
    9.2051    6.9101   23.4604 C   0  0  0  0  0  0  0  0  0  0  0  0
   11.9646    6.0299   21.4251 C   0  0  0  0  0  0  0  0  0  0  0  0
  1  5  1  0
  1 13  1  0
  2 20  2  0
  2 28  1  0
  2 29  1  0
  3 19  4  0
  3 25  4  0
  4 23  4  0
  4 27  1  0
  4 30  4  0
  5 17  1  0
  6  8  1  0
  6 29  1  0
  7 24  4  0
  7 26  4  0
  8 28  1  0
  9 13  2  0
 10 18  1  0
 10 21  4  0
 10 30  4  0
 11 17  2  0
 12 18  1  0
 13 15  1  0
 14 24  1  0
 15 25  1  0
 16 28  2  0
 17 20  1  0
 19 24  4  0
 20 23  1  0
 21 22  4  0
 22 23  4  0
 25 26  4  0
 27 29  2  0
M  END
$$$$

 Created by Python create_sdf_string function

 30 33  0  0  0  0  0  0  0  0999 V2000
    8.3036    9.8571   18.4133 C   0  0  0  0  0  0  0  0  0  0  0  0
    8.3694    7.6612   22.6703 C   0  0  0  0  0  0  0  0  0  0  0  0
    8.4143    6.6863   16.2273 C   0  0  0  0  0  0  0  0  0  0  0  0
   10.7581    6.5674   21.7636 C   0  0  0  0  0  0  0  0  0  0  0  0
    8.4452    8.7960   19.2958 O   0  0  0  0  0  0  0  0  0  0  0  0
    8.7122    6.7842   24.8569 C   0  0  0  0  0  0  0  0  0  0  0  0
   10.3400    6.1726   14.3081 C   0  0  0  0  0  0  0  0  0  0  0  0
    7.4297    7.5873   24.8962 C   0  0  0  0  0  0  0  0  0  0  0  0
    8.1566   10.0536   16.0516 O   0  0  0  0  0  0  0  0  0  0  0  0
   12.4989    6.2074   20.1776 C   0  0  0  0  0  0  0  0  0  0  0  0
    6.9192    9.1053   20.9073 O   0  0  0  0  0  0  0  0  0  0  0  0
   14.3979    6.0729   18.7784 C   0  0  0  0  0  0  0  0  0  0  0  0
    8.6811    9.5354   16.9998 C   0  0  0  0  0  0  0  0  0  0  0  0
    9.2512    4.2713   13.7653 O   0  0  0  0  0  0  0  0  0  0  0  0
    9.6495    8.6317   16.8332 N   0  0  0  0  0  0  0  0  0  0  0  0
    6.2934    8.6988   23.1988 O   0  0  0  0  0  0  0  0  0  0  0  0
    7.9806    8.6543   20.5437 C   0  0  0  0  0  0  0  0  0  0  0  0
   13.7270    5.7144   19.8610 O   0  0  0  0  0  0  0  0  0  0  0  0
    8.3351    5.5235   15.4478 C   0  0  0  0  0  0  0  0  0  0  0  0
    8.7700    7.8434   21.3915 C   0  0  0  0  0  0  0  0  0  0  0  0
   11.7856    6.8851   19.2401 C   0  0  0  0  0  0  0  0  0  0  0  0
   10.5281    7.4276   19.5649 C   0  0  0  0  0  0  0  0  0  0  0  0
   10.0256    7.2907   20.8484 C   0  0  0  0  0  0  0  0  0  0  0  0
    9.3113    5.3049   14.4911 C   0  0  0  0  0  0  0  0  0  0  0  0
    9.4607    7.5646   16.0139 C   0  0  0  0  0  0  0  0  0  0  0  0
   10.4192    7.3157   15.0955 C   0  0  0  0  0  0  0  0  0  0  0  0
   10.2489    6.4227   23.0218 N   0  0  0  0  0  0  0  0  0  0  0  0
    7.2472    8.0746   23.5050 C   0  0  0  0  0  0  0  0  0  0  0  0
    9.2051    6.9101   23.4604 C   0  0  0  0  0  0  0  0  0  0  0  0
   11.9646    6.0299   21.4251 C   0  0  0  0  0  0  0  0  0  0  0  0
  1  5  1  0
  1 13  1  0
  2 20  2  0
  2 28  1  0
  2 29  1  0
  3 19  4  0
  3 25  4  0
  4 23  4  0
  4 27  1  0
  4 30  4  0
  5 17  1  0
  6  8  1  0
  6 29  1  0
  7 24  4  0
  7 26  4  0
  8 28  1  0
  9 13  2  0
 10 18  1  0
 10 21  4  0
 10 30  4  0
 11 17  2  0
 12 18  1  0
 13 15  1  0
 14 24  1  0
 15 25  1  0
 16 28  2  0
 17 20  1  0
 19 24  4  0
 20 23  1  0
 21 22  4  0
 22 23  4  0
 25 26  4  0
 27 29  2  0
M  END
$$$$

 Created by Python create_sdf_string function

 30 33  0  0  0  0  0  0  0  0999 V2000
    8.3036    9.8571   18.4133 C   0  0  0  0  0  0  0  0  0  0  0  0
    8.3694    7.6612   22.6703 C   0  0  0  0  0  0  0  0  0  0  0  0
    8.4143    6.6863   16.2273 C   0  0  0  0  0  0  0  0  0  0  0  0
   10.7581    6.5674   21.7636 C   0  0  0  0  0  0  0  0  0  0  0  0
    8.4452    8.7960   19.2958 O   0  0  0  0  0  0  0  0  0  0  0  0
    8.7122    6.7842   24.8569 C   0  0  0  0  0  0  0  0  0  0  0  0
   10.3400    6.1726   14.3081 C   0  0  0  0  0  0  0  0  0  0  0  0
    7.4297    7.5873   24.8962 C   0  0  0  0  0  0  0  0  0  0  0  0
    8.1566   10.0536   16.0516 O   0  0  0  0  0  0  0  0  0  0  0  0
   12.4989    6.2074   20.1776 C   0  0  0  0  0  0  0  0  0  0  0  0
    6.9192    9.1053   20.9073 O   0  0  0  0  0  0  0  0  0  0  0  0
   14.3979    6.0729   18.7784 C   0  0  0  0  0  0  0  0  0  0  0  0
    8.6811    9.5354   16.9998 C   0  0  0  0  0  0  0  0  0  0  0  0
    9.2512    4.2713   13.7653 O   0  0  0  0  0  0  0  0  0  0  0  0
    9.6495    8.6317   16.8332 N   0  0  0  0  0  0  0  0  0  0  0  0
    6.2934    8.6988   23.1988 O   0  0  0  0  0  0  0  0  0  0  0  0
    7.9806    8.6543   20.5437 C   0  0  0  0  0  0  0  0  0  0  0  0
   13.7270    5.7144   19.8610 O   0  0  0  0  0  0  0  0  0  0  0  0
    8.3351    5.5235   15.4478 C   0  0  0  0  0  0  0  0  0  0  0  0
    8.7700    7.8434   21.3915 C   0  0  0  0  0  0  0  0  0  0  0  0
   11.7856    6.8851   19.2401 C   0  0  0  0  0  0  0  0  0  0  0  0
   10.5281    7.4276   19.5649 C   0  0  0  0  0  0  0  0  0  0  0  0
   10.0256    7.2907   20.8484 C   0  0  0  0  0  0  0  0  0  0  0  0
    9.3113    5.3049   14.4911 C   0  0  0  0  0  0  0  0  0  0  0  0
    9.4607    7.5646   16.0139 C   0  0  0  0  0  0  0  0  0  0  0  0
   10.4192    7.3157   15.0955 C   0  0  0  0  0  0  0  0  0  0  0  0
   10.2489    6.4227   23.0218 N   0  0  0  0  0  0  0  0  0  0  0  0
    7.2472    8.0746   23.5050 C   0  0  0  0  0  0  0  0  0  0  0  0
    9.2051    6.9101   23.4604 C   0  0  0  0  0  0  0  0  0  0  0  0
   11.9646    6.0299   21.4251 C   0  0  0  0  0  0  0  0  0  0  0  0
  1  5  1  0
  1 13  1  0
  2 20  2  0
  2 28  1  0
  2 29  1  0
  3 19  4  0
  3 25  4  0
  4 23  4  0
  4 27  1  0
  4 30  4  0
  5 17  1  0
  6  8  1  0
  6 29  1  0
  7 24  4  0
  7 26  4  0
  8 28  1  0
  9 13  2  0
 10 18  1  0
 10 21  4  0
 10 30  4  0
 11 17  2  0
 12 18  1  0
 13 15  1  0
 14 24  1  0
 15 25  1  0
 16 28  2  0
 17 20  1  0
 19 24  4  0
 20 23  1  0
 21 22  4  0
 22 23  4  0
 25 26  4  0
 27 29  2  0
M  END
$$$$

 Created by Python create_sdf_string function

 30 33  0  0  0  0  0  0  0  0999 V2000
    8.3036    9.8571   18.4133 C   0  0  0  0  0  0  0  0  0  0  0  0
    8.3694    7.6612   22.6703 C   0  0  0  0  0  0  0  0  0  0  0  0
    8.4143    6.6863   16.2273 C   0  0  0  0  0  0  0  0  0  0  0  0
   10.7581    6.5674   21.7636 C   0  0  0  0  0  0  0  0  0  0  0  0
    8.4452    8.7960   19.2958 O   0  0  0  0  0  0  0  0  0  0  0  0
    8.7122    6.7842   24.8569 C   0  0  0  0  0  0  0  0  0  0  0  0
   10.3400    6.1726   14.3081 C   0  0  0  0  0  0  0  0  0  0  0  0
    7.4297    7.5873   24.8962 C   0  0  0  0  0  0  0  0  0  0  0  0
    8.1566   10.0536   16.0516 O   0  0  0  0  0  0  0  0  0  0  0  0
   12.4989    6.2074   20.1776 C   0  0  0  0  0  0  0  0  0  0  0  0
    6.9192    9.1053   20.9073 O   0  0  0  0  0  0  0  0  0  0  0  0
   14.3979    6.0729   18.7784 C   0  0  0  0  0  0  0  0  0  0  0  0
    8.6811    9.5354   16.9998 C   0  0  0  0  0  0  0  0  0  0  0  0
    9.2512    4.2713   13.7653 O   0  0  0  0  0  0  0  0  0  0  0  0
    9.6495    8.6317   16.8332 N   0  0  0  0  0  0  0  0  0  0  0  0
    6.2934    8.6988   23.1988 O   0  0  0  0  0  0  0  0  0  0  0  0
    7.9806    8.6543   20.5437 C   0  0  0  0  0  0  0  0  0  0  0  0
   13.7270    5.7144   19.8610 O   0  0  0  0  0  0  0  0  0  0  0  0
    8.3351    5.5235   15.4478 C   0  0  0  0  0  0  0  0  0  0  0  0
    8.7700    7.8434   21.3915 C   0  0  0  0  0  0  0  0  0  0  0  0
   11.7856    6.8851   19.2401 C   0  0  0  0  0  0  0  0  0  0  0  0
   10.5281    7.4276   19.5649 C   0  0  0  0  0  0  0  0  0  0  0  0
   10.0256    7.2907   20.8484 C   0  0  0  0  0  0  0  0  0  0  0  0
    9.3113    5.3049   14.4911 C   0  0  0  0  0  0  0  0  0  0  0  0
    9.4607    7.5646   16.0139 C   0  0  0  0  0  0  0  0  0  0  0  0
   10.4192    7.3157   15.0955 C   0  0  0  0  0  0  0  0  0  0  0  0
   10.2489    6.4227   23.0218 N   0  0  0  0  0  0  0  0  0  0  0  0
    7.2472    8.0746   23.5050 C   0  0  0  0  0  0  0  0  0  0  0  0
    9.2051    6.9101   23.4604 C   0  0  0  0  0  0  0  0  0  0  0  0
   11.9646    6.0299   21.4251 C   0  0  0  0  0  0  0  0  0  0  0  0
  1  5  1  0
  1 13  1  0
  2 20  2  0
  2 28  1  0
  2 29  1  0
  3 19  4  0
  3 25  4  0
  4 23  4  0
  4 27  1  0
  4 30  4  0
  5 17  1  0
  6  8  1  0
  6 29  1  0
  7 24  4  0
  7 26  4  0
  8 28  1  0
  9 13  2  0
 10 18  1  0
 10 21  4  0
 10 30  4  0
 11 17  2  0
 12 18  1  0
 13 15  1  0
 14 24  1  0
 15 25  1  0
 16 28  2  0
 17 20  1  0
 19 24  4  0
 20 23  1  0
 21 22  4  0
 22 23  4  0
 25 26  4  0
 27 29  2  0
M  END
$$$$

 Created by Python create_sdf_string function

 30 33  0  0  0  0  0  0  0  0999 V2000
    8.3036    9.8571   18.4133 C   0  0  0  0  0  0  0  0  0  0  0  0
    8.3694    7.6612   22.6703 C   0  0  0  0  0  0  0  0  0  0  0  0
    8.4143    6.6863   16.2273 C   0  0  0  0  0  0  0  0  0  0  0  0
   10.7581    6.5674   21.7636 C   0  0  0  0  0  0  0  0  0  0  0  0
    8.4452    8.7960   19.2958 O   0  0  0  0  0  0  0  0  0  0  0  0
    8.7122    6.7842   24.8569 C   0  0  0  0  0  0  0  0  0  0  0  0
   10.3400    6.1726   14.3081 C   0  0  0  0  0  0  0  0  0  0  0  0
    7.4297    7.5873   24.8962 C   0  0  0  0  0  0  0  0  0  0  0  0
    8.1566   10.0536   16.0516 O   0  0  0  0  0  0  0  0  0  0  0  0
   12.4989    6.2074   20.1776 C   0  0  0  0  0  0  0  0  0  0  0  0
    6.9192    9.1053   20.9073 O   0  0  0  0  0  0  0  0  0  0  0  0
   14.3979    6.0729   18.7784 C   0  0  0  0  0  0  0  0  0  0  0  0
    8.6811    9.5354   16.9998 C   0  0  0  0  0  0  0  0  0  0  0  0
    9.2512    4.2713   13.7653 O   0  0  0  0  0  0  0  0  0  0  0  0
    9.6495    8.6317   16.8332 N   0  0  0  0  0  0  0  0  0  0  0  0
    6.2934    8.6988   23.1988 O   0  0  0  0  0  0  0  0  0  0  0  0
    7.9806    8.6543   20.5437 C   0  0  0  0  0  0  0  0  0  0  0  0
   13.7270    5.7144   19.8610 O   0  0  0  0  0  0  0  0  0  0  0  0
    8.3351    5.5235   15.4478 C   0  0  0  0  0  0  0  0  0  0  0  0
    8.7700    7.8434   21.3915 C   0  0  0  0  0  0  0  0  0  0  0  0
   11.7856    6.8851   19.2401 C   0  0  0  0  0  0  0  0  0  0  0  0
   10.5281    7.4276   19.5649 C   0  0  0  0  0  0  0  0  0  0  0  0
   10.0256    7.2907   20.8484 C   0  0  0  0  0  0  0  0  0  0  0  0
    9.3113    5.3049   14.4911 C   0  0  0  0  0  0  0  0  0  0  0  0
    9.4607    7.5646   16.0139 C   0  0  0  0  0  0  0  0  0  0  0  0
   10.4192    7.3157   15.0955 C   0  0  0  0  0  0  0  0  0  0  0  0
   10.2489    6.4227   23.0218 N   0  0  0  0  0  0  0  0  0  0  0  0
    7.2472    8.0746   23.5050 C   0  0  0  0  0  0  0  0  0  0  0  0
    9.2051    6.9101   23.4604 C   0  0  0  0  0  0  0  0  0  0  0  0
   11.9646    6.0299   21.4251 C   0  0  0  0  0  0  0  0  0  0  0  0
  1  5  1  0
  1 13  1  0
  2 20  2  0
  2 28  1  0
  2 29  1  0
  3 19  4  0
  3 25  4  0
  4 23  4  0
  4 27  1  0
  4 30  4  0
  5 17  1  0
  6  8  1  0
  6 29  1  0
  7 24  4  0
  7 26  4  0
  8 28  1  0
  9 13  2  0
 10 18  1  0
 10 21  4  0
 10 30  4  0
 11 17  2  0
 12 18  1  0
 13 15  1  0
 14 24  1  0
 15 25  1  0
 16 28  2  0
 17 20  1  0
 19 24  4  0
 20 23  1  0
 21 22  4  0
 22 23  4  0
 25 26  4  0
 27 29  2  0
M  END
$$$$

 Created by Python create_sdf_string function

 30 33  0  0  0  0  0  0  0  0999 V2000
    8.3036    9.8571   18.4133 C   0  0  0  0  0  0  0  0  0  0  0  0
    8.3694    7.6612   22.6703 C   0  0  0  0  0  0  0  0  0  0  0  0
    8.4143    6.6863   16.2273 C   0  0  0  0  0  0  0  0  0  0  0  0
   10.7581    6.5674   21.7636 C   0  0  0  0  0  0  0  0  0  0  0  0
    8.4452    8.7960   19.2958 O   0  0  0  0  0  0  0  0  0  0  0  0
    8.7122    6.7842   24.8569 C   0  0  0  0  0  0  0  0  0  0  0  0
   10.3400    6.1726   14.3081 C   0  0  0  0  0  0  0  0  0  0  0  0
    7.4297    7.5873   24.8962 C   0  0  0  0  0  0  0  0  0  0  0  0
    8.1566   10.0536   16.0516 O   0  0  0  0  0  0  0  0  0  0  0  0
   12.4989    6.2074   20.1776 C   0  0  0  0  0  0  0  0  0  0  0  0
    6.9192    9.1053   20.9073 O   0  0  0  0  0  0  0  0  0  0  0  0
   14.3979    6.0729   18.7784 C   0  0  0  0  0  0  0  0  0  0  0  0
    8.6811    9.5354   16.9998 C   0  0  0  0  0  0  0  0  0  0  0  0
    9.2512    4.2713   13.7653 O   0  0  0  0  0  0  0  0  0  0  0  0
    9.6495    8.6317   16.8332 N   0  0  0  0  0  0  0  0  0  0  0  0
    6.2934    8.6988   23.1988 O   0  0  0  0  0  0  0  0  0  0  0  0
    7.9806    8.6543   20.5437 C   0  0  0  0  0  0  0  0  0  0  0  0
   13.7270    5.7144   19.8610 O   0  0  0  0  0  0  0  0  0  0  0  0
    8.3351    5.5235   15.4478 C   0  0  0  0  0  0  0  0  0  0  0  0
    8.7700    7.8434   21.3915 C   0  0  0  0  0  0  0  0  0  0  0  0
   11.7856    6.8851   19.2401 C   0  0  0  0  0  0  0  0  0  0  0  0
   10.5281    7.4276   19.5649 C   0  0  0  0  0  0  0  0  0  0  0  0
   10.0256    7.2907   20.8484 C   0  0  0  0  0  0  0  0  0  0  0  0
    9.3113    5.3049   14.4911 C   0  0  0  0  0  0  0  0  0  0  0  0
    9.4607    7.5646   16.0139 C   0  0  0  0  0  0  0  0  0  0  0  0
   10.4192    7.3157   15.0955 C   0  0  0  0  0  0  0  0  0  0  0  0
   10.2489    6.4227   23.0218 N   0  0  0  0  0  0  0  0  0  0  0  0
    7.2472    8.0746   23.5050 C   0  0  0  0  0  0  0  0  0  0  0  0
    9.2051    6.9101   23.4604 C   0  0  0  0  0  0  0  0  0  0  0  0
   11.9646    6.0299   21.4251 C   0  0  0  0  0  0  0  0  0  0  0  0
  1  5  1  0
  1 13  1  0
  2 20  2  0
  2 28  1  0
  2 29  1  0
  3 19  4  0
  3 25  4  0
  4 23  4  0
  4 27  1  0
  4 30  4  0
  5 17  1  0
  6  8  1  0
  6 29  1  0
  7 24  4  0
  7 26  4  0
  8 28  1  0
  9 13  2  0
 10 18  1  0
 10 21  4  0
 10 30  4  0
 11 17  2  0
 12 18  1  0
 13 15  1  0
 14 24  1  0
 15 25  1  0
 16 28  2  0
 17 20  1  0
 19 24  4  0
 20 23  1  0
 21 22  4  0
 22 23  4  0
 25 26  4  0
 27 29  2  0
M  END
$$$$

 Created by Python create_sdf_string function

 30 33  0  0  0  0  0  0  0  0999 V2000
    8.3036    9.8571   18.4133 C   0  0  0  0  0  0  0  0  0  0  0  0
    8.3694    7.6612   22.6703 C   0  0  0  0  0  0  0  0  0  0  0  0
    8.4143    6.6863   16.2273 C   0  0  0  0  0  0  0  0  0  0  0  0
   10.7581    6.5674   21.7636 C   0  0  0  0  0  0  0  0  0  0  0  0
    8.4452    8.7960   19.2958 O   0  0  0  0  0  0  0  0  0  0  0  0
    8.7122    6.7842   24.8569 C   0  0  0  0  0  0  0  0  0  0  0  0
   10.3400    6.1726   14.3081 C   0  0  0  0  0  0  0  0  0  0  0  0
    7.4297    7.5873   24.8962 C   0  0  0  0  0  0  0  0  0  0  0  0
    8.1566   10.0536   16.0516 O   0  0  0  0  0  0  0  0  0  0  0  0
   12.4989    6.2074   20.1776 C   0  0  0  0  0  0  0  0  0  0  0  0
    6.9192    9.1053   20.9073 O   0  0  0  0  0  0  0  0  0  0  0  0
   14.3979    6.0729   18.7784 C   0  0  0  0  0  0  0  0  0  0  0  0
    8.6811    9.5354   16.9998 C   0  0  0  0  0  0  0  0  0  0  0  0
    9.2512    4.2713   13.7653 O   0  0  0  0  0  0  0  0  0  0  0  0
    9.6495    8.6317   16.8332 N   0  0  0  0  0  0  0  0  0  0  0  0
    6.2934    8.6988   23.1988 O   0  0  0  0  0  0  0  0  0  0  0  0
    7.9806    8.6543   20.5437 C   0  0  0  0  0  0  0  0  0  0  0  0
   13.7270    5.7144   19.8610 O   0  0  0  0  0  0  0  0  0  0  0  0
    8.3351    5.5235   15.4478 C   0  0  0  0  0  0  0  0  0  0  0  0
    8.7700    7.8434   21.3915 C   0  0  0  0  0  0  0  0  0  0  0  0
   11.7856    6.8851   19.2401 C   0  0  0  0  0  0  0  0  0  0  0  0
   10.5281    7.4276   19.5649 C   0  0  0  0  0  0  0  0  0  0  0  0
   10.0256    7.2907   20.8484 C   0  0  0  0  0  0  0  0  0  0  0  0
    9.3113    5.3049   14.4911 C   0  0  0  0  0  0  0  0  0  0  0  0
    9.4607    7.5646   16.0139 C   0  0  0  0  0  0  0  0  0  0  0  0
   10.4192    7.3157   15.0955 C   0  0  0  0  0  0  0  0  0  0  0  0
   10.2489    6.4227   23.0218 N   0  0  0  0  0  0  0  0  0  0  0  0
    7.2472    8.0746   23.5050 C   0  0  0  0  0  0  0  0  0  0  0  0
    9.2051    6.9101   23.4604 C   0  0  0  0  0  0  0  0  0  0  0  0
   11.9646    6.0299   21.4251 C   0  0  0  0  0  0  0  0  0  0  0  0
  1  5  1  0
  1 13  1  0
  2 20  2  0
  2 28  1  0
  2 29  1  0
  3 19  4  0
  3 25  4  0
  4 23  4  0
  4 27  1  0
  4 30  4  0
  5 17  1  0
  6  8  1  0
  6 29  1  0
  7 24  4  0
  7 26  4  0
  8 28  1  0
  9 13  2  0
 10 18  1  0
 10 21  4  0
 10 30  4  0
 11 17  2  0
 12 18  1  0
 13 15  1  0
 14 24  1  0
 15 25  1  0
 16 28  2  0
 17 20  1  0
 19 24  4  0
 20 23  1  0
 21 22  4  0
 22 23  4  0
 25 26  4  0
 27 29  2  0
M  END
$$$$

 Created by Python create_sdf_string function

 30 33  0  0  0  0  0  0  0  0999 V2000
    8.3036    9.8571   18.4133 C   0  0  0  0  0  0  0  0  0  0  0  0
    8.3694    7.6612   22.6703 C   0  0  0  0  0  0  0  0  0  0  0  0
    8.4143    6.6863   16.2273 C   0  0  0  0  0  0  0  0  0  0  0  0
   10.7581    6.5674   21.7636 C   0  0  0  0  0  0  0  0  0  0  0  0
    8.4452    8.7960   19.2958 O   0  0  0  0  0  0  0  0  0  0  0  0
    8.7122    6.7842   24.8569 C   0  0  0  0  0  0  0  0  0  0  0  0
   10.3400    6.1726   14.3081 C   0  0  0  0  0  0  0  0  0  0  0  0
    7.4297    7.5873   24.8962 C   0  0  0  0  0  0  0  0  0  0  0  0
    8.1566   10.0536   16.0516 O   0  0  0  0  0  0  0  0  0  0  0  0
   12.4989    6.2074   20.1776 C   0  0  0  0  0  0  0  0  0  0  0  0
    6.9192    9.1053   20.9073 O   0  0  0  0  0  0  0  0  0  0  0  0
   14.3979    6.0729   18.7784 C   0  0  0  0  0  0  0  0  0  0  0  0
    8.6811    9.5354   16.9998 C   0  0  0  0  0  0  0  0  0  0  0  0
    9.2512    4.2713   13.7653 O   0  0  0  0  0  0  0  0  0  0  0  0
    9.6495    8.6317   16.8332 N   0  0  0  0  0  0  0  0  0  0  0  0
    6.2934    8.6988   23.1988 O   0  0  0  0  0  0  0  0  0  0  0  0
    7.9806    8.6543   20.5437 C   0  0  0  0  0  0  0  0  0  0  0  0
   13.7270    5.7144   19.8610 O   0  0  0  0  0  0  0  0  0  0  0  0
    8.3351    5.5235   15.4478 C   0  0  0  0  0  0  0  0  0  0  0  0
    8.7700    7.8434   21.3915 C   0  0  0  0  0  0  0  0  0  0  0  0
   11.7856    6.8851   19.2401 C   0  0  0  0  0  0  0  0  0  0  0  0
   10.5281    7.4276   19.5649 C   0  0  0  0  0  0  0  0  0  0  0  0
   10.0256    7.2907   20.8484 C   0  0  0  0  0  0  0  0  0  0  0  0
    9.3113    5.3049   14.4911 C   0  0  0  0  0  0  0  0  0  0  0  0
    9.4607    7.5646   16.0139 C   0  0  0  0  0  0  0  0  0  0  0  0
   10.4192    7.3157   15.0955 C   0  0  0  0  0  0  0  0  0  0  0  0
   10.2489    6.4227   23.0218 N   0  0  0  0  0  0  0  0  0  0  0  0
    7.2472    8.0746   23.5050 C   0  0  0  0  0  0  0  0  0  0  0  0
    9.2051    6.9101   23.4604 C   0  0  0  0  0  0  0  0  0  0  0  0
   11.9646    6.0299   21.4251 C   0  0  0  0  0  0  0  0  0  0  0  0
  1  5  1  0
  1 13  1  0
  2 20  2  0
  2 28  1  0
  2 29  1  0
  3 19  4  0
  3 25  4  0
  4 23  4  0
  4 27  1  0
  4 30  4  0
  5 17  1  0
  6  8  1  0
  6 29  1  0
  7 24  4  0
  7 26  4  0
  8 28  1  0
  9 13  2  0
 10 18  1  0
 10 21  4  0
 10 30  4  0
 11 17  2  0
 12 18  1  0
 13 15  1  0
 14 24  1  0
 15 25  1  0
 16 28  2  0
 17 20  1  0
 19 24  4  0
 20 23  1  0
 21 22  4  0
 22 23  4  0
 25 26  4  0
 27 29  2  0
M  END
$$$$

 Created by Python create_sdf_string function

 30 33  0  0  0  0  0  0  0  0999 V2000
    8.3036    9.8571   18.4133 C   0  0  0  0  0  0  0  0  0  0  0  0
    8.3694    7.6612   22.6703 C   0  0  0  0  0  0  0  0  0  0  0  0
    8.4143    6.6863   16.2273 C   0  0  0  0  0  0  0  0  0  0  0  0
   10.7581    6.5674   21.7636 C   0  0  0  0  0  0  0  0  0  0  0  0
    8.4452    8.7960   19.2958 O   0  0  0  0  0  0  0  0  0  0  0  0
    8.7122    6.7842   24.8569 C   0  0  0  0  0  0  0  0  0  0  0  0
   10.3400    6.1726   14.3081 C   0  0  0  0  0  0  0  0  0  0  0  0
    7.4297    7.5873   24.8962 C   0  0  0  0  0  0  0  0  0  0  0  0
    8.1566   10.0536   16.0516 O   0  0  0  0  0  0  0  0  0  0  0  0
   12.4989    6.2074   20.1776 C   0  0  0  0  0  0  0  0  0  0  0  0
    6.9192    9.1053   20.9073 O   0  0  0  0  0  0  0  0  0  0  0  0
   14.3979    6.0729   18.7784 C   0  0  0  0  0  0  0  0  0  0  0  0
    8.6811    9.5354   16.9998 C   0  0  0  0  0  0  0  0  0  0  0  0
    9.2512    4.2713   13.7653 O   0  0  0  0  0  0  0  0  0  0  0  0
    9.6495    8.6317   16.8332 N   0  0  0  0  0  0  0  0  0  0  0  0
    6.2934    8.6988   23.1988 O   0  0  0  0  0  0  0  0  0  0  0  0
    7.9806    8.6543   20.5437 C   0  0  0  0  0  0  0  0  0  0  0  0
   13.7270    5.7144   19.8610 O   0  0  0  0  0  0  0  0  0  0  0  0
    8.3351    5.5235   15.4478 C   0  0  0  0  0  0  0  0  0  0  0  0
    8.7700    7.8434   21.3915 C   0  0  0  0  0  0  0  0  0  0  0  0
   11.7856    6.8851   19.2401 C   0  0  0  0  0  0  0  0  0  0  0  0
   10.5281    7.4276   19.5649 C   0  0  0  0  0  0  0  0  0  0  0  0
   10.0256    7.2907   20.8484 C   0  0  0  0  0  0  0  0  0  0  0  0
    9.3113    5.3049   14.4911 C   0  0  0  0  0  0  0  0  0  0  0  0
    9.4607    7.5646   16.0139 C   0  0  0  0  0  0  0  0  0  0  0  0
   10.4192    7.3157   15.0955 C   0  0  0  0  0  0  0  0  0  0  0  0
   10.2489    6.4227   23.0218 N   0  0  0  0  0  0  0  0  0  0  0  0
    7.2472    8.0746   23.5050 C   0  0  0  0  0  0  0  0  0  0  0  0
    9.2051    6.9101   23.4604 C   0  0  0  0  0  0  0  0  0  0  0  0
   11.9646    6.0299   21.4251 C   0  0  0  0  0  0  0  0  0  0  0  0
  1  5  1  0
  1 13  1  0
  2 20  2  0
  2 28  1  0
  2 29  1  0
  3 19  4  0
  3 25  4  0
  4 23  4  0
  4 27  1  0
  4 30  4  0
  5 17  1  0
  6  8  1  0
  6 29  1  0
  7 24  4  0
  7 26  4  0
  8 28  1  0
  9 13  2  0
 10 18  1  0
 10 21  4  0
 10 30  4  0
 11 17  2  0
 12 18  1  0
 13 15  1  0
 14 24  1  0
 15 25  1  0
 16 28  2  0
 17 20  1  0
 19 24  4  0
 20 23  1  0
 21 22  4  0
 22 23  4  0
 25 26  4  0
 27 29  2  0
M  END
$$$$

 Created by Python create_sdf_string function

 30 33  0  0  0  0  0  0  0  0999 V2000
    8.3036    9.8571   18.4133 C   0  0  0  0  0  0  0  0  0  0  0  0
    8.3694    7.6612   22.6703 C   0  0  0  0  0  0  0  0  0  0  0  0
    8.4143    6.6863   16.2273 C   0  0  0  0  0  0  0  0  0  0  0  0
   10.7581    6.5674   21.7636 C   0  0  0  0  0  0  0  0  0  0  0  0
    8.4452    8.7960   19.2958 O   0  0  0  0  0  0  0  0  0  0  0  0
    8.7122    6.7842   24.8569 C   0  0  0  0  0  0  0  0  0  0  0  0
   10.3400    6.1726   14.3081 C   0  0  0  0  0  0  0  0  0  0  0  0
    7.4297    7.5873   24.8962 C   0  0  0  0  0  0  0  0  0  0  0  0
    8.1566   10.0536   16.0516 O   0  0  0  0  0  0  0  0  0  0  0  0
   12.4989    6.2074   20.1776 C   0  0  0  0  0  0  0  0  0  0  0  0
    6.9192    9.1053   20.9073 O   0  0  0  0  0  0  0  0  0  0  0  0
   14.3979    6.0729   18.7784 C   0  0  0  0  0  0  0  0  0  0  0  0
    8.6811    9.5354   16.9998 C   0  0  0  0  0  0  0  0  0  0  0  0
    9.2512    4.2713   13.7653 O   0  0  0  0  0  0  0  0  0  0  0  0
    9.6495    8.6317   16.8332 N   0  0  0  0  0  0  0  0  0  0  0  0
    6.2934    8.6988   23.1988 O   0  0  0  0  0  0  0  0  0  0  0  0
    7.9806    8.6543   20.5437 C   0  0  0  0  0  0  0  0  0  0  0  0
   13.7270    5.7144   19.8610 O   0  0  0  0  0  0  0  0  0  0  0  0
    8.3351    5.5235   15.4478 C   0  0  0  0  0  0  0  0  0  0  0  0
    8.7700    7.8434   21.3915 C   0  0  0  0  0  0  0  0  0  0  0  0
   11.7856    6.8851   19.2401 C   0  0  0  0  0  0  0  0  0  0  0  0
   10.5281    7.4276   19.5649 C   0  0  0  0  0  0  0  0  0  0  0  0
   10.0256    7.2907   20.8484 C   0  0  0  0  0  0  0  0  0  0  0  0
    9.3113    5.3049   14.4911 C   0  0  0  0  0  0  0  0  0  0  0  0
    9.4607    7.5646   16.0139 C   0  0  0  0  0  0  0  0  0  0  0  0
   10.4192    7.3157   15.0955 C   0  0  0  0  0  0  0  0  0  0  0  0
   10.2489    6.4227   23.0218 N   0  0  0  0  0  0  0  0  0  0  0  0
    7.2472    8.0746   23.5050 C   0  0  0  0  0  0  0  0  0  0  0  0
    9.2051    6.9101   23.4604 C   0  0  0  0  0  0  0  0  0  0  0  0
   11.9646    6.0299   21.4251 C   0  0  0  0  0  0  0  0  0  0  0  0
  1  5  1  0
  1 13  1  0
  2 20  2  0
  2 28  1  0
  2 29  1  0
  3 19  4  0
  3 25  4  0
  4 23  4  0
  4 27  1  0
  4 30  4  0
  5 17  1  0
  6  8  1  0
  6 29  1  0
  7 24  4  0
  7 26  4  0
  8 28  1  0
  9 13  2  0
 10 18  1  0
 10 21  4  0
 10 30  4  0
 11 17  2  0
 12 18  1  0
 13 15  1  0
 14 24  1  0
 15 25  1  0
 16 28  2  0
 17 20  1  0
 19 24  4  0
 20 23  1  0
 21 22  4  0
 22 23  4  0
 25 26  4  0
 27 29  2  0
M  END
$$$$

 Created by Python create_sdf_string function

 30 33  0  0  0  0  0  0  0  0999 V2000
    8.3036    9.8571   18.4133 C   0  0  0  0  0  0  0  0  0  0  0  0
    8.3694    7.6612   22.6703 C   0  0  0  0  0  0  0  0  0  0  0  0
    8.4143    6.6863   16.2273 C   0  0  0  0  0  0  0  0  0  0  0  0
   10.7581    6.5674   21.7636 C   0  0  0  0  0  0  0  0  0  0  0  0
    8.4452    8.7960   19.2958 O   0  0  0  0  0  0  0  0  0  0  0  0
    8.7122    6.7842   24.8569 C   0  0  0  0  0  0  0  0  0  0  0  0
   10.3400    6.1726   14.3081 C   0  0  0  0  0  0  0  0  0  0  0  0
    7.4297    7.5873   24.8962 C   0  0  0  0  0  0  0  0  0  0  0  0
    8.1566   10.0536   16.0516 O   0  0  0  0  0  0  0  0  0  0  0  0
   12.4989    6.2074   20.1776 C   0  0  0  0  0  0  0  0  0  0  0  0
    6.9192    9.1053   20.9073 O   0  0  0  0  0  0  0  0  0  0  0  0
   14.3979    6.0729   18.7784 C   0  0  0  0  0  0  0  0  0  0  0  0
    8.6811    9.5354   16.9998 C   0  0  0  0  0  0  0  0  0  0  0  0
    9.2512    4.2713   13.7653 O   0  0  0  0  0  0  0  0  0  0  0  0
    9.6495    8.6317   16.8332 N   0  0  0  0  0  0  0  0  0  0  0  0
    6.2934    8.6988   23.1988 O   0  0  0  0  0  0  0  0  0  0  0  0
    7.9806    8.6543   20.5437 C   0  0  0  0  0  0  0  0  0  0  0  0
   13.7270    5.7144   19.8610 O   0  0  0  0  0  0  0  0  0  0  0  0
    8.3351    5.5235   15.4478 C   0  0  0  0  0  0  0  0  0  0  0  0
    8.7700    7.8434   21.3915 C   0  0  0  0  0  0  0  0  0  0  0  0
   11.7856    6.8851   19.2401 C   0  0  0  0  0  0  0  0  0  0  0  0
   10.5281    7.4276   19.5649 C   0  0  0  0  0  0  0  0  0  0  0  0
   10.0256    7.2907   20.8484 C   0  0  0  0  0  0  0  0  0  0  0  0
    9.3113    5.3049   14.4911 C   0  0  0  0  0  0  0  0  0  0  0  0
    9.4607    7.5646   16.0139 C   0  0  0  0  0  0  0  0  0  0  0  0
   10.4192    7.3157   15.0955 C   0  0  0  0  0  0  0  0  0  0  0  0
   10.2489    6.4227   23.0218 N   0  0  0  0  0  0  0  0  0  0  0  0
    7.2472    8.0746   23.5050 C   0  0  0  0  0  0  0  0  0  0  0  0
    9.2051    6.9101   23.4604 C   0  0  0  0  0  0  0  0  0  0  0  0
   11.9646    6.0299   21.4251 C   0  0  0  0  0  0  0  0  0  0  0  0
  1  5  1  0
  1 13  1  0
  2 20  2  0
  2 28  1  0
  2 29  1  0
  3 19  4  0
  3 25  4  0
  4 23  4  0
  4 27  1  0
  4 30  4  0
  5 17  1  0
  6  8  1  0
  6 29  1  0
  7 24  4  0
  7 26  4  0
  8 28  1  0
  9 13  2  0
 10 18  1  0
 10 21  4  0
 10 30  4  0
 11 17  2  0
 12 18  1  0
 13 15  1  0
 14 24  1  0
 15 25  1  0
 16 28  2  0
 17 20  1  0
 19 24  4  0
 20 23  1  0
 21 22  4  0
 22 23  4  0
 25 26  4  0
 27 29  2  0
M  END
$$$$

 Created by Python create_sdf_string function

 30 33  0  0  0  0  0  0  0  0999 V2000
    8.3036    9.8571   18.4133 C   0  0  0  0  0  0  0  0  0  0  0  0
    8.3694    7.6612   22.6703 C   0  0  0  0  0  0  0  0  0  0  0  0
    8.4143    6.6863   16.2273 C   0  0  0  0  0  0  0  0  0  0  0  0
   10.7581    6.5674   21.7636 C   0  0  0  0  0  0  0  0  0  0  0  0
    8.4452    8.7960   19.2958 O   0  0  0  0  0  0  0  0  0  0  0  0
    8.7122    6.7842   24.8569 C   0  0  0  0  0  0  0  0  0  0  0  0
   10.3400    6.1726   14.3081 C   0  0  0  0  0  0  0  0  0  0  0  0
    7.4297    7.5873   24.8962 C   0  0  0  0  0  0  0  0  0  0  0  0
    8.1566   10.0536   16.0516 O   0  0  0  0  0  0  0  0  0  0  0  0
   12.4989    6.2074   20.1776 C   0  0  0  0  0  0  0  0  0  0  0  0
    6.9192    9.1053   20.9073 O   0  0  0  0  0  0  0  0  0  0  0  0
   14.3979    6.0729   18.7784 C   0  0  0  0  0  0  0  0  0  0  0  0
    8.6811    9.5354   16.9998 C   0  0  0  0  0  0  0  0  0  0  0  0
    9.2512    4.2713   13.7653 O   0  0  0  0  0  0  0  0  0  0  0  0
    9.6495    8.6317   16.8332 N   0  0  0  0  0  0  0  0  0  0  0  0
    6.2934    8.6988   23.1988 O   0  0  0  0  0  0  0  0  0  0  0  0
    7.9806    8.6543   20.5437 C   0  0  0  0  0  0  0  0  0  0  0  0
   13.7270    5.7144   19.8610 O   0  0  0  0  0  0  0  0  0  0  0  0
    8.3351    5.5235   15.4478 C   0  0  0  0  0  0  0  0  0  0  0  0
    8.7700    7.8434   21.3915 C   0  0  0  0  0  0  0  0  0  0  0  0
   11.7856    6.8851   19.2401 C   0  0  0  0  0  0  0  0  0  0  0  0
   10.5281    7.4276   19.5649 C   0  0  0  0  0  0  0  0  0  0  0  0
   10.0256    7.2907   20.8484 C   0  0  0  0  0  0  0  0  0  0  0  0
    9.3113    5.3049   14.4911 C   0  0  0  0  0  0  0  0  0  0  0  0
    9.4607    7.5646   16.0139 C   0  0  0  0  0  0  0  0  0  0  0  0
   10.4192    7.3157   15.0955 C   0  0  0  0  0  0  0  0  0  0  0  0
   10.2489    6.4227   23.0218 N   0  0  0  0  0  0  0  0  0  0  0  0
    7.2472    8.0746   23.5050 C   0  0  0  0  0  0  0  0  0  0  0  0
    9.2051    6.9101   23.4604 C   0  0  0  0  0  0  0  0  0  0  0  0
   11.9646    6.0299   21.4251 C   0  0  0  0  0  0  0  0  0  0  0  0
  1  5  1  0
  1 13  1  0
  2 20  2  0
  2 28  1  0
  2 29  1  0
  3 19  4  0
  3 25  4  0
  4 23  4  0
  4 27  1  0
  4 30  4  0
  5 17  1  0
  6  8  1  0
  6 29  1  0
  7 24  4  0
  7 26  4  0
  8 28  1  0
  9 13  2  0
 10 18  1  0
 10 21  4  0
 10 30  4  0
 11 17  2  0
 12 18  1  0
 13 15  1  0
 14 24  1  0
 15 25  1  0
 16 28  2  0
 17 20  1  0
 19 24  4  0
 20 23  1  0
 21 22  4  0
 22 23  4  0
 25 26  4  0
 27 29  2  0
M  END
$$$$

 Created by Python create_sdf_string function

 30 33  0  0  0  0  0  0  0  0999 V2000
    8.3036    9.8571   18.4133 C   0  0  0  0  0  0  0  0  0  0  0  0
    8.3694    7.6612   22.6703 C   0  0  0  0  0  0  0  0  0  0  0  0
    8.4143    6.6863   16.2273 C   0  0  0  0  0  0  0  0  0  0  0  0
   10.7581    6.5674   21.7636 C   0  0  0  0  0  0  0  0  0  0  0  0
    8.4452    8.7960   19.2958 O   0  0  0  0  0  0  0  0  0  0  0  0
    8.7122    6.7842   24.8569 C   0  0  0  0  0  0  0  0  0  0  0  0
   10.3400    6.1726   14.3081 C   0  0  0  0  0  0  0  0  0  0  0  0
    7.4297    7.5873   24.8962 C   0  0  0  0  0  0  0  0  0  0  0  0
    8.1566   10.0536   16.0516 O   0  0  0  0  0  0  0  0  0  0  0  0
   12.4989    6.2074   20.1776 C   0  0  0  0  0  0  0  0  0  0  0  0
    6.9192    9.1053   20.9073 O   0  0  0  0  0  0  0  0  0  0  0  0
   14.3979    6.0729   18.7784 C   0  0  0  0  0  0  0  0  0  0  0  0
    8.6811    9.5354   16.9998 C   0  0  0  0  0  0  0  0  0  0  0  0
    9.2512    4.2713   13.7653 O   0  0  0  0  0  0  0  0  0  0  0  0
    9.6495    8.6317   16.8332 N   0  0  0  0  0  0  0  0  0  0  0  0
    6.2934    8.6988   23.1988 O   0  0  0  0  0  0  0  0  0  0  0  0
    7.9806    8.6543   20.5437 C   0  0  0  0  0  0  0  0  0  0  0  0
   13.7270    5.7144   19.8610 O   0  0  0  0  0  0  0  0  0  0  0  0
    8.3351    5.5235   15.4478 C   0  0  0  0  0  0  0  0  0  0  0  0
    8.7700    7.8434   21.3915 C   0  0  0  0  0  0  0  0  0  0  0  0
   11.7856    6.8851   19.2401 C   0  0  0  0  0  0  0  0  0  0  0  0
   10.5281    7.4276   19.5649 C   0  0  0  0  0  0  0  0  0  0  0  0
   10.0256    7.2907   20.8484 C   0  0  0  0  0  0  0  0  0  0  0  0
    9.3113    5.3049   14.4911 C   0  0  0  0  0  0  0  0  0  0  0  0
    9.4607    7.5646   16.0139 C   0  0  0  0  0  0  0  0  0  0  0  0
   10.4192    7.3157   15.0955 C   0  0  0  0  0  0  0  0  0  0  0  0
   10.2489    6.4227   23.0218 N   0  0  0  0  0  0  0  0  0  0  0  0
    7.2472    8.0746   23.5050 C   0  0  0  0  0  0  0  0  0  0  0  0
    9.2051    6.9101   23.4604 C   0  0  0  0  0  0  0  0  0  0  0  0
   11.9646    6.0299   21.4251 C   0  0  0  0  0  0  0  0  0  0  0  0
  1  5  1  0
  1 13  1  0
  2 20  2  0
  2 28  1  0
  2 29  1  0
  3 19  4  0
  3 25  4  0
  4 23  4  0
  4 27  1  0
  4 30  4  0
  5 17  1  0
  6  8  1  0
  6 29  1  0
  7 24  4  0
  7 26  4  0
  8 28  1  0
  9 13  2  0
 10 18  1  0
 10 21  4  0
 10 30  4  0
 11 17  2  0
 12 18  1  0
 13 15  1  0
 14 24  1  0
 15 25  1  0
 16 28  2  0
 17 20  1  0
 19 24  4  0
 20 23  1  0
 21 22  4  0
 22 23  4  0
 25 26  4  0
 27 29  2  0
M  END
$$$$

 Created by Python create_sdf_string function

 30 33  0  0  0  0  0  0  0  0999 V2000
    8.3036    9.8571   18.4133 C   0  0  0  0  0  0  0  0  0  0  0  0
    8.3694    7.6612   22.6703 C   0  0  0  0  0  0  0  0  0  0  0  0
    8.4143    6.6863   16.2273 C   0  0  0  0  0  0  0  0  0  0  0  0
   10.7581    6.5674   21.7636 C   0  0  0  0  0  0  0  0  0  0  0  0
    8.4452    8.7960   19.2958 O   0  0  0  0  0  0  0  0  0  0  0  0
    8.7122    6.7842   24.8569 C   0  0  0  0  0  0  0  0  0  0  0  0
   10.3400    6.1726   14.3081 C   0  0  0  0  0  0  0  0  0  0  0  0
    7.4297    7.5873   24.8962 C   0  0  0  0  0  0  0  0  0  0  0  0
    8.1566   10.0536   16.0516 O   0  0  0  0  0  0  0  0  0  0  0  0
   12.4989    6.2074   20.1776 C   0  0  0  0  0  0  0  0  0  0  0  0
    6.9192    9.1053   20.9073 O   0  0  0  0  0  0  0  0  0  0  0  0
   14.3979    6.0729   18.7784 C   0  0  0  0  0  0  0  0  0  0  0  0
    8.6811    9.5354   16.9998 C   0  0  0  0  0  0  0  0  0  0  0  0
    9.2512    4.2713   13.7653 O   0  0  0  0  0  0  0  0  0  0  0  0
    9.6495    8.6317   16.8332 N   0  0  0  0  0  0  0  0  0  0  0  0
    6.2934    8.6988   23.1988 O   0  0  0  0  0  0  0  0  0  0  0  0
    7.9806    8.6543   20.5437 C   0  0  0  0  0  0  0  0  0  0  0  0
   13.7270    5.7144   19.8610 O   0  0  0  0  0  0  0  0  0  0  0  0
    8.3351    5.5235   15.4478 C   0  0  0  0  0  0  0  0  0  0  0  0
    8.7700    7.8434   21.3915 C   0  0  0  0  0  0  0  0  0  0  0  0
   11.7856    6.8851   19.2401 C   0  0  0  0  0  0  0  0  0  0  0  0
   10.5281    7.4276   19.5649 C   0  0  0  0  0  0  0  0  0  0  0  0
   10.0256    7.2907   20.8484 C   0  0  0  0  0  0  0  0  0  0  0  0
    9.3113    5.3049   14.4911 C   0  0  0  0  0  0  0  0  0  0  0  0
    9.4607    7.5646   16.0139 C   0  0  0  0  0  0  0  0  0  0  0  0
   10.4192    7.3157   15.0955 C   0  0  0  0  0  0  0  0  0  0  0  0
   10.2489    6.4227   23.0218 N   0  0  0  0  0  0  0  0  0  0  0  0
    7.2472    8.0746   23.5050 C   0  0  0  0  0  0  0  0  0  0  0  0
    9.2051    6.9101   23.4604 C   0  0  0  0  0  0  0  0  0  0  0  0
   11.9646    6.0299   21.4251 C   0  0  0  0  0  0  0  0  0  0  0  0
  1  5  1  0
  1 13  1  0
  2 20  2  0
  2 28  1  0
  2 29  1  0
  3 19  4  0
  3 25  4  0
  4 23  4  0
  4 27  1  0
  4 30  4  0
  5 17  1  0
  6  8  1  0
  6 29  1  0
  7 24  4  0
  7 26  4  0
  8 28  1  0
  9 13  2  0
 10 18  1  0
 10 21  4  0
 10 30  4  0
 11 17  2  0
 12 18  1  0
 13 15  1  0
 14 24  1  0
 15 25  1  0
 16 28  2  0
 17 20  1  0
 19 24  4  0
 20 23  1  0
 21 22  4  0
 22 23  4  0
 25 26  4  0
 27 29  2  0
M  END
$$$$

 Created by Python create_sdf_string function

 30 33  0  0  0  0  0  0  0  0999 V2000
    8.3036    9.8571   18.4133 C   0  0  0  0  0  0  0  0  0  0  0  0
    8.3694    7.6612   22.6703 C   0  0  0  0  0  0  0  0  0  0  0  0
    8.4143    6.6863   16.2273 C   0  0  0  0  0  0  0  0  0  0  0  0
   10.7581    6.5674   21.7636 C   0  0  0  0  0  0  0  0  0  0  0  0
    8.4452    8.7960   19.2958 O   0  0  0  0  0  0  0  0  0  0  0  0
    8.7122    6.7842   24.8569 C   0  0  0  0  0  0  0  0  0  0  0  0
   10.3400    6.1726   14.3081 C   0  0  0  0  0  0  0  0  0  0  0  0
    7.4297    7.5873   24.8962 C   0  0  0  0  0  0  0  0  0  0  0  0
    8.1566   10.0536   16.0516 O   0  0  0  0  0  0  0  0  0  0  0  0
   12.4989    6.2074   20.1776 C   0  0  0  0  0  0  0  0  0  0  0  0
    6.9192    9.1053   20.9073 O   0  0  0  0  0  0  0  0  0  0  0  0
   14.3979    6.0729   18.7784 C   0  0  0  0  0  0  0  0  0  0  0  0
    8.6811    9.5354   16.9998 C   0  0  0  0  0  0  0  0  0  0  0  0
    9.2512    4.2713   13.7653 O   0  0  0  0  0  0  0  0  0  0  0  0
    9.6495    8.6317   16.8332 N   0  0  0  0  0  0  0  0  0  0  0  0
    6.2934    8.6988   23.1988 O   0  0  0  0  0  0  0  0  0  0  0  0
    7.9806    8.6543   20.5437 C   0  0  0  0  0  0  0  0  0  0  0  0
   13.7270    5.7144   19.8610 O   0  0  0  0  0  0  0  0  0  0  0  0
    8.3351    5.5235   15.4478 C   0  0  0  0  0  0  0  0  0  0  0  0
    8.7700    7.8434   21.3915 C   0  0  0  0  0  0  0  0  0  0  0  0
   11.7856    6.8851   19.2401 C   0  0  0  0  0  0  0  0  0  0  0  0
   10.5281    7.4276   19.5649 C   0  0  0  0  0  0  0  0  0  0  0  0
   10.0256    7.2907   20.8484 C   0  0  0  0  0  0  0  0  0  0  0  0
    9.3113    5.3049   14.4911 C   0  0  0  0  0  0  0  0  0  0  0  0
    9.4607    7.5646   16.0139 C   0  0  0  0  0  0  0  0  0  0  0  0
   10.4192    7.3157   15.0955 C   0  0  0  0  0  0  0  0  0  0  0  0
   10.2489    6.4227   23.0218 N   0  0  0  0  0  0  0  0  0  0  0  0
    7.2472    8.0746   23.5050 C   0  0  0  0  0  0  0  0  0  0  0  0
    9.2051    6.9101   23.4604 C   0  0  0  0  0  0  0  0  0  0  0  0
   11.9646    6.0299   21.4251 C   0  0  0  0  0  0  0  0  0  0  0  0
  1  5  1  0
  1 13  1  0
  2 20  2  0
  2 28  1  0
  2 29  1  0
  3 19  4  0
  3 25  4  0
  4 23  4  0
  4 27  1  0
  4 30  4  0
  5 17  1  0
  6  8  1  0
  6 29  1  0
  7 24  4  0
  7 26  4  0
  8 28  1  0
  9 13  2  0
 10 18  1  0
 10 21  4  0
 10 30  4  0
 11 17  2  0
 12 18  1  0
 13 15  1  0
 14 24  1  0
 15 25  1  0
 16 28  2  0
 17 20  1  0
 19 24  4  0
 20 23  1  0
 21 22  4  0
 22 23  4  0
 25 26  4  0
 27 29  2  0
M  END
$$$$

 Created by Python create_sdf_string function

 30 33  0  0  0  0  0  0  0  0999 V2000
    8.3036    9.8571   18.4133 C   0  0  0  0  0  0  0  0  0  0  0  0
    8.3694    7.6612   22.6703 C   0  0  0  0  0  0  0  0  0  0  0  0
    8.4143    6.6863   16.2273 C   0  0  0  0  0  0  0  0  0  0  0  0
   10.7581    6.5674   21.7636 C   0  0  0  0  0  0  0  0  0  0  0  0
    8.4452    8.7960   19.2958 O   0  0  0  0  0  0  0  0  0  0  0  0
    8.7122    6.7842   24.8569 C   0  0  0  0  0  0  0  0  0  0  0  0
   10.3400    6.1726   14.3081 C   0  0  0  0  0  0  0  0  0  0  0  0
    7.4297    7.5873   24.8962 C   0  0  0  0  0  0  0  0  0  0  0  0
    8.1566   10.0536   16.0516 O   0  0  0  0  0  0  0  0  0  0  0  0
   12.4989    6.2074   20.1776 C   0  0  0  0  0  0  0  0  0  0  0  0
    6.9192    9.1053   20.9073 O   0  0  0  0  0  0  0  0  0  0  0  0
   14.3979    6.0729   18.7784 C   0  0  0  0  0  0  0  0  0  0  0  0
    8.6811    9.5354   16.9998 C   0  0  0  0  0  0  0  0  0  0  0  0
    9.2512    4.2713   13.7653 O   0  0  0  0  0  0  0  0  0  0  0  0
    9.6495    8.6317   16.8332 N   0  0  0  0  0  0  0  0  0  0  0  0
    6.2934    8.6988   23.1988 O   0  0  0  0  0  0  0  0  0  0  0  0
    7.9806    8.6543   20.5437 C   0  0  0  0  0  0  0  0  0  0  0  0
   13.7270    5.7144   19.8610 O   0  0  0  0  0  0  0  0  0  0  0  0
    8.3351    5.5235   15.4478 C   0  0  0  0  0  0  0  0  0  0  0  0
    8.7700    7.8434   21.3915 C   0  0  0  0  0  0  0  0  0  0  0  0
   11.7856    6.8851   19.2401 C   0  0  0  0  0  0  0  0  0  0  0  0
   10.5281    7.4276   19.5649 C   0  0  0  0  0  0  0  0  0  0  0  0
   10.0256    7.2907   20.8484 C   0  0  0  0  0  0  0  0  0  0  0  0
    9.3113    5.3049   14.4911 C   0  0  0  0  0  0  0  0  0  0  0  0
    9.4607    7.5646   16.0139 C   0  0  0  0  0  0  0  0  0  0  0  0
   10.4192    7.3157   15.0955 C   0  0  0  0  0  0  0  0  0  0  0  0
   10.2489    6.4227   23.0218 N   0  0  0  0  0  0  0  0  0  0  0  0
    7.2472    8.0746   23.5050 C   0  0  0  0  0  0  0  0  0  0  0  0
    9.2051    6.9101   23.4604 C   0  0  0  0  0  0  0  0  0  0  0  0
   11.9646    6.0299   21.4251 C   0  0  0  0  0  0  0  0  0  0  0  0
  1  5  1  0
  1 13  1  0
  2 20  2  0
  2 28  1  0
  2 29  1  0
  3 19  4  0
  3 25  4  0
  4 23  4  0
  4 27  1  0
  4 30  4  0
  5 17  1  0
  6  8  1  0
  6 29  1  0
  7 24  4  0
  7 26  4  0
  8 28  1  0
  9 13  2  0
 10 18  1  0
 10 21  4  0
 10 30  4  0
 11 17  2  0
 12 18  1  0
 13 15  1  0
 14 24  1  0
 15 25  1  0
 16 28  2  0
 17 20  1  0
 19 24  4  0
 20 23  1  0
 21 22  4  0
 22 23  4  0
 25 26  4  0
 27 29  2  0
M  END
$$$$

 Created by Python create_sdf_string function

 30 33  0  0  0  0  0  0  0  0999 V2000
    8.3036    9.8571   18.4133 C   0  0  0  0  0  0  0  0  0  0  0  0
    8.3694    7.6612   22.6703 C   0  0  0  0  0  0  0  0  0  0  0  0
    8.4143    6.6863   16.2273 C   0  0  0  0  0  0  0  0  0  0  0  0
   10.7581    6.5674   21.7636 C   0  0  0  0  0  0  0  0  0  0  0  0
    8.4452    8.7960   19.2958 O   0  0  0  0  0  0  0  0  0  0  0  0
    8.7122    6.7842   24.8569 C   0  0  0  0  0  0  0  0  0  0  0  0
   10.3400    6.1726   14.3081 C   0  0  0  0  0  0  0  0  0  0  0  0
    7.4297    7.5873   24.8962 C   0  0  0  0  0  0  0  0  0  0  0  0
    8.1566   10.0536   16.0516 O   0  0  0  0  0  0  0  0  0  0  0  0
   12.4989    6.2074   20.1776 C   0  0  0  0  0  0  0  0  0  0  0  0
    6.9192    9.1053   20.9073 O   0  0  0  0  0  0  0  0  0  0  0  0
   14.3979    6.0729   18.7784 C   0  0  0  0  0  0  0  0  0  0  0  0
    8.6811    9.5354   16.9998 C   0  0  0  0  0  0  0  0  0  0  0  0
    9.2512    4.2713   13.7653 O   0  0  0  0  0  0  0  0  0  0  0  0
    9.6495    8.6317   16.8332 N   0  0  0  0  0  0  0  0  0  0  0  0
    6.2934    8.6988   23.1988 O   0  0  0  0  0  0  0  0  0  0  0  0
    7.9806    8.6543   20.5437 C   0  0  0  0  0  0  0  0  0  0  0  0
   13.7270    5.7144   19.8610 O   0  0  0  0  0  0  0  0  0  0  0  0
    8.3351    5.5235   15.4478 C   0  0  0  0  0  0  0  0  0  0  0  0
    8.7700    7.8434   21.3915 C   0  0  0  0  0  0  0  0  0  0  0  0
   11.7856    6.8851   19.2401 C   0  0  0  0  0  0  0  0  0  0  0  0
   10.5281    7.4276   19.5649 C   0  0  0  0  0  0  0  0  0  0  0  0
   10.0256    7.2907   20.8484 C   0  0  0  0  0  0  0  0  0  0  0  0
    9.3113    5.3049   14.4911 C   0  0  0  0  0  0  0  0  0  0  0  0
    9.4607    7.5646   16.0139 C   0  0  0  0  0  0  0  0  0  0  0  0
   10.4192    7.3157   15.0955 C   0  0  0  0  0  0  0  0  0  0  0  0
   10.2489    6.4227   23.0218 N   0  0  0  0  0  0  0  0  0  0  0  0
    7.2472    8.0746   23.5050 C   0  0  0  0  0  0  0  0  0  0  0  0
    9.2051    6.9101   23.4604 C   0  0  0  0  0  0  0  0  0  0  0  0
   11.9646    6.0299   21.4251 C   0  0  0  0  0  0  0  0  0  0  0  0
  1  5  1  0
  1 13  1  0
  2 20  2  0
  2 28  1  0
  2 29  1  0
  3 19  4  0
  3 25  4  0
  4 23  4  0
  4 27  1  0
  4 30  4  0
  5 17  1  0
  6  8  1  0
  6 29  1  0
  7 24  4  0
  7 26  4  0
  8 28  1  0
  9 13  2  0
 10 18  1  0
 10 21  4  0
 10 30  4  0
 11 17  2  0
 12 18  1  0
 13 15  1  0
 14 24  1  0
 15 25  1  0
 16 28  2  0
 17 20  1  0
 19 24  4  0
 20 23  1  0
 21 22  4  0
 22 23  4  0
 25 26  4  0
 27 29  2  0
M  END
$$$$

 Created by Python create_sdf_string function

 30 33  0  0  0  0  0  0  0  0999 V2000
    8.3036    9.8571   18.4133 C   0  0  0  0  0  0  0  0  0  0  0  0
    8.3694    7.6612   22.6703 C   0  0  0  0  0  0  0  0  0  0  0  0
    8.4143    6.6863   16.2273 C   0  0  0  0  0  0  0  0  0  0  0  0
   10.7581    6.5674   21.7636 C   0  0  0  0  0  0  0  0  0  0  0  0
    8.4452    8.7960   19.2958 O   0  0  0  0  0  0  0  0  0  0  0  0
    8.7122    6.7842   24.8569 C   0  0  0  0  0  0  0  0  0  0  0  0
   10.3400    6.1726   14.3081 C   0  0  0  0  0  0  0  0  0  0  0  0
    7.4297    7.5873   24.8962 C   0  0  0  0  0  0  0  0  0  0  0  0
    8.1566   10.0536   16.0516 O   0  0  0  0  0  0  0  0  0  0  0  0
   12.4989    6.2074   20.1776 C   0  0  0  0  0  0  0  0  0  0  0  0
    6.9192    9.1053   20.9073 O   0  0  0  0  0  0  0  0  0  0  0  0
   14.3979    6.0729   18.7784 C   0  0  0  0  0  0  0  0  0  0  0  0
    8.6811    9.5354   16.9998 C   0  0  0  0  0  0  0  0  0  0  0  0
    9.2512    4.2713   13.7653 O   0  0  0  0  0  0  0  0  0  0  0  0
    9.6495    8.6317   16.8332 N   0  0  0  0  0  0  0  0  0  0  0  0
    6.2934    8.6988   23.1988 O   0  0  0  0  0  0  0  0  0  0  0  0
    7.9806    8.6543   20.5437 C   0  0  0  0  0  0  0  0  0  0  0  0
   13.7270    5.7144   19.8610 O   0  0  0  0  0  0  0  0  0  0  0  0
    8.3351    5.5235   15.4478 C   0  0  0  0  0  0  0  0  0  0  0  0
    8.7700    7.8434   21.3915 C   0  0  0  0  0  0  0  0  0  0  0  0
   11.7856    6.8851   19.2401 C   0  0  0  0  0  0  0  0  0  0  0  0
   10.5281    7.4276   19.5649 C   0  0  0  0  0  0  0  0  0  0  0  0
   10.0256    7.2907   20.8484 C   0  0  0  0  0  0  0  0  0  0  0  0
    9.3113    5.3049   14.4911 C   0  0  0  0  0  0  0  0  0  0  0  0
    9.4607    7.5646   16.0139 C   0  0  0  0  0  0  0  0  0  0  0  0
   10.4192    7.3157   15.0955 C   0  0  0  0  0  0  0  0  0  0  0  0
   10.2489    6.4227   23.0218 N   0  0  0  0  0  0  0  0  0  0  0  0
    7.2472    8.0746   23.5050 C   0  0  0  0  0  0  0  0  0  0  0  0
    9.2051    6.9101   23.4604 C   0  0  0  0  0  0  0  0  0  0  0  0
   11.9646    6.0299   21.4251 C   0  0  0  0  0  0  0  0  0  0  0  0
  1  5  1  0
  1 13  1  0
  2 20  2  0
  2 28  1  0
  2 29  1  0
  3 19  4  0
  3 25  4  0
  4 23  4  0
  4 27  1  0
  4 30  4  0
  5 17  1  0
  6  8  1  0
  6 29  1  0
  7 24  4  0
  7 26  4  0
  8 28  1  0
  9 13  2  0
 10 18  1  0
 10 21  4  0
 10 30  4  0
 11 17  2  0
 12 18  1  0
 13 15  1  0
 14 24  1  0
 15 25  1  0
 16 28  2  0
 17 20  1  0
 19 24  4  0
 20 23  1  0
 21 22  4  0
 22 23  4  0
 25 26  4  0
 27 29  2  0
M  END
$$$$

 Created by Python create_sdf_string function

 30 33  0  0  0  0  0  0  0  0999 V2000
    8.3036    9.8571   18.4133 C   0  0  0  0  0  0  0  0  0  0  0  0
    8.3694    7.6612   22.6703 C   0  0  0  0  0  0  0  0  0  0  0  0
    8.4143    6.6863   16.2273 C   0  0  0  0  0  0  0  0  0  0  0  0
   10.7581    6.5674   21.7636 C   0  0  0  0  0  0  0  0  0  0  0  0
    8.4452    8.7960   19.2958 O   0  0  0  0  0  0  0  0  0  0  0  0
    8.7122    6.7842   24.8569 C   0  0  0  0  0  0  0  0  0  0  0  0
   10.3400    6.1726   14.3081 C   0  0  0  0  0  0  0  0  0  0  0  0
    7.4297    7.5873   24.8962 C   0  0  0  0  0  0  0  0  0  0  0  0
    8.1566   10.0536   16.0516 O   0  0  0  0  0  0  0  0  0  0  0  0
   12.4989    6.2074   20.1776 C   0  0  0  0  0  0  0  0  0  0  0  0
    6.9192    9.1053   20.9073 O   0  0  0  0  0  0  0  0  0  0  0  0
   14.3979    6.0729   18.7784 C   0  0  0  0  0  0  0  0  0  0  0  0
    8.6811    9.5354   16.9998 C   0  0  0  0  0  0  0  0  0  0  0  0
    9.2512    4.2713   13.7653 O   0  0  0  0  0  0  0  0  0  0  0  0
    9.6495    8.6317   16.8332 N   0  0  0  0  0  0  0  0  0  0  0  0
    6.2934    8.6988   23.1988 O   0  0  0  0  0  0  0  0  0  0  0  0
    7.9806    8.6543   20.5437 C   0  0  0  0  0  0  0  0  0  0  0  0
   13.7270    5.7144   19.8610 O   0  0  0  0  0  0  0  0  0  0  0  0
    8.3351    5.5235   15.4478 C   0  0  0  0  0  0  0  0  0  0  0  0
    8.7700    7.8434   21.3915 C   0  0  0  0  0  0  0  0  0  0  0  0
   11.7856    6.8851   19.2401 C   0  0  0  0  0  0  0  0  0  0  0  0
   10.5281    7.4276   19.5649 C   0  0  0  0  0  0  0  0  0  0  0  0
   10.0256    7.2907   20.8484 C   0  0  0  0  0  0  0  0  0  0  0  0
    9.3113    5.3049   14.4911 C   0  0  0  0  0  0  0  0  0  0  0  0
    9.4607    7.5646   16.0139 C   0  0  0  0  0  0  0  0  0  0  0  0
   10.4192    7.3157   15.0955 C   0  0  0  0  0  0  0  0  0  0  0  0
   10.2489    6.4227   23.0218 N   0  0  0  0  0  0  0  0  0  0  0  0
    7.2472    8.0746   23.5050 C   0  0  0  0  0  0  0  0  0  0  0  0
    9.2051    6.9101   23.4604 C   0  0  0  0  0  0  0  0  0  0  0  0
   11.9646    6.0299   21.4251 C   0  0  0  0  0  0  0  0  0  0  0  0
  1  5  1  0
  1 13  1  0
  2 20  2  0
  2 28  1  0
  2 29  1  0
  3 19  4  0
  3 25  4  0
  4 23  4  0
  4 27  1  0
  4 30  4  0
  5 17  1  0
  6  8  1  0
  6 29  1  0
  7 24  4  0
  7 26  4  0
  8 28  1  0
  9 13  2  0
 10 18  1  0
 10 21  4  0
 10 30  4  0
 11 17  2  0
 12 18  1  0
 13 15  1  0
 14 24  1  0
 15 25  1  0
 16 28  2  0
 17 20  1  0
 19 24  4  0
 20 23  1  0
 21 22  4  0
 22 23  4  0
 25 26  4  0
 27 29  2  0
M  END
$$$$

 Created by Python create_sdf_string function

 30 33  0  0  0  0  0  0  0  0999 V2000
    8.3036    9.8571   18.4133 C   0  0  0  0  0  0  0  0  0  0  0  0
    8.3694    7.6612   22.6703 C   0  0  0  0  0  0  0  0  0  0  0  0
    8.4143    6.6863   16.2273 C   0  0  0  0  0  0  0  0  0  0  0  0
   10.7581    6.5674   21.7636 C   0  0  0  0  0  0  0  0  0  0  0  0
    8.4452    8.7960   19.2958 O   0  0  0  0  0  0  0  0  0  0  0  0
    8.7122    6.7842   24.8569 C   0  0  0  0  0  0  0  0  0  0  0  0
   10.3400    6.1726   14.3081 C   0  0  0  0  0  0  0  0  0  0  0  0
    7.4297    7.5873   24.8962 C   0  0  0  0  0  0  0  0  0  0  0  0
    8.1566   10.0536   16.0516 O   0  0  0  0  0  0  0  0  0  0  0  0
   12.4989    6.2074   20.1776 C   0  0  0  0  0  0  0  0  0  0  0  0
    6.9192    9.1053   20.9073 O   0  0  0  0  0  0  0  0  0  0  0  0
   14.3979    6.0729   18.7784 C   0  0  0  0  0  0  0  0  0  0  0  0
    8.6811    9.5354   16.9998 C   0  0  0  0  0  0  0  0  0  0  0  0
    9.2512    4.2713   13.7653 O   0  0  0  0  0  0  0  0  0  0  0  0
    9.6495    8.6317   16.8332 N   0  0  0  0  0  0  0  0  0  0  0  0
    6.2934    8.6988   23.1988 O   0  0  0  0  0  0  0  0  0  0  0  0
    7.9806    8.6543   20.5437 C   0  0  0  0  0  0  0  0  0  0  0  0
   13.7270    5.7144   19.8610 O   0  0  0  0  0  0  0  0  0  0  0  0
    8.3351    5.5235   15.4478 C   0  0  0  0  0  0  0  0  0  0  0  0
    8.7700    7.8434   21.3915 C   0  0  0  0  0  0  0  0  0  0  0  0
   11.7856    6.8851   19.2401 C   0  0  0  0  0  0  0  0  0  0  0  0
   10.5281    7.4276   19.5649 C   0  0  0  0  0  0  0  0  0  0  0  0
   10.0256    7.2907   20.8484 C   0  0  0  0  0  0  0  0  0  0  0  0
    9.3113    5.3049   14.4911 C   0  0  0  0  0  0  0  0  0  0  0  0
    9.4607    7.5646   16.0139 C   0  0  0  0  0  0  0  0  0  0  0  0
   10.4192    7.3157   15.0955 C   0  0  0  0  0  0  0  0  0  0  0  0
   10.2489    6.4227   23.0218 N   0  0  0  0  0  0  0  0  0  0  0  0
    7.2472    8.0746   23.5050 C   0  0  0  0  0  0  0  0  0  0  0  0
    9.2051    6.9101   23.4604 C   0  0  0  0  0  0  0  0  0  0  0  0
   11.9646    6.0299   21.4251 C   0  0  0  0  0  0  0  0  0  0  0  0
  1  5  1  0
  1 13  1  0
  2 20  2  0
  2 28  1  0
  2 29  1  0
  3 19  4  0
  3 25  4  0
  4 23  4  0
  4 27  1  0
  4 30  4  0
  5 17  1  0
  6  8  1  0
  6 29  1  0
  7 24  4  0
  7 26  4  0
  8 28  1  0
  9 13  2  0
 10 18  1  0
 10 21  4  0
 10 30  4  0
 11 17  2  0
 12 18  1  0
 13 15  1  0
 14 24  1  0
 15 25  1  0
 16 28  2  0
 17 20  1  0
 19 24  4  0
 20 23  1  0
 21 22  4  0
 22 23  4  0
 25 26  4  0
 27 29  2  0
M  END
$$$$

 Created by Python create_sdf_string function

 30 33  0  0  0  0  0  0  0  0999 V2000
    8.3036    9.8571   18.4133 C   0  0  0  0  0  0  0  0  0  0  0  0
    8.3694    7.6612   22.6703 C   0  0  0  0  0  0  0  0  0  0  0  0
    8.4143    6.6863   16.2273 C   0  0  0  0  0  0  0  0  0  0  0  0
   10.7581    6.5674   21.7636 C   0  0  0  0  0  0  0  0  0  0  0  0
    8.4452    8.7960   19.2958 O   0  0  0  0  0  0  0  0  0  0  0  0
    8.7122    6.7842   24.8569 C   0  0  0  0  0  0  0  0  0  0  0  0
   10.3400    6.1726   14.3081 C   0  0  0  0  0  0  0  0  0  0  0  0
    7.4297    7.5873   24.8962 C   0  0  0  0  0  0  0  0  0  0  0  0
    8.1566   10.0536   16.0516 O   0  0  0  0  0  0  0  0  0  0  0  0
   12.4989    6.2074   20.1776 C   0  0  0  0  0  0  0  0  0  0  0  0
    6.9192    9.1053   20.9073 O   0  0  0  0  0  0  0  0  0  0  0  0
   14.3979    6.0729   18.7784 C   0  0  0  0  0  0  0  0  0  0  0  0
    8.6811    9.5354   16.9998 C   0  0  0  0  0  0  0  0  0  0  0  0
    9.2512    4.2713   13.7653 O   0  0  0  0  0  0  0  0  0  0  0  0
    9.6495    8.6317   16.8332 N   0  0  0  0  0  0  0  0  0  0  0  0
    6.2934    8.6988   23.1988 O   0  0  0  0  0  0  0  0  0  0  0  0
    7.9806    8.6543   20.5437 C   0  0  0  0  0  0  0  0  0  0  0  0
   13.7270    5.7144   19.8610 O   0  0  0  0  0  0  0  0  0  0  0  0
    8.3351    5.5235   15.4478 C   0  0  0  0  0  0  0  0  0  0  0  0
    8.7700    7.8434   21.3915 C   0  0  0  0  0  0  0  0  0  0  0  0
   11.7856    6.8851   19.2401 C   0  0  0  0  0  0  0  0  0  0  0  0
   10.5281    7.4276   19.5649 C   0  0  0  0  0  0  0  0  0  0  0  0
   10.0256    7.2907   20.8484 C   0  0  0  0  0  0  0  0  0  0  0  0
    9.3113    5.3049   14.4911 C   0  0  0  0  0  0  0  0  0  0  0  0
    9.4607    7.5646   16.0139 C   0  0  0  0  0  0  0  0  0  0  0  0
   10.4192    7.3157   15.0955 C   0  0  0  0  0  0  0  0  0  0  0  0
   10.2489    6.4227   23.0218 N   0  0  0  0  0  0  0  0  0  0  0  0
    7.2472    8.0746   23.5050 C   0  0  0  0  0  0  0  0  0  0  0  0
    9.2051    6.9101   23.4604 C   0  0  0  0  0  0  0  0  0  0  0  0
   11.9646    6.0299   21.4251 C   0  0  0  0  0  0  0  0  0  0  0  0
  1  5  1  0
  1 13  1  0
  2 20  2  0
  2 28  1  0
  2 29  1  0
  3 19  4  0
  3 25  4  0
  4 23  4  0
  4 27  1  0
  4 30  4  0
  5 17  1  0
  6  8  1  0
  6 29  1  0
  7 24  4  0
  7 26  4  0
  8 28  1  0
  9 13  2  0
 10 18  1  0
 10 21  4  0
 10 30  4  0
 11 17  2  0
 12 18  1  0
 13 15  1  0
 14 24  1  0
 15 25  1  0
 16 28  2  0
 17 20  1  0
 19 24  4  0
 20 23  1  0
 21 22  4  0
 22 23  4  0
 25 26  4  0
 27 29  2  0
M  END
$$$$

 Created by Python create_sdf_string function

 30 33  0  0  0  0  0  0  0  0999 V2000
    8.3036    9.8571   18.4133 C   0  0  0  0  0  0  0  0  0  0  0  0
    8.3694    7.6612   22.6703 C   0  0  0  0  0  0  0  0  0  0  0  0
    8.4143    6.6863   16.2273 C   0  0  0  0  0  0  0  0  0  0  0  0
   10.7581    6.5674   21.7636 C   0  0  0  0  0  0  0  0  0  0  0  0
    8.4452    8.7960   19.2958 O   0  0  0  0  0  0  0  0  0  0  0  0
    8.7122    6.7842   24.8569 C   0  0  0  0  0  0  0  0  0  0  0  0
   10.3400    6.1726   14.3081 C   0  0  0  0  0  0  0  0  0  0  0  0
    7.4297    7.5873   24.8962 C   0  0  0  0  0  0  0  0  0  0  0  0
    8.1566   10.0536   16.0516 O   0  0  0  0  0  0  0  0  0  0  0  0
   12.4989    6.2074   20.1776 C   0  0  0  0  0  0  0  0  0  0  0  0
    6.9192    9.1053   20.9073 O   0  0  0  0  0  0  0  0  0  0  0  0
   14.3979    6.0729   18.7784 C   0  0  0  0  0  0  0  0  0  0  0  0
    8.6811    9.5354   16.9998 C   0  0  0  0  0  0  0  0  0  0  0  0
    9.2512    4.2713   13.7653 O   0  0  0  0  0  0  0  0  0  0  0  0
    9.6495    8.6317   16.8332 N   0  0  0  0  0  0  0  0  0  0  0  0
    6.2934    8.6988   23.1988 O   0  0  0  0  0  0  0  0  0  0  0  0
    7.9806    8.6543   20.5437 C   0  0  0  0  0  0  0  0  0  0  0  0
   13.7270    5.7144   19.8610 O   0  0  0  0  0  0  0  0  0  0  0  0
    8.3351    5.5235   15.4478 C   0  0  0  0  0  0  0  0  0  0  0  0
    8.7700    7.8434   21.3915 C   0  0  0  0  0  0  0  0  0  0  0  0
   11.7856    6.8851   19.2401 C   0  0  0  0  0  0  0  0  0  0  0  0
   10.5281    7.4276   19.5649 C   0  0  0  0  0  0  0  0  0  0  0  0
   10.0256    7.2907   20.8484 C   0  0  0  0  0  0  0  0  0  0  0  0
    9.3113    5.3049   14.4911 C   0  0  0  0  0  0  0  0  0  0  0  0
    9.4607    7.5646   16.0139 C   0  0  0  0  0  0  0  0  0  0  0  0
   10.4192    7.3157   15.0955 C   0  0  0  0  0  0  0  0  0  0  0  0
   10.2489    6.4227   23.0218 N   0  0  0  0  0  0  0  0  0  0  0  0
    7.2472    8.0746   23.5050 C   0  0  0  0  0  0  0  0  0  0  0  0
    9.2051    6.9101   23.4604 C   0  0  0  0  0  0  0  0  0  0  0  0
   11.9646    6.0299   21.4251 C   0  0  0  0  0  0  0  0  0  0  0  0
  1  5  1  0
  1 13  1  0
  2 20  2  0
  2 28  1  0
  2 29  1  0
  3 19  4  0
  3 25  4  0
  4 23  4  0
  4 27  1  0
  4 30  4  0
  5 17  1  0
  6  8  1  0
  6 29  1  0
  7 24  4  0
  7 26  4  0
  8 28  1  0
  9 13  2  0
 10 18  1  0
 10 21  4  0
 10 30  4  0
 11 17  2  0
 12 18  1  0
 13 15  1  0
 14 24  1  0
 15 25  1  0
 16 28  2  0
 17 20  1  0
 19 24  4  0
 20 23  1  0
 21 22  4  0
 22 23  4  0
 25 26  4  0
 27 29  2  0
M  END
$$$$

 Created by Python create_sdf_string function

 30 33  0  0  0  0  0  0  0  0999 V2000
    8.3036    9.8571   18.4133 C   0  0  0  0  0  0  0  0  0  0  0  0
    8.3694    7.6612   22.6703 C   0  0  0  0  0  0  0  0  0  0  0  0
    8.4143    6.6863   16.2273 C   0  0  0  0  0  0  0  0  0  0  0  0
   10.7581    6.5674   21.7636 C   0  0  0  0  0  0  0  0  0  0  0  0
    8.4452    8.7960   19.2958 O   0  0  0  0  0  0  0  0  0  0  0  0
    8.7122    6.7842   24.8569 C   0  0  0  0  0  0  0  0  0  0  0  0
   10.3400    6.1726   14.3081 C   0  0  0  0  0  0  0  0  0  0  0  0
    7.4297    7.5873   24.8962 C   0  0  0  0  0  0  0  0  0  0  0  0
    8.1566   10.0536   16.0516 O   0  0  0  0  0  0  0  0  0  0  0  0
   12.4989    6.2074   20.1776 C   0  0  0  0  0  0  0  0  0  0  0  0
    6.9192    9.1053   20.9073 O   0  0  0  0  0  0  0  0  0  0  0  0
   14.3979    6.0729   18.7784 C   0  0  0  0  0  0  0  0  0  0  0  0
    8.6811    9.5354   16.9998 C   0  0  0  0  0  0  0  0  0  0  0  0
    9.2512    4.2713   13.7653 O   0  0  0  0  0  0  0  0  0  0  0  0
    9.6495    8.6317   16.8332 N   0  0  0  0  0  0  0  0  0  0  0  0
    6.2934    8.6988   23.1988 O   0  0  0  0  0  0  0  0  0  0  0  0
    7.9806    8.6543   20.5437 C   0  0  0  0  0  0  0  0  0  0  0  0
   13.7270    5.7144   19.8610 O   0  0  0  0  0  0  0  0  0  0  0  0
    8.3351    5.5235   15.4478 C   0  0  0  0  0  0  0  0  0  0  0  0
    8.7700    7.8434   21.3915 C   0  0  0  0  0  0  0  0  0  0  0  0
   11.7856    6.8851   19.2401 C   0  0  0  0  0  0  0  0  0  0  0  0
   10.5281    7.4276   19.5649 C   0  0  0  0  0  0  0  0  0  0  0  0
   10.0256    7.2907   20.8484 C   0  0  0  0  0  0  0  0  0  0  0  0
    9.3113    5.3049   14.4911 C   0  0  0  0  0  0  0  0  0  0  0  0
    9.4607    7.5646   16.0139 C   0  0  0  0  0  0  0  0  0  0  0  0
   10.4192    7.3157   15.0955 C   0  0  0  0  0  0  0  0  0  0  0  0
   10.2489    6.4227   23.0218 N   0  0  0  0  0  0  0  0  0  0  0  0
    7.2472    8.0746   23.5050 C   0  0  0  0  0  0  0  0  0  0  0  0
    9.2051    6.9101   23.4604 C   0  0  0  0  0  0  0  0  0  0  0  0
   11.9646    6.0299   21.4251 C   0  0  0  0  0  0  0  0  0  0  0  0
  1  5  1  0
  1 13  1  0
  2 20  2  0
  2 28  1  0
  2 29  1  0
  3 19  4  0
  3 25  4  0
  4 23  4  0
  4 27  1  0
  4 30  4  0
  5 17  1  0
  6  8  1  0
  6 29  1  0
  7 24  4  0
  7 26  4  0
  8 28  1  0
  9 13  2  0
 10 18  1  0
 10 21  4  0
 10 30  4  0
 11 17  2  0
 12 18  1  0
 13 15  1  0
 14 24  1  0
 15 25  1  0
 16 28  2  0
 17 20  1  0
 19 24  4  0
 20 23  1  0
 21 22  4  0
 22 23  4  0
 25 26  4  0
 27 29  2  0
M  END
$$$$

 Created by Python create_sdf_string function

 30 33  0  0  0  0  0  0  0  0999 V2000
    8.3036    9.8571   18.4133 C   0  0  0  0  0  0  0  0  0  0  0  0
    8.3694    7.6612   22.6703 C   0  0  0  0  0  0  0  0  0  0  0  0
    8.4143    6.6863   16.2273 C   0  0  0  0  0  0  0  0  0  0  0  0
   10.7581    6.5674   21.7636 C   0  0  0  0  0  0  0  0  0  0  0  0
    8.4452    8.7960   19.2958 O   0  0  0  0  0  0  0  0  0  0  0  0
    8.7122    6.7842   24.8569 C   0  0  0  0  0  0  0  0  0  0  0  0
   10.3400    6.1726   14.3081 C   0  0  0  0  0  0  0  0  0  0  0  0
    7.4297    7.5873   24.8962 C   0  0  0  0  0  0  0  0  0  0  0  0
    8.1566   10.0536   16.0516 O   0  0  0  0  0  0  0  0  0  0  0  0
   12.4989    6.2074   20.1776 C   0  0  0  0  0  0  0  0  0  0  0  0
    6.9192    9.1053   20.9073 O   0  0  0  0  0  0  0  0  0  0  0  0
   14.3979    6.0729   18.7784 C   0  0  0  0  0  0  0  0  0  0  0  0
    8.6811    9.5354   16.9998 C   0  0  0  0  0  0  0  0  0  0  0  0
    9.2512    4.2713   13.7653 O   0  0  0  0  0  0  0  0  0  0  0  0
    9.6495    8.6317   16.8332 N   0  0  0  0  0  0  0  0  0  0  0  0
    6.2934    8.6988   23.1988 O   0  0  0  0  0  0  0  0  0  0  0  0
    7.9806    8.6543   20.5437 C   0  0  0  0  0  0  0  0  0  0  0  0
   13.7270    5.7144   19.8610 O   0  0  0  0  0  0  0  0  0  0  0  0
    8.3351    5.5235   15.4478 C   0  0  0  0  0  0  0  0  0  0  0  0
    8.7700    7.8434   21.3915 C   0  0  0  0  0  0  0  0  0  0  0  0
   11.7856    6.8851   19.2401 C   0  0  0  0  0  0  0  0  0  0  0  0
   10.5281    7.4276   19.5649 C   0  0  0  0  0  0  0  0  0  0  0  0
   10.0256    7.2907   20.8484 C   0  0  0  0  0  0  0  0  0  0  0  0
    9.3113    5.3049   14.4911 C   0  0  0  0  0  0  0  0  0  0  0  0
    9.4607    7.5646   16.0139 C   0  0  0  0  0  0  0  0  0  0  0  0
   10.4192    7.3157   15.0955 C   0  0  0  0  0  0  0  0  0  0  0  0
   10.2489    6.4227   23.0218 N   0  0  0  0  0  0  0  0  0  0  0  0
    7.2472    8.0746   23.5050 C   0  0  0  0  0  0  0  0  0  0  0  0
    9.2051    6.9101   23.4604 C   0  0  0  0  0  0  0  0  0  0  0  0
   11.9646    6.0299   21.4251 C   0  0  0  0  0  0  0  0  0  0  0  0
  1  5  1  0
  1 13  1  0
  2 20  2  0
  2 28  1  0
  2 29  1  0
  3 19  4  0
  3 25  4  0
  4 23  4  0
  4 27  1  0
  4 30  4  0
  5 17  1  0
  6  8  1  0
  6 29  1  0
  7 24  4  0
  7 26  4  0
  8 28  1  0
  9 13  2  0
 10 18  1  0
 10 21  4  0
 10 30  4  0
 11 17  2  0
 12 18  1  0
 13 15  1  0
 14 24  1  0
 15 25  1  0
 16 28  2  0
 17 20  1  0
 19 24  4  0
 20 23  1  0
 21 22  4  0
 22 23  4  0
 25 26  4  0
 27 29  2  0
M  END
$$$$

 Created by Python create_sdf_string function

 30 33  0  0  0  0  0  0  0  0999 V2000
    8.3036    9.8571   18.4133 C   0  0  0  0  0  0  0  0  0  0  0  0
    8.3694    7.6612   22.6703 C   0  0  0  0  0  0  0  0  0  0  0  0
    8.4143    6.6863   16.2273 C   0  0  0  0  0  0  0  0  0  0  0  0
   10.7581    6.5674   21.7636 C   0  0  0  0  0  0  0  0  0  0  0  0
    8.4452    8.7960   19.2958 O   0  0  0  0  0  0  0  0  0  0  0  0
    8.7122    6.7842   24.8569 C   0  0  0  0  0  0  0  0  0  0  0  0
   10.3400    6.1726   14.3081 C   0  0  0  0  0  0  0  0  0  0  0  0
    7.4297    7.5873   24.8962 C   0  0  0  0  0  0  0  0  0  0  0  0
    8.1566   10.0536   16.0516 O   0  0  0  0  0  0  0  0  0  0  0  0
   12.4989    6.2074   20.1776 C   0  0  0  0  0  0  0  0  0  0  0  0
    6.9192    9.1053   20.9073 O   0  0  0  0  0  0  0  0  0  0  0  0
   14.3979    6.0729   18.7784 C   0  0  0  0  0  0  0  0  0  0  0  0
    8.6811    9.5354   16.9998 C   0  0  0  0  0  0  0  0  0  0  0  0
    9.2512    4.2713   13.7653 O   0  0  0  0  0  0  0  0  0  0  0  0
    9.6495    8.6317   16.8332 N   0  0  0  0  0  0  0  0  0  0  0  0
    6.2934    8.6988   23.1988 O   0  0  0  0  0  0  0  0  0  0  0  0
    7.9806    8.6543   20.5437 C   0  0  0  0  0  0  0  0  0  0  0  0
   13.7270    5.7144   19.8610 O   0  0  0  0  0  0  0  0  0  0  0  0
    8.3351    5.5235   15.4478 C   0  0  0  0  0  0  0  0  0  0  0  0
    8.7700    7.8434   21.3915 C   0  0  0  0  0  0  0  0  0  0  0  0
   11.7856    6.8851   19.2401 C   0  0  0  0  0  0  0  0  0  0  0  0
   10.5281    7.4276   19.5649 C   0  0  0  0  0  0  0  0  0  0  0  0
   10.0256    7.2907   20.8484 C   0  0  0  0  0  0  0  0  0  0  0  0
    9.3113    5.3049   14.4911 C   0  0  0  0  0  0  0  0  0  0  0  0
    9.4607    7.5646   16.0139 C   0  0  0  0  0  0  0  0  0  0  0  0
   10.4192    7.3157   15.0955 C   0  0  0  0  0  0  0  0  0  0  0  0
   10.2489    6.4227   23.0218 N   0  0  0  0  0  0  0  0  0  0  0  0
    7.2472    8.0746   23.5050 C   0  0  0  0  0  0  0  0  0  0  0  0
    9.2051    6.9101   23.4604 C   0  0  0  0  0  0  0  0  0  0  0  0
   11.9646    6.0299   21.4251 C   0  0  0  0  0  0  0  0  0  0  0  0
  1  5  1  0
  1 13  1  0
  2 20  2  0
  2 28  1  0
  2 29  1  0
  3 19  4  0
  3 25  4  0
  4 23  4  0
  4 27  1  0
  4 30  4  0
  5 17  1  0
  6  8  1  0
  6 29  1  0
  7 24  4  0
  7 26  4  0
  8 28  1  0
  9 13  2  0
 10 18  1  0
 10 21  4  0
 10 30  4  0
 11 17  2  0
 12 18  1  0
 13 15  1  0
 14 24  1  0
 15 25  1  0
 16 28  2  0
 17 20  1  0
 19 24  4  0
 20 23  1  0
 21 22  4  0
 22 23  4  0
 25 26  4  0
 27 29  2  0
M  END
$$$$

 Created by Python create_sdf_string function

 30 33  0  0  0  0  0  0  0  0999 V2000
    8.3036    9.8571   18.4133 C   0  0  0  0  0  0  0  0  0  0  0  0
    8.3694    7.6612   22.6703 C   0  0  0  0  0  0  0  0  0  0  0  0
    8.4143    6.6863   16.2273 C   0  0  0  0  0  0  0  0  0  0  0  0
   10.7581    6.5674   21.7636 C   0  0  0  0  0  0  0  0  0  0  0  0
    8.4452    8.7960   19.2958 O   0  0  0  0  0  0  0  0  0  0  0  0
    8.7122    6.7842   24.8569 C   0  0  0  0  0  0  0  0  0  0  0  0
   10.3400    6.1726   14.3081 C   0  0  0  0  0  0  0  0  0  0  0  0
    7.4297    7.5873   24.8962 C   0  0  0  0  0  0  0  0  0  0  0  0
    8.1566   10.0536   16.0516 O   0  0  0  0  0  0  0  0  0  0  0  0
   12.4989    6.2074   20.1776 C   0  0  0  0  0  0  0  0  0  0  0  0
    6.9192    9.1053   20.9073 O   0  0  0  0  0  0  0  0  0  0  0  0
   14.3979    6.0729   18.7784 C   0  0  0  0  0  0  0  0  0  0  0  0
    8.6811    9.5354   16.9998 C   0  0  0  0  0  0  0  0  0  0  0  0
    9.2512    4.2713   13.7653 O   0  0  0  0  0  0  0  0  0  0  0  0
    9.6495    8.6317   16.8332 N   0  0  0  0  0  0  0  0  0  0  0  0
    6.2934    8.6988   23.1988 O   0  0  0  0  0  0  0  0  0  0  0  0
    7.9806    8.6543   20.5437 C   0  0  0  0  0  0  0  0  0  0  0  0
   13.7270    5.7144   19.8610 O   0  0  0  0  0  0  0  0  0  0  0  0
    8.3351    5.5235   15.4478 C   0  0  0  0  0  0  0  0  0  0  0  0
    8.7700    7.8434   21.3915 C   0  0  0  0  0  0  0  0  0  0  0  0
   11.7856    6.8851   19.2401 C   0  0  0  0  0  0  0  0  0  0  0  0
   10.5281    7.4276   19.5649 C   0  0  0  0  0  0  0  0  0  0  0  0
   10.0256    7.2907   20.8484 C   0  0  0  0  0  0  0  0  0  0  0  0
    9.3113    5.3049   14.4911 C   0  0  0  0  0  0  0  0  0  0  0  0
    9.4607    7.5646   16.0139 C   0  0  0  0  0  0  0  0  0  0  0  0
   10.4192    7.3157   15.0955 C   0  0  0  0  0  0  0  0  0  0  0  0
   10.2489    6.4227   23.0218 N   0  0  0  0  0  0  0  0  0  0  0  0
    7.2472    8.0746   23.5050 C   0  0  0  0  0  0  0  0  0  0  0  0
    9.2051    6.9101   23.4604 C   0  0  0  0  0  0  0  0  0  0  0  0
   11.9646    6.0299   21.4251 C   0  0  0  0  0  0  0  0  0  0  0  0
  1  5  1  0
  1 13  1  0
  2 20  2  0
  2 28  1  0
  2 29  1  0
  3 19  4  0
  3 25  4  0
  4 23  4  0
  4 27  1  0
  4 30  4  0
  5 17  1  0
  6  8  1  0
  6 29  1  0
  7 24  4  0
  7 26  4  0
  8 28  1  0
  9 13  2  0
 10 18  1  0
 10 21  4  0
 10 30  4  0
 11 17  2  0
 12 18  1  0
 13 15  1  0
 14 24  1  0
 15 25  1  0
 16 28  2  0
 17 20  1  0
 19 24  4  0
 20 23  1  0
 21 22  4  0
 22 23  4  0
 25 26  4  0
 27 29  2  0
M  END
$$$$

 Created by Python create_sdf_string function

 30 33  0  0  0  0  0  0  0  0999 V2000
    8.3036    9.8571   18.4133 C   0  0  0  0  0  0  0  0  0  0  0  0
    8.3694    7.6612   22.6703 C   0  0  0  0  0  0  0  0  0  0  0  0
    8.4143    6.6863   16.2273 C   0  0  0  0  0  0  0  0  0  0  0  0
   10.7581    6.5674   21.7636 C   0  0  0  0  0  0  0  0  0  0  0  0
    8.4452    8.7960   19.2958 O   0  0  0  0  0  0  0  0  0  0  0  0
    8.7122    6.7842   24.8569 C   0  0  0  0  0  0  0  0  0  0  0  0
   10.3400    6.1726   14.3081 C   0  0  0  0  0  0  0  0  0  0  0  0
    7.4297    7.5873   24.8962 C   0  0  0  0  0  0  0  0  0  0  0  0
    8.1566   10.0536   16.0516 O   0  0  0  0  0  0  0  0  0  0  0  0
   12.4989    6.2074   20.1776 C   0  0  0  0  0  0  0  0  0  0  0  0
    6.9192    9.1053   20.9073 O   0  0  0  0  0  0  0  0  0  0  0  0
   14.3979    6.0729   18.7784 C   0  0  0  0  0  0  0  0  0  0  0  0
    8.6811    9.5354   16.9998 C   0  0  0  0  0  0  0  0  0  0  0  0
    9.2512    4.2713   13.7653 O   0  0  0  0  0  0  0  0  0  0  0  0
    9.6495    8.6317   16.8332 N   0  0  0  0  0  0  0  0  0  0  0  0
    6.2934    8.6988   23.1988 O   0  0  0  0  0  0  0  0  0  0  0  0
    7.9806    8.6543   20.5437 C   0  0  0  0  0  0  0  0  0  0  0  0
   13.7270    5.7144   19.8610 O   0  0  0  0  0  0  0  0  0  0  0  0
    8.3351    5.5235   15.4478 C   0  0  0  0  0  0  0  0  0  0  0  0
    8.7700    7.8434   21.3915 C   0  0  0  0  0  0  0  0  0  0  0  0
   11.7856    6.8851   19.2401 C   0  0  0  0  0  0  0  0  0  0  0  0
   10.5281    7.4276   19.5649 C   0  0  0  0  0  0  0  0  0  0  0  0
   10.0256    7.2907   20.8484 C   0  0  0  0  0  0  0  0  0  0  0  0
    9.3113    5.3049   14.4911 C   0  0  0  0  0  0  0  0  0  0  0  0
    9.4607    7.5646   16.0139 C   0  0  0  0  0  0  0  0  0  0  0  0
   10.4192    7.3157   15.0955 C   0  0  0  0  0  0  0  0  0  0  0  0
   10.2489    6.4227   23.0218 N   0  0  0  0  0  0  0  0  0  0  0  0
    7.2472    8.0746   23.5050 C   0  0  0  0  0  0  0  0  0  0  0  0
    9.2051    6.9101   23.4604 C   0  0  0  0  0  0  0  0  0  0  0  0
   11.9646    6.0299   21.4251 C   0  0  0  0  0  0  0  0  0  0  0  0
  1  5  1  0
  1 13  1  0
  2 20  2  0
  2 28  1  0
  2 29  1  0
  3 19  4  0
  3 25  4  0
  4 23  4  0
  4 27  1  0
  4 30  4  0
  5 17  1  0
  6  8  1  0
  6 29  1  0
  7 24  4  0
  7 26  4  0
  8 28  1  0
  9 13  2  0
 10 18  1  0
 10 21  4  0
 10 30  4  0
 11 17  2  0
 12 18  1  0
 13 15  1  0
 14 24  1  0
 15 25  1  0
 16 28  2  0
 17 20  1  0
 19 24  4  0
 20 23  1  0
 21 22  4  0
 22 23  4  0
 25 26  4  0
 27 29  2  0
M  END
$$$$

 Created by Python create_sdf_string function

 30 33  0  0  0  0  0  0  0  0999 V2000
    8.3036    9.8571   18.4133 C   0  0  0  0  0  0  0  0  0  0  0  0
    8.3694    7.6612   22.6703 C   0  0  0  0  0  0  0  0  0  0  0  0
    8.4143    6.6863   16.2273 C   0  0  0  0  0  0  0  0  0  0  0  0
   10.7581    6.5674   21.7636 C   0  0  0  0  0  0  0  0  0  0  0  0
    8.4452    8.7960   19.2958 O   0  0  0  0  0  0  0  0  0  0  0  0
    8.7122    6.7842   24.8569 C   0  0  0  0  0  0  0  0  0  0  0  0
   10.3400    6.1726   14.3081 C   0  0  0  0  0  0  0  0  0  0  0  0
    7.4297    7.5873   24.8962 C   0  0  0  0  0  0  0  0  0  0  0  0
    8.1566   10.0536   16.0516 O   0  0  0  0  0  0  0  0  0  0  0  0
   12.4989    6.2074   20.1776 C   0  0  0  0  0  0  0  0  0  0  0  0
    6.9192    9.1053   20.9073 O   0  0  0  0  0  0  0  0  0  0  0  0
   14.3979    6.0729   18.7784 C   0  0  0  0  0  0  0  0  0  0  0  0
    8.6811    9.5354   16.9998 C   0  0  0  0  0  0  0  0  0  0  0  0
    9.2512    4.2713   13.7653 O   0  0  0  0  0  0  0  0  0  0  0  0
    9.6495    8.6317   16.8332 N   0  0  0  0  0  0  0  0  0  0  0  0
    6.2934    8.6988   23.1988 O   0  0  0  0  0  0  0  0  0  0  0  0
    7.9806    8.6543   20.5437 C   0  0  0  0  0  0  0  0  0  0  0  0
   13.7270    5.7144   19.8610 O   0  0  0  0  0  0  0  0  0  0  0  0
    8.3351    5.5235   15.4478 C   0  0  0  0  0  0  0  0  0  0  0  0
    8.7700    7.8434   21.3915 C   0  0  0  0  0  0  0  0  0  0  0  0
   11.7856    6.8851   19.2401 C   0  0  0  0  0  0  0  0  0  0  0  0
   10.5281    7.4276   19.5649 C   0  0  0  0  0  0  0  0  0  0  0  0
   10.0256    7.2907   20.8484 C   0  0  0  0  0  0  0  0  0  0  0  0
    9.3113    5.3049   14.4911 C   0  0  0  0  0  0  0  0  0  0  0  0
    9.4607    7.5646   16.0139 C   0  0  0  0  0  0  0  0  0  0  0  0
   10.4192    7.3157   15.0955 C   0  0  0  0  0  0  0  0  0  0  0  0
   10.2489    6.4227   23.0218 N   0  0  0  0  0  0  0  0  0  0  0  0
    7.2472    8.0746   23.5050 C   0  0  0  0  0  0  0  0  0  0  0  0
    9.2051    6.9101   23.4604 C   0  0  0  0  0  0  0  0  0  0  0  0
   11.9646    6.0299   21.4251 C   0  0  0  0  0  0  0  0  0  0  0  0
  1  5  1  0
  1 13  1  0
  2 20  2  0
  2 28  1  0
  2 29  1  0
  3 19  4  0
  3 25  4  0
  4 23  4  0
  4 27  1  0
  4 30  4  0
  5 17  1  0
  6  8  1  0
  6 29  1  0
  7 24  4  0
  7 26  4  0
  8 28  1  0
  9 13  2  0
 10 18  1  0
 10 21  4  0
 10 30  4  0
 11 17  2  0
 12 18  1  0
 13 15  1  0
 14 24  1  0
 15 25  1  0
 16 28  2  0
 17 20  1  0
 19 24  4  0
 20 23  1  0
 21 22  4  0
 22 23  4  0
 25 26  4  0
 27 29  2  0
M  END
$$$$

 Created by Python create_sdf_string function

 30 33  0  0  0  0  0  0  0  0999 V2000
    8.3036    9.8571   18.4133 C   0  0  0  0  0  0  0  0  0  0  0  0
    8.3694    7.6612   22.6703 C   0  0  0  0  0  0  0  0  0  0  0  0
    8.4143    6.6863   16.2273 C   0  0  0  0  0  0  0  0  0  0  0  0
   10.7581    6.5674   21.7636 C   0  0  0  0  0  0  0  0  0  0  0  0
    8.4452    8.7960   19.2958 O   0  0  0  0  0  0  0  0  0  0  0  0
    8.7122    6.7842   24.8569 C   0  0  0  0  0  0  0  0  0  0  0  0
   10.3400    6.1726   14.3081 C   0  0  0  0  0  0  0  0  0  0  0  0
    7.4297    7.5873   24.8962 C   0  0  0  0  0  0  0  0  0  0  0  0
    8.1566   10.0536   16.0516 O   0  0  0  0  0  0  0  0  0  0  0  0
   12.4989    6.2074   20.1776 C   0  0  0  0  0  0  0  0  0  0  0  0
    6.9192    9.1053   20.9073 O   0  0  0  0  0  0  0  0  0  0  0  0
   14.3979    6.0729   18.7784 C   0  0  0  0  0  0  0  0  0  0  0  0
    8.6811    9.5354   16.9998 C   0  0  0  0  0  0  0  0  0  0  0  0
    9.2512    4.2713   13.7653 O   0  0  0  0  0  0  0  0  0  0  0  0
    9.6495    8.6317   16.8332 N   0  0  0  0  0  0  0  0  0  0  0  0
    6.2934    8.6988   23.1988 O   0  0  0  0  0  0  0  0  0  0  0  0
    7.9806    8.6543   20.5437 C   0  0  0  0  0  0  0  0  0  0  0  0
   13.7270    5.7144   19.8610 O   0  0  0  0  0  0  0  0  0  0  0  0
    8.3351    5.5235   15.4478 C   0  0  0  0  0  0  0  0  0  0  0  0
    8.7700    7.8434   21.3915 C   0  0  0  0  0  0  0  0  0  0  0  0
   11.7856    6.8851   19.2401 C   0  0  0  0  0  0  0  0  0  0  0  0
   10.5281    7.4276   19.5649 C   0  0  0  0  0  0  0  0  0  0  0  0
   10.0256    7.2907   20.8484 C   0  0  0  0  0  0  0  0  0  0  0  0
    9.3113    5.3049   14.4911 C   0  0  0  0  0  0  0  0  0  0  0  0
    9.4607    7.5646   16.0139 C   0  0  0  0  0  0  0  0  0  0  0  0
   10.4192    7.3157   15.0955 C   0  0  0  0  0  0  0  0  0  0  0  0
   10.2489    6.4227   23.0218 N   0  0  0  0  0  0  0  0  0  0  0  0
    7.2472    8.0746   23.5050 C   0  0  0  0  0  0  0  0  0  0  0  0
    9.2051    6.9101   23.4604 C   0  0  0  0  0  0  0  0  0  0  0  0
   11.9646    6.0299   21.4251 C   0  0  0  0  0  0  0  0  0  0  0  0
  1  5  1  0
  1 13  1  0
  2 20  2  0
  2 28  1  0
  2 29  1  0
  3 19  4  0
  3 25  4  0
  4 23  4  0
  4 27  1  0
  4 30  4  0
  5 17  1  0
  6  8  1  0
  6 29  1  0
  7 24  4  0
  7 26  4  0
  8 28  1  0
  9 13  2  0
 10 18  1  0
 10 21  4  0
 10 30  4  0
 11 17  2  0
 12 18  1  0
 13 15  1  0
 14 24  1  0
 15 25  1  0
 16 28  2  0
 17 20  1  0
 19 24  4  0
 20 23  1  0
 21 22  4  0
 22 23  4  0
 25 26  4  0
 27 29  2  0
M  END
$$$$

 Created by Python create_sdf_string function

 30 33  0  0  0  0  0  0  0  0999 V2000
    8.3036    9.8571   18.4133 C   0  0  0  0  0  0  0  0  0  0  0  0
    8.3694    7.6612   22.6703 C   0  0  0  0  0  0  0  0  0  0  0  0
    8.4143    6.6863   16.2273 C   0  0  0  0  0  0  0  0  0  0  0  0
   10.7581    6.5674   21.7636 C   0  0  0  0  0  0  0  0  0  0  0  0
    8.4452    8.7960   19.2958 O   0  0  0  0  0  0  0  0  0  0  0  0
    8.7122    6.7842   24.8569 C   0  0  0  0  0  0  0  0  0  0  0  0
   10.3400    6.1726   14.3081 C   0  0  0  0  0  0  0  0  0  0  0  0
    7.4297    7.5873   24.8962 C   0  0  0  0  0  0  0  0  0  0  0  0
    8.1566   10.0536   16.0516 O   0  0  0  0  0  0  0  0  0  0  0  0
   12.4989    6.2074   20.1776 C   0  0  0  0  0  0  0  0  0  0  0  0
    6.9192    9.1053   20.9073 O   0  0  0  0  0  0  0  0  0  0  0  0
   14.3979    6.0729   18.7784 C   0  0  0  0  0  0  0  0  0  0  0  0
    8.6811    9.5354   16.9998 C   0  0  0  0  0  0  0  0  0  0  0  0
    9.2512    4.2713   13.7653 O   0  0  0  0  0  0  0  0  0  0  0  0
    9.6495    8.6317   16.8332 N   0  0  0  0  0  0  0  0  0  0  0  0
    6.2934    8.6988   23.1988 O   0  0  0  0  0  0  0  0  0  0  0  0
    7.9806    8.6543   20.5437 C   0  0  0  0  0  0  0  0  0  0  0  0
   13.7270    5.7144   19.8610 O   0  0  0  0  0  0  0  0  0  0  0  0
    8.3351    5.5235   15.4478 C   0  0  0  0  0  0  0  0  0  0  0  0
    8.7700    7.8434   21.3915 C   0  0  0  0  0  0  0  0  0  0  0  0
   11.7856    6.8851   19.2401 C   0  0  0  0  0  0  0  0  0  0  0  0
   10.5281    7.4276   19.5649 C   0  0  0  0  0  0  0  0  0  0  0  0
   10.0256    7.2907   20.8484 C   0  0  0  0  0  0  0  0  0  0  0  0
    9.3113    5.3049   14.4911 C   0  0  0  0  0  0  0  0  0  0  0  0
    9.4607    7.5646   16.0139 C   0  0  0  0  0  0  0  0  0  0  0  0
   10.4192    7.3157   15.0955 C   0  0  0  0  0  0  0  0  0  0  0  0
   10.2489    6.4227   23.0218 N   0  0  0  0  0  0  0  0  0  0  0  0
    7.2472    8.0746   23.5050 C   0  0  0  0  0  0  0  0  0  0  0  0
    9.2051    6.9101   23.4604 C   0  0  0  0  0  0  0  0  0  0  0  0
   11.9646    6.0299   21.4251 C   0  0  0  0  0  0  0  0  0  0  0  0
  1  5  1  0
  1 13  1  0
  2 20  2  0
  2 28  1  0
  2 29  1  0
  3 19  4  0
  3 25  4  0
  4 23  4  0
  4 27  1  0
  4 30  4  0
  5 17  1  0
  6  8  1  0
  6 29  1  0
  7 24  4  0
  7 26  4  0
  8 28  1  0
  9 13  2  0
 10 18  1  0
 10 21  4  0
 10 30  4  0
 11 17  2  0
 12 18  1  0
 13 15  1  0
 14 24  1  0
 15 25  1  0
 16 28  2  0
 17 20  1  0
 19 24  4  0
 20 23  1  0
 21 22  4  0
 22 23  4  0
 25 26  4  0
 27 29  2  0
M  END
$$$$

 Created by Python create_sdf_string function

 30 33  0  0  0  0  0  0  0  0999 V2000
    8.3036    9.8571   18.4133 C   0  0  0  0  0  0  0  0  0  0  0  0
    8.3694    7.6612   22.6703 C   0  0  0  0  0  0  0  0  0  0  0  0
    8.4143    6.6863   16.2273 C   0  0  0  0  0  0  0  0  0  0  0  0
   10.7581    6.5674   21.7636 C   0  0  0  0  0  0  0  0  0  0  0  0
    8.4452    8.7960   19.2958 O   0  0  0  0  0  0  0  0  0  0  0  0
    8.7122    6.7842   24.8569 C   0  0  0  0  0  0  0  0  0  0  0  0
   10.3400    6.1726   14.3081 C   0  0  0  0  0  0  0  0  0  0  0  0
    7.4297    7.5873   24.8962 C   0  0  0  0  0  0  0  0  0  0  0  0
    8.1566   10.0536   16.0516 O   0  0  0  0  0  0  0  0  0  0  0  0
   12.4989    6.2074   20.1776 C   0  0  0  0  0  0  0  0  0  0  0  0
    6.9192    9.1053   20.9073 O   0  0  0  0  0  0  0  0  0  0  0  0
   14.3979    6.0729   18.7784 C   0  0  0  0  0  0  0  0  0  0  0  0
    8.6811    9.5354   16.9998 C   0  0  0  0  0  0  0  0  0  0  0  0
    9.2512    4.2713   13.7653 O   0  0  0  0  0  0  0  0  0  0  0  0
    9.6495    8.6317   16.8332 N   0  0  0  0  0  0  0  0  0  0  0  0
    6.2934    8.6988   23.1988 O   0  0  0  0  0  0  0  0  0  0  0  0
    7.9806    8.6543   20.5437 C   0  0  0  0  0  0  0  0  0  0  0  0
   13.7270    5.7144   19.8610 O   0  0  0  0  0  0  0  0  0  0  0  0
    8.3351    5.5235   15.4478 C   0  0  0  0  0  0  0  0  0  0  0  0
    8.7700    7.8434   21.3915 C   0  0  0  0  0  0  0  0  0  0  0  0
   11.7856    6.8851   19.2401 C   0  0  0  0  0  0  0  0  0  0  0  0
   10.5281    7.4276   19.5649 C   0  0  0  0  0  0  0  0  0  0  0  0
   10.0256    7.2907   20.8484 C   0  0  0  0  0  0  0  0  0  0  0  0
    9.3113    5.3049   14.4911 C   0  0  0  0  0  0  0  0  0  0  0  0
    9.4607    7.5646   16.0139 C   0  0  0  0  0  0  0  0  0  0  0  0
   10.4192    7.3157   15.0955 C   0  0  0  0  0  0  0  0  0  0  0  0
   10.2489    6.4227   23.0218 N   0  0  0  0  0  0  0  0  0  0  0  0
    7.2472    8.0746   23.5050 C   0  0  0  0  0  0  0  0  0  0  0  0
    9.2051    6.9101   23.4604 C   0  0  0  0  0  0  0  0  0  0  0  0
   11.9646    6.0299   21.4251 C   0  0  0  0  0  0  0  0  0  0  0  0
  1  5  1  0
  1 13  1  0
  2 20  2  0
  2 28  1  0
  2 29  1  0
  3 19  4  0
  3 25  4  0
  4 23  4  0
  4 27  1  0
  4 30  4  0
  5 17  1  0
  6  8  1  0
  6 29  1  0
  7 24  4  0
  7 26  4  0
  8 28  1  0
  9 13  2  0
 10 18  1  0
 10 21  4  0
 10 30  4  0
 11 17  2  0
 12 18  1  0
 13 15  1  0
 14 24  1  0
 15 25  1  0
 16 28  2  0
 17 20  1  0
 19 24  4  0
 20 23  1  0
 21 22  4  0
 22 23  4  0
 25 26  4  0
 27 29  2  0
M  END
$$$$

 Created by Python create_sdf_string function

 30 33  0  0  0  0  0  0  0  0999 V2000
    8.3036    9.8571   18.4133 C   0  0  0  0  0  0  0  0  0  0  0  0
    8.3694    7.6612   22.6703 C   0  0  0  0  0  0  0  0  0  0  0  0
    8.4143    6.6863   16.2273 C   0  0  0  0  0  0  0  0  0  0  0  0
   10.7581    6.5674   21.7636 C   0  0  0  0  0  0  0  0  0  0  0  0
    8.4452    8.7960   19.2958 O   0  0  0  0  0  0  0  0  0  0  0  0
    8.7122    6.7842   24.8569 C   0  0  0  0  0  0  0  0  0  0  0  0
   10.3400    6.1726   14.3081 C   0  0  0  0  0  0  0  0  0  0  0  0
    7.4297    7.5873   24.8962 C   0  0  0  0  0  0  0  0  0  0  0  0
    8.1566   10.0536   16.0516 O   0  0  0  0  0  0  0  0  0  0  0  0
   12.4989    6.2074   20.1776 C   0  0  0  0  0  0  0  0  0  0  0  0
    6.9192    9.1053   20.9073 O   0  0  0  0  0  0  0  0  0  0  0  0
   14.3979    6.0729   18.7784 C   0  0  0  0  0  0  0  0  0  0  0  0
    8.6811    9.5354   16.9998 C   0  0  0  0  0  0  0  0  0  0  0  0
    9.2512    4.2713   13.7653 O   0  0  0  0  0  0  0  0  0  0  0  0
    9.6495    8.6317   16.8332 N   0  0  0  0  0  0  0  0  0  0  0  0
    6.2934    8.6988   23.1988 O   0  0  0  0  0  0  0  0  0  0  0  0
    7.9806    8.6543   20.5437 C   0  0  0  0  0  0  0  0  0  0  0  0
   13.7270    5.7144   19.8610 O   0  0  0  0  0  0  0  0  0  0  0  0
    8.3351    5.5235   15.4478 C   0  0  0  0  0  0  0  0  0  0  0  0
    8.7700    7.8434   21.3915 C   0  0  0  0  0  0  0  0  0  0  0  0
   11.7856    6.8851   19.2401 C   0  0  0  0  0  0  0  0  0  0  0  0
   10.5281    7.4276   19.5649 C   0  0  0  0  0  0  0  0  0  0  0  0
   10.0256    7.2907   20.8484 C   0  0  0  0  0  0  0  0  0  0  0  0
    9.3113    5.3049   14.4911 C   0  0  0  0  0  0  0  0  0  0  0  0
    9.4607    7.5646   16.0139 C   0  0  0  0  0  0  0  0  0  0  0  0
   10.4192    7.3157   15.0955 C   0  0  0  0  0  0  0  0  0  0  0  0
   10.2489    6.4227   23.0218 N   0  0  0  0  0  0  0  0  0  0  0  0
    7.2472    8.0746   23.5050 C   0  0  0  0  0  0  0  0  0  0  0  0
    9.2051    6.9101   23.4604 C   0  0  0  0  0  0  0  0  0  0  0  0
   11.9646    6.0299   21.4251 C   0  0  0  0  0  0  0  0  0  0  0  0
  1  5  1  0
  1 13  1  0
  2 20  2  0
  2 28  1  0
  2 29  1  0
  3 19  4  0
  3 25  4  0
  4 23  4  0
  4 27  1  0
  4 30  4  0
  5 17  1  0
  6  8  1  0
  6 29  1  0
  7 24  4  0
  7 26  4  0
  8 28  1  0
  9 13  2  0
 10 18  1  0
 10 21  4  0
 10 30  4  0
 11 17  2  0
 12 18  1  0
 13 15  1  0
 14 24  1  0
 15 25  1  0
 16 28  2  0
 17 20  1  0
 19 24  4  0
 20 23  1  0
 21 22  4  0
 22 23  4  0
 25 26  4  0
 27 29  2  0
M  END
$$$$

 Created by Python create_sdf_string function

 30 33  0  0  0  0  0  0  0  0999 V2000
    8.3036    9.8571   18.4133 C   0  0  0  0  0  0  0  0  0  0  0  0
    8.3694    7.6612   22.6703 C   0  0  0  0  0  0  0  0  0  0  0  0
    8.4143    6.6863   16.2273 C   0  0  0  0  0  0  0  0  0  0  0  0
   10.7581    6.5674   21.7636 C   0  0  0  0  0  0  0  0  0  0  0  0
    8.4452    8.7960   19.2958 O   0  0  0  0  0  0  0  0  0  0  0  0
    8.7122    6.7842   24.8569 C   0  0  0  0  0  0  0  0  0  0  0  0
   10.3400    6.1726   14.3081 C   0  0  0  0  0  0  0  0  0  0  0  0
    7.4297    7.5873   24.8962 C   0  0  0  0  0  0  0  0  0  0  0  0
    8.1566   10.0536   16.0516 O   0  0  0  0  0  0  0  0  0  0  0  0
   12.4989    6.2074   20.1776 C   0  0  0  0  0  0  0  0  0  0  0  0
    6.9192    9.1053   20.9073 O   0  0  0  0  0  0  0  0  0  0  0  0
   14.3979    6.0729   18.7784 C   0  0  0  0  0  0  0  0  0  0  0  0
    8.6811    9.5354   16.9998 C   0  0  0  0  0  0  0  0  0  0  0  0
    9.2512    4.2713   13.7653 O   0  0  0  0  0  0  0  0  0  0  0  0
    9.6495    8.6317   16.8332 N   0  0  0  0  0  0  0  0  0  0  0  0
    6.2934    8.6988   23.1988 O   0  0  0  0  0  0  0  0  0  0  0  0
    7.9806    8.6543   20.5437 C   0  0  0  0  0  0  0  0  0  0  0  0
   13.7270    5.7144   19.8610 O   0  0  0  0  0  0  0  0  0  0  0  0
    8.3351    5.5235   15.4478 C   0  0  0  0  0  0  0  0  0  0  0  0
    8.7700    7.8434   21.3915 C   0  0  0  0  0  0  0  0  0  0  0  0
   11.7856    6.8851   19.2401 C   0  0  0  0  0  0  0  0  0  0  0  0
   10.5281    7.4276   19.5649 C   0  0  0  0  0  0  0  0  0  0  0  0
   10.0256    7.2907   20.8484 C   0  0  0  0  0  0  0  0  0  0  0  0
    9.3113    5.3049   14.4911 C   0  0  0  0  0  0  0  0  0  0  0  0
    9.4607    7.5646   16.0139 C   0  0  0  0  0  0  0  0  0  0  0  0
   10.4192    7.3157   15.0955 C   0  0  0  0  0  0  0  0  0  0  0  0
   10.2489    6.4227   23.0218 N   0  0  0  0  0  0  0  0  0  0  0  0
    7.2472    8.0746   23.5050 C   0  0  0  0  0  0  0  0  0  0  0  0
    9.2051    6.9101   23.4604 C   0  0  0  0  0  0  0  0  0  0  0  0
   11.9646    6.0299   21.4251 C   0  0  0  0  0  0  0  0  0  0  0  0
  1  5  1  0
  1 13  1  0
  2 20  2  0
  2 28  1  0
  2 29  1  0
  3 19  4  0
  3 25  4  0
  4 23  4  0
  4 27  1  0
  4 30  4  0
  5 17  1  0
  6  8  1  0
  6 29  1  0
  7 24  4  0
  7 26  4  0
  8 28  1  0
  9 13  2  0
 10 18  1  0
 10 21  4  0
 10 30  4  0
 11 17  2  0
 12 18  1  0
 13 15  1  0
 14 24  1  0
 15 25  1  0
 16 28  2  0
 17 20  1  0
 19 24  4  0
 20 23  1  0
 21 22  4  0
 22 23  4  0
 25 26  4  0
 27 29  2  0
M  END
$$$$

 Created by Python create_sdf_string function

 30 33  0  0  0  0  0  0  0  0999 V2000
    8.3036    9.8571   18.4133 C   0  0  0  0  0  0  0  0  0  0  0  0
    8.3694    7.6612   22.6703 C   0  0  0  0  0  0  0  0  0  0  0  0
    8.4143    6.6863   16.2273 C   0  0  0  0  0  0  0  0  0  0  0  0
   10.7581    6.5674   21.7636 C   0  0  0  0  0  0  0  0  0  0  0  0
    8.4452    8.7960   19.2958 O   0  0  0  0  0  0  0  0  0  0  0  0
    8.7122    6.7842   24.8569 C   0  0  0  0  0  0  0  0  0  0  0  0
   10.3400    6.1726   14.3081 C   0  0  0  0  0  0  0  0  0  0  0  0
    7.4297    7.5873   24.8962 C   0  0  0  0  0  0  0  0  0  0  0  0
    8.1566   10.0536   16.0516 O   0  0  0  0  0  0  0  0  0  0  0  0
   12.4989    6.2074   20.1776 C   0  0  0  0  0  0  0  0  0  0  0  0
    6.9192    9.1053   20.9073 O   0  0  0  0  0  0  0  0  0  0  0  0
   14.3979    6.0729   18.7784 C   0  0  0  0  0  0  0  0  0  0  0  0
    8.6811    9.5354   16.9998 C   0  0  0  0  0  0  0  0  0  0  0  0
    9.2512    4.2713   13.7653 O   0  0  0  0  0  0  0  0  0  0  0  0
    9.6495    8.6317   16.8332 N   0  0  0  0  0  0  0  0  0  0  0  0
    6.2934    8.6988   23.1988 O   0  0  0  0  0  0  0  0  0  0  0  0
    7.9806    8.6543   20.5437 C   0  0  0  0  0  0  0  0  0  0  0  0
   13.7270    5.7144   19.8610 O   0  0  0  0  0  0  0  0  0  0  0  0
    8.3351    5.5235   15.4478 C   0  0  0  0  0  0  0  0  0  0  0  0
    8.7700    7.8434   21.3915 C   0  0  0  0  0  0  0  0  0  0  0  0
   11.7856    6.8851   19.2401 C   0  0  0  0  0  0  0  0  0  0  0  0
   10.5281    7.4276   19.5649 C   0  0  0  0  0  0  0  0  0  0  0  0
   10.0256    7.2907   20.8484 C   0  0  0  0  0  0  0  0  0  0  0  0
    9.3113    5.3049   14.4911 C   0  0  0  0  0  0  0  0  0  0  0  0
    9.4607    7.5646   16.0139 C   0  0  0  0  0  0  0  0  0  0  0  0
   10.4192    7.3157   15.0955 C   0  0  0  0  0  0  0  0  0  0  0  0
   10.2489    6.4227   23.0218 N   0  0  0  0  0  0  0  0  0  0  0  0
    7.2472    8.0746   23.5050 C   0  0  0  0  0  0  0  0  0  0  0  0
    9.2051    6.9101   23.4604 C   0  0  0  0  0  0  0  0  0  0  0  0
   11.9646    6.0299   21.4251 C   0  0  0  0  0  0  0  0  0  0  0  0
  1  5  1  0
  1 13  1  0
  2 20  2  0
  2 28  1  0
  2 29  1  0
  3 19  4  0
  3 25  4  0
  4 23  4  0
  4 27  1  0
  4 30  4  0
  5 17  1  0
  6  8  1  0
  6 29  1  0
  7 24  4  0
  7 26  4  0
  8 28  1  0
  9 13  2  0
 10 18  1  0
 10 21  4  0
 10 30  4  0
 11 17  2  0
 12 18  1  0
 13 15  1  0
 14 24  1  0
 15 25  1  0
 16 28  2  0
 17 20  1  0
 19 24  4  0
 20 23  1  0
 21 22  4  0
 22 23  4  0
 25 26  4  0
 27 29  2  0
M  END
$$$$

 Created by Python create_sdf_string function

 30 33  0  0  0  0  0  0  0  0999 V2000
    8.3036    9.8571   18.4133 C   0  0  0  0  0  0  0  0  0  0  0  0
    8.3694    7.6612   22.6703 C   0  0  0  0  0  0  0  0  0  0  0  0
    8.4143    6.6863   16.2273 C   0  0  0  0  0  0  0  0  0  0  0  0
   10.7581    6.5674   21.7636 C   0  0  0  0  0  0  0  0  0  0  0  0
    8.4452    8.7960   19.2958 O   0  0  0  0  0  0  0  0  0  0  0  0
    8.7122    6.7842   24.8569 C   0  0  0  0  0  0  0  0  0  0  0  0
   10.3400    6.1726   14.3081 C   0  0  0  0  0  0  0  0  0  0  0  0
    7.4297    7.5873   24.8962 C   0  0  0  0  0  0  0  0  0  0  0  0
    8.1566   10.0536   16.0516 O   0  0  0  0  0  0  0  0  0  0  0  0
   12.4989    6.2074   20.1776 C   0  0  0  0  0  0  0  0  0  0  0  0
    6.9192    9.1053   20.9073 O   0  0  0  0  0  0  0  0  0  0  0  0
   14.3979    6.0729   18.7784 C   0  0  0  0  0  0  0  0  0  0  0  0
    8.6811    9.5354   16.9998 C   0  0  0  0  0  0  0  0  0  0  0  0
    9.2512    4.2713   13.7653 O   0  0  0  0  0  0  0  0  0  0  0  0
    9.6495    8.6317   16.8332 N   0  0  0  0  0  0  0  0  0  0  0  0
    6.2934    8.6988   23.1988 O   0  0  0  0  0  0  0  0  0  0  0  0
    7.9806    8.6543   20.5437 C   0  0  0  0  0  0  0  0  0  0  0  0
   13.7270    5.7144   19.8610 O   0  0  0  0  0  0  0  0  0  0  0  0
    8.3351    5.5235   15.4478 C   0  0  0  0  0  0  0  0  0  0  0  0
    8.7700    7.8434   21.3915 C   0  0  0  0  0  0  0  0  0  0  0  0
   11.7856    6.8851   19.2401 C   0  0  0  0  0  0  0  0  0  0  0  0
   10.5281    7.4276   19.5649 C   0  0  0  0  0  0  0  0  0  0  0  0
   10.0256    7.2907   20.8484 C   0  0  0  0  0  0  0  0  0  0  0  0
    9.3113    5.3049   14.4911 C   0  0  0  0  0  0  0  0  0  0  0  0
    9.4607    7.5646   16.0139 C   0  0  0  0  0  0  0  0  0  0  0  0
   10.4192    7.3157   15.0955 C   0  0  0  0  0  0  0  0  0  0  0  0
   10.2489    6.4227   23.0218 N   0  0  0  0  0  0  0  0  0  0  0  0
    7.2472    8.0746   23.5050 C   0  0  0  0  0  0  0  0  0  0  0  0
    9.2051    6.9101   23.4604 C   0  0  0  0  0  0  0  0  0  0  0  0
   11.9646    6.0299   21.4251 C   0  0  0  0  0  0  0  0  0  0  0  0
  1  5  1  0
  1 13  1  0
  2 20  2  0
  2 28  1  0
  2 29  1  0
  3 19  4  0
  3 25  4  0
  4 23  4  0
  4 27  1  0
  4 30  4  0
  5 17  1  0
  6  8  1  0
  6 29  1  0
  7 24  4  0
  7 26  4  0
  8 28  1  0
  9 13  2  0
 10 18  1  0
 10 21  4  0
 10 30  4  0
 11 17  2  0
 12 18  1  0
 13 15  1  0
 14 24  1  0
 15 25  1  0
 16 28  2  0
 17 20  1  0
 19 24  4  0
 20 23  1  0
 21 22  4  0
 22 23  4  0
 25 26  4  0
 27 29  2  0
M  END
$$$$

 Created by Python create_sdf_string function

 30 33  0  0  0  0  0  0  0  0999 V2000
    8.3036    9.8571   18.4133 C   0  0  0  0  0  0  0  0  0  0  0  0
    8.3694    7.6612   22.6703 C   0  0  0  0  0  0  0  0  0  0  0  0
    8.4143    6.6863   16.2273 C   0  0  0  0  0  0  0  0  0  0  0  0
   10.7581    6.5674   21.7636 C   0  0  0  0  0  0  0  0  0  0  0  0
    8.4452    8.7960   19.2958 O   0  0  0  0  0  0  0  0  0  0  0  0
    8.7122    6.7842   24.8569 C   0  0  0  0  0  0  0  0  0  0  0  0
   10.3400    6.1726   14.3081 C   0  0  0  0  0  0  0  0  0  0  0  0
    7.4297    7.5873   24.8962 C   0  0  0  0  0  0  0  0  0  0  0  0
    8.1566   10.0536   16.0516 O   0  0  0  0  0  0  0  0  0  0  0  0
   12.4989    6.2074   20.1776 C   0  0  0  0  0  0  0  0  0  0  0  0
    6.9192    9.1053   20.9073 O   0  0  0  0  0  0  0  0  0  0  0  0
   14.3979    6.0729   18.7784 C   0  0  0  0  0  0  0  0  0  0  0  0
    8.6811    9.5354   16.9998 C   0  0  0  0  0  0  0  0  0  0  0  0
    9.2512    4.2713   13.7653 O   0  0  0  0  0  0  0  0  0  0  0  0
    9.6495    8.6317   16.8332 N   0  0  0  0  0  0  0  0  0  0  0  0
    6.2934    8.6988   23.1988 O   0  0  0  0  0  0  0  0  0  0  0  0
    7.9806    8.6543   20.5437 C   0  0  0  0  0  0  0  0  0  0  0  0
   13.7270    5.7144   19.8610 O   0  0  0  0  0  0  0  0  0  0  0  0
    8.3351    5.5235   15.4478 C   0  0  0  0  0  0  0  0  0  0  0  0
    8.7700    7.8434   21.3915 C   0  0  0  0  0  0  0  0  0  0  0  0
   11.7856    6.8851   19.2401 C   0  0  0  0  0  0  0  0  0  0  0  0
   10.5281    7.4276   19.5649 C   0  0  0  0  0  0  0  0  0  0  0  0
   10.0256    7.2907   20.8484 C   0  0  0  0  0  0  0  0  0  0  0  0
    9.3113    5.3049   14.4911 C   0  0  0  0  0  0  0  0  0  0  0  0
    9.4607    7.5646   16.0139 C   0  0  0  0  0  0  0  0  0  0  0  0
   10.4192    7.3157   15.0955 C   0  0  0  0  0  0  0  0  0  0  0  0
   10.2489    6.4227   23.0218 N   0  0  0  0  0  0  0  0  0  0  0  0
    7.2472    8.0746   23.5050 C   0  0  0  0  0  0  0  0  0  0  0  0
    9.2051    6.9101   23.4604 C   0  0  0  0  0  0  0  0  0  0  0  0
   11.9646    6.0299   21.4251 C   0  0  0  0  0  0  0  0  0  0  0  0
  1  5  1  0
  1 13  1  0
  2 20  2  0
  2 28  1  0
  2 29  1  0
  3 19  4  0
  3 25  4  0
  4 23  4  0
  4 27  1  0
  4 30  4  0
  5 17  1  0
  6  8  1  0
  6 29  1  0
  7 24  4  0
  7 26  4  0
  8 28  1  0
  9 13  2  0
 10 18  1  0
 10 21  4  0
 10 30  4  0
 11 17  2  0
 12 18  1  0
 13 15  1  0
 14 24  1  0
 15 25  1  0
 16 28  2  0
 17 20  1  0
 19 24  4  0
 20 23  1  0
 21 22  4  0
 22 23  4  0
 25 26  4  0
 27 29  2  0
M  END
$$$$

 Created by Python create_sdf_string function

 30 33  0  0  0  0  0  0  0  0999 V2000
    8.3036    9.8571   18.4133 C   0  0  0  0  0  0  0  0  0  0  0  0
    8.3694    7.6612   22.6703 C   0  0  0  0  0  0  0  0  0  0  0  0
    8.4143    6.6863   16.2273 C   0  0  0  0  0  0  0  0  0  0  0  0
   10.7581    6.5674   21.7636 C   0  0  0  0  0  0  0  0  0  0  0  0
    8.4452    8.7960   19.2958 O   0  0  0  0  0  0  0  0  0  0  0  0
    8.7122    6.7842   24.8569 C   0  0  0  0  0  0  0  0  0  0  0  0
   10.3400    6.1726   14.3081 C   0  0  0  0  0  0  0  0  0  0  0  0
    7.4297    7.5873   24.8962 C   0  0  0  0  0  0  0  0  0  0  0  0
    8.1566   10.0536   16.0516 O   0  0  0  0  0  0  0  0  0  0  0  0
   12.4989    6.2074   20.1776 C   0  0  0  0  0  0  0  0  0  0  0  0
    6.9192    9.1053   20.9073 O   0  0  0  0  0  0  0  0  0  0  0  0
   14.3979    6.0729   18.7784 C   0  0  0  0  0  0  0  0  0  0  0  0
    8.6811    9.5354   16.9998 C   0  0  0  0  0  0  0  0  0  0  0  0
    9.2512    4.2713   13.7653 O   0  0  0  0  0  0  0  0  0  0  0  0
    9.6495    8.6317   16.8332 N   0  0  0  0  0  0  0  0  0  0  0  0
    6.2934    8.6988   23.1988 O   0  0  0  0  0  0  0  0  0  0  0  0
    7.9806    8.6543   20.5437 C   0  0  0  0  0  0  0  0  0  0  0  0
   13.7270    5.7144   19.8610 O   0  0  0  0  0  0  0  0  0  0  0  0
    8.3351    5.5235   15.4478 C   0  0  0  0  0  0  0  0  0  0  0  0
    8.7700    7.8434   21.3915 C   0  0  0  0  0  0  0  0  0  0  0  0
   11.7856    6.8851   19.2401 C   0  0  0  0  0  0  0  0  0  0  0  0
   10.5281    7.4276   19.5649 C   0  0  0  0  0  0  0  0  0  0  0  0
   10.0256    7.2907   20.8484 C   0  0  0  0  0  0  0  0  0  0  0  0
    9.3113    5.3049   14.4911 C   0  0  0  0  0  0  0  0  0  0  0  0
    9.4607    7.5646   16.0139 C   0  0  0  0  0  0  0  0  0  0  0  0
   10.4192    7.3157   15.0955 C   0  0  0  0  0  0  0  0  0  0  0  0
   10.2489    6.4227   23.0218 N   0  0  0  0  0  0  0  0  0  0  0  0
    7.2472    8.0746   23.5050 C   0  0  0  0  0  0  0  0  0  0  0  0
    9.2051    6.9101   23.4604 C   0  0  0  0  0  0  0  0  0  0  0  0
   11.9646    6.0299   21.4251 C   0  0  0  0  0  0  0  0  0  0  0  0
  1  5  1  0
  1 13  1  0
  2 20  2  0
  2 28  1  0
  2 29  1  0
  3 19  4  0
  3 25  4  0
  4 23  4  0
  4 27  1  0
  4 30  4  0
  5 17  1  0
  6  8  1  0
  6 29  1  0
  7 24  4  0
  7 26  4  0
  8 28  1  0
  9 13  2  0
 10 18  1  0
 10 21  4  0
 10 30  4  0
 11 17  2  0
 12 18  1  0
 13 15  1  0
 14 24  1  0
 15 25  1  0
 16 28  2  0
 17 20  1  0
 19 24  4  0
 20 23  1  0
 21 22  4  0
 22 23  4  0
 25 26  4  0
 27 29  2  0
M  END
$$$$

 Created by Python create_sdf_string function

 30 33  0  0  0  0  0  0  0  0999 V2000
    8.3036    9.8571   18.4133 C   0  0  0  0  0  0  0  0  0  0  0  0
    8.3694    7.6612   22.6703 C   0  0  0  0  0  0  0  0  0  0  0  0
    8.4143    6.6863   16.2273 C   0  0  0  0  0  0  0  0  0  0  0  0
   10.7581    6.5674   21.7636 C   0  0  0  0  0  0  0  0  0  0  0  0
    8.4452    8.7960   19.2958 O   0  0  0  0  0  0  0  0  0  0  0  0
    8.7122    6.7842   24.8569 C   0  0  0  0  0  0  0  0  0  0  0  0
   10.3400    6.1726   14.3081 C   0  0  0  0  0  0  0  0  0  0  0  0
    7.4297    7.5873   24.8962 C   0  0  0  0  0  0  0  0  0  0  0  0
    8.1566   10.0536   16.0516 O   0  0  0  0  0  0  0  0  0  0  0  0
   12.4989    6.2074   20.1776 C   0  0  0  0  0  0  0  0  0  0  0  0
    6.9192    9.1053   20.9073 O   0  0  0  0  0  0  0  0  0  0  0  0
   14.3979    6.0729   18.7784 C   0  0  0  0  0  0  0  0  0  0  0  0
    8.6811    9.5354   16.9998 C   0  0  0  0  0  0  0  0  0  0  0  0
    9.2512    4.2713   13.7653 O   0  0  0  0  0  0  0  0  0  0  0  0
    9.6495    8.6317   16.8332 N   0  0  0  0  0  0  0  0  0  0  0  0
    6.2934    8.6988   23.1988 O   0  0  0  0  0  0  0  0  0  0  0  0
    7.9806    8.6543   20.5437 C   0  0  0  0  0  0  0  0  0  0  0  0
   13.7270    5.7144   19.8610 O   0  0  0  0  0  0  0  0  0  0  0  0
    8.3351    5.5235   15.4478 C   0  0  0  0  0  0  0  0  0  0  0  0
    8.7700    7.8434   21.3915 C   0  0  0  0  0  0  0  0  0  0  0  0
   11.7856    6.8851   19.2401 C   0  0  0  0  0  0  0  0  0  0  0  0
   10.5281    7.4276   19.5649 C   0  0  0  0  0  0  0  0  0  0  0  0
   10.0256    7.2907   20.8484 C   0  0  0  0  0  0  0  0  0  0  0  0
    9.3113    5.3049   14.4911 C   0  0  0  0  0  0  0  0  0  0  0  0
    9.4607    7.5646   16.0139 C   0  0  0  0  0  0  0  0  0  0  0  0
   10.4192    7.3157   15.0955 C   0  0  0  0  0  0  0  0  0  0  0  0
   10.2489    6.4227   23.0218 N   0  0  0  0  0  0  0  0  0  0  0  0
    7.2472    8.0746   23.5050 C   0  0  0  0  0  0  0  0  0  0  0  0
    9.2051    6.9101   23.4604 C   0  0  0  0  0  0  0  0  0  0  0  0
   11.9646    6.0299   21.4251 C   0  0  0  0  0  0  0  0  0  0  0  0
  1  5  1  0
  1 13  1  0
  2 20  2  0
  2 28  1  0
  2 29  1  0
  3 19  4  0
  3 25  4  0
  4 23  4  0
  4 27  1  0
  4 30  4  0
  5 17  1  0
  6  8  1  0
  6 29  1  0
  7 24  4  0
  7 26  4  0
  8 28  1  0
  9 13  2  0
 10 18  1  0
 10 21  4  0
 10 30  4  0
 11 17  2  0
 12 18  1  0
 13 15  1  0
 14 24  1  0
 15 25  1  0
 16 28  2  0
 17 20  1  0
 19 24  4  0
 20 23  1  0
 21 22  4  0
 22 23  4  0
 25 26  4  0
 27 29  2  0
M  END
$$$$

 Created by Python create_sdf_string function

 30 33  0  0  0  0  0  0  0  0999 V2000
    8.3036    9.8571   18.4133 C   0  0  0  0  0  0  0  0  0  0  0  0
    8.3694    7.6612   22.6703 C   0  0  0  0  0  0  0  0  0  0  0  0
    8.4143    6.6863   16.2273 C   0  0  0  0  0  0  0  0  0  0  0  0
   10.7581    6.5674   21.7636 C   0  0  0  0  0  0  0  0  0  0  0  0
    8.4452    8.7960   19.2958 O   0  0  0  0  0  0  0  0  0  0  0  0
    8.7122    6.7842   24.8569 C   0  0  0  0  0  0  0  0  0  0  0  0
   10.3400    6.1726   14.3081 C   0  0  0  0  0  0  0  0  0  0  0  0
    7.4297    7.5873   24.8962 C   0  0  0  0  0  0  0  0  0  0  0  0
    8.1566   10.0536   16.0516 O   0  0  0  0  0  0  0  0  0  0  0  0
   12.4989    6.2074   20.1776 C   0  0  0  0  0  0  0  0  0  0  0  0
    6.9192    9.1053   20.9073 O   0  0  0  0  0  0  0  0  0  0  0  0
   14.3979    6.0729   18.7784 C   0  0  0  0  0  0  0  0  0  0  0  0
    8.6811    9.5354   16.9998 C   0  0  0  0  0  0  0  0  0  0  0  0
    9.2512    4.2713   13.7653 O   0  0  0  0  0  0  0  0  0  0  0  0
    9.6495    8.6317   16.8332 N   0  0  0  0  0  0  0  0  0  0  0  0
    6.2934    8.6988   23.1988 O   0  0  0  0  0  0  0  0  0  0  0  0
    7.9806    8.6543   20.5437 C   0  0  0  0  0  0  0  0  0  0  0  0
   13.7270    5.7144   19.8610 O   0  0  0  0  0  0  0  0  0  0  0  0
    8.3351    5.5235   15.4478 C   0  0  0  0  0  0  0  0  0  0  0  0
    8.7700    7.8434   21.3915 C   0  0  0  0  0  0  0  0  0  0  0  0
   11.7856    6.8851   19.2401 C   0  0  0  0  0  0  0  0  0  0  0  0
   10.5281    7.4276   19.5649 C   0  0  0  0  0  0  0  0  0  0  0  0
   10.0256    7.2907   20.8484 C   0  0  0  0  0  0  0  0  0  0  0  0
    9.3113    5.3049   14.4911 C   0  0  0  0  0  0  0  0  0  0  0  0
    9.4607    7.5646   16.0139 C   0  0  0  0  0  0  0  0  0  0  0  0
   10.4192    7.3157   15.0955 C   0  0  0  0  0  0  0  0  0  0  0  0
   10.2489    6.4227   23.0218 N   0  0  0  0  0  0  0  0  0  0  0  0
    7.2472    8.0746   23.5050 C   0  0  0  0  0  0  0  0  0  0  0  0
    9.2051    6.9101   23.4604 C   0  0  0  0  0  0  0  0  0  0  0  0
   11.9646    6.0299   21.4251 C   0  0  0  0  0  0  0  0  0  0  0  0
  1  5  1  0
  1 13  1  0
  2 20  2  0
  2 28  1  0
  2 29  1  0
  3 19  4  0
  3 25  4  0
  4 23  4  0
  4 27  1  0
  4 30  4  0
  5 17  1  0
  6  8  1  0
  6 29  1  0
  7 24  4  0
  7 26  4  0
  8 28  1  0
  9 13  2  0
 10 18  1  0
 10 21  4  0
 10 30  4  0
 11 17  2  0
 12 18  1  0
 13 15  1  0
 14 24  1  0
 15 25  1  0
 16 28  2  0
 17 20  1  0
 19 24  4  0
 20 23  1  0
 21 22  4  0
 22 23  4  0
 25 26  4  0
 27 29  2  0
M  END
$$$$

 Created by Python create_sdf_string function

 30 33  0  0  0  0  0  0  0  0999 V2000
    8.3036    9.8571   18.4133 C   0  0  0  0  0  0  0  0  0  0  0  0
    8.3694    7.6612   22.6703 C   0  0  0  0  0  0  0  0  0  0  0  0
    8.4143    6.6863   16.2273 C   0  0  0  0  0  0  0  0  0  0  0  0
   10.7581    6.5674   21.7636 C   0  0  0  0  0  0  0  0  0  0  0  0
    8.4452    8.7960   19.2958 O   0  0  0  0  0  0  0  0  0  0  0  0
    8.7122    6.7842   24.8569 C   0  0  0  0  0  0  0  0  0  0  0  0
   10.3400    6.1726   14.3081 C   0  0  0  0  0  0  0  0  0  0  0  0
    7.4297    7.5873   24.8962 C   0  0  0  0  0  0  0  0  0  0  0  0
    8.1566   10.0536   16.0516 O   0  0  0  0  0  0  0  0  0  0  0  0
   12.4989    6.2074   20.1776 C   0  0  0  0  0  0  0  0  0  0  0  0
    6.9192    9.1053   20.9073 O   0  0  0  0  0  0  0  0  0  0  0  0
   14.3979    6.0729   18.7784 C   0  0  0  0  0  0  0  0  0  0  0  0
    8.6811    9.5354   16.9998 C   0  0  0  0  0  0  0  0  0  0  0  0
    9.2512    4.2713   13.7653 O   0  0  0  0  0  0  0  0  0  0  0  0
    9.6495    8.6317   16.8332 N   0  0  0  0  0  0  0  0  0  0  0  0
    6.2934    8.6988   23.1988 O   0  0  0  0  0  0  0  0  0  0  0  0
    7.9806    8.6543   20.5437 C   0  0  0  0  0  0  0  0  0  0  0  0
   13.7270    5.7144   19.8610 O   0  0  0  0  0  0  0  0  0  0  0  0
    8.3351    5.5235   15.4478 C   0  0  0  0  0  0  0  0  0  0  0  0
    8.7700    7.8434   21.3915 C   0  0  0  0  0  0  0  0  0  0  0  0
   11.7856    6.8851   19.2401 C   0  0  0  0  0  0  0  0  0  0  0  0
   10.5281    7.4276   19.5649 C   0  0  0  0  0  0  0  0  0  0  0  0
   10.0256    7.2907   20.8484 C   0  0  0  0  0  0  0  0  0  0  0  0
    9.3113    5.3049   14.4911 C   0  0  0  0  0  0  0  0  0  0  0  0
    9.4607    7.5646   16.0139 C   0  0  0  0  0  0  0  0  0  0  0  0
   10.4192    7.3157   15.0955 C   0  0  0  0  0  0  0  0  0  0  0  0
   10.2489    6.4227   23.0218 N   0  0  0  0  0  0  0  0  0  0  0  0
    7.2472    8.0746   23.5050 C   0  0  0  0  0  0  0  0  0  0  0  0
    9.2051    6.9101   23.4604 C   0  0  0  0  0  0  0  0  0  0  0  0
   11.9646    6.0299   21.4251 C   0  0  0  0  0  0  0  0  0  0  0  0
  1  5  1  0
  1 13  1  0
  2 20  2  0
  2 28  1  0
  2 29  1  0
  3 19  4  0
  3 25  4  0
  4 23  4  0
  4 27  1  0
  4 30  4  0
  5 17  1  0
  6  8  1  0
  6 29  1  0
  7 24  4  0
  7 26  4  0
  8 28  1  0
  9 13  2  0
 10 18  1  0
 10 21  4  0
 10 30  4  0
 11 17  2  0
 12 18  1  0
 13 15  1  0
 14 24  1  0
 15 25  1  0
 16 28  2  0
 17 20  1  0
 19 24  4  0
 20 23  1  0
 21 22  4  0
 22 23  4  0
 25 26  4  0
 27 29  2  0
M  END
$$$$

 Created by Python create_sdf_string function

 30 33  0  0  0  0  0  0  0  0999 V2000
    8.3036    9.8571   18.4133 C   0  0  0  0  0  0  0  0  0  0  0  0
    8.3694    7.6612   22.6703 C   0  0  0  0  0  0  0  0  0  0  0  0
    8.4143    6.6863   16.2273 C   0  0  0  0  0  0  0  0  0  0  0  0
   10.7581    6.5674   21.7636 C   0  0  0  0  0  0  0  0  0  0  0  0
    8.4452    8.7960   19.2958 O   0  0  0  0  0  0  0  0  0  0  0  0
    8.7122    6.7842   24.8569 C   0  0  0  0  0  0  0  0  0  0  0  0
   10.3400    6.1726   14.3081 C   0  0  0  0  0  0  0  0  0  0  0  0
    7.4297    7.5873   24.8962 C   0  0  0  0  0  0  0  0  0  0  0  0
    8.1566   10.0536   16.0516 O   0  0  0  0  0  0  0  0  0  0  0  0
   12.4989    6.2074   20.1776 C   0  0  0  0  0  0  0  0  0  0  0  0
    6.9192    9.1053   20.9073 O   0  0  0  0  0  0  0  0  0  0  0  0
   14.3979    6.0729   18.7784 C   0  0  0  0  0  0  0  0  0  0  0  0
    8.6811    9.5354   16.9998 C   0  0  0  0  0  0  0  0  0  0  0  0
    9.2512    4.2713   13.7653 O   0  0  0  0  0  0  0  0  0  0  0  0
    9.6495    8.6317   16.8332 N   0  0  0  0  0  0  0  0  0  0  0  0
    6.2934    8.6988   23.1988 O   0  0  0  0  0  0  0  0  0  0  0  0
    7.9806    8.6543   20.5437 C   0  0  0  0  0  0  0  0  0  0  0  0
   13.7270    5.7144   19.8610 O   0  0  0  0  0  0  0  0  0  0  0  0
    8.3351    5.5235   15.4478 C   0  0  0  0  0  0  0  0  0  0  0  0
    8.7700    7.8434   21.3915 C   0  0  0  0  0  0  0  0  0  0  0  0
   11.7856    6.8851   19.2401 C   0  0  0  0  0  0  0  0  0  0  0  0
   10.5281    7.4276   19.5649 C   0  0  0  0  0  0  0  0  0  0  0  0
   10.0256    7.2907   20.8484 C   0  0  0  0  0  0  0  0  0  0  0  0
    9.3113    5.3049   14.4911 C   0  0  0  0  0  0  0  0  0  0  0  0
    9.4607    7.5646   16.0139 C   0  0  0  0  0  0  0  0  0  0  0  0
   10.4192    7.3157   15.0955 C   0  0  0  0  0  0  0  0  0  0  0  0
   10.2489    6.4227   23.0218 N   0  0  0  0  0  0  0  0  0  0  0  0
    7.2472    8.0746   23.5050 C   0  0  0  0  0  0  0  0  0  0  0  0
    9.2051    6.9101   23.4604 C   0  0  0  0  0  0  0  0  0  0  0  0
   11.9646    6.0299   21.4251 C   0  0  0  0  0  0  0  0  0  0  0  0
  1  5  1  0
  1 13  1  0
  2 20  2  0
  2 28  1  0
  2 29  1  0
  3 19  4  0
  3 25  4  0
  4 23  4  0
  4 27  1  0
  4 30  4  0
  5 17  1  0
  6  8  1  0
  6 29  1  0
  7 24  4  0
  7 26  4  0
  8 28  1  0
  9 13  2  0
 10 18  1  0
 10 21  4  0
 10 30  4  0
 11 17  2  0
 12 18  1  0
 13 15  1  0
 14 24  1  0
 15 25  1  0
 16 28  2  0
 17 20  1  0
 19 24  4  0
 20 23  1  0
 21 22  4  0
 22 23  4  0
 25 26  4  0
 27 29  2  0
M  END
$$$$

 Created by Python create_sdf_string function

 30 33  0  0  0  0  0  0  0  0999 V2000
    8.3036    9.8571   18.4133 C   0  0  0  0  0  0  0  0  0  0  0  0
    8.3694    7.6612   22.6703 C   0  0  0  0  0  0  0  0  0  0  0  0
    8.4143    6.6863   16.2273 C   0  0  0  0  0  0  0  0  0  0  0  0
   10.7581    6.5674   21.7636 C   0  0  0  0  0  0  0  0  0  0  0  0
    8.4452    8.7960   19.2958 O   0  0  0  0  0  0  0  0  0  0  0  0
    8.7122    6.7842   24.8569 C   0  0  0  0  0  0  0  0  0  0  0  0
   10.3400    6.1726   14.3081 C   0  0  0  0  0  0  0  0  0  0  0  0
    7.4297    7.5873   24.8962 C   0  0  0  0  0  0  0  0  0  0  0  0
    8.1566   10.0536   16.0516 O   0  0  0  0  0  0  0  0  0  0  0  0
   12.4989    6.2074   20.1776 C   0  0  0  0  0  0  0  0  0  0  0  0
    6.9192    9.1053   20.9073 O   0  0  0  0  0  0  0  0  0  0  0  0
   14.3979    6.0729   18.7784 C   0  0  0  0  0  0  0  0  0  0  0  0
    8.6811    9.5354   16.9998 C   0  0  0  0  0  0  0  0  0  0  0  0
    9.2512    4.2713   13.7653 O   0  0  0  0  0  0  0  0  0  0  0  0
    9.6495    8.6317   16.8332 N   0  0  0  0  0  0  0  0  0  0  0  0
    6.2934    8.6988   23.1988 O   0  0  0  0  0  0  0  0  0  0  0  0
    7.9806    8.6543   20.5437 C   0  0  0  0  0  0  0  0  0  0  0  0
   13.7270    5.7144   19.8610 O   0  0  0  0  0  0  0  0  0  0  0  0
    8.3351    5.5235   15.4478 C   0  0  0  0  0  0  0  0  0  0  0  0
    8.7700    7.8434   21.3915 C   0  0  0  0  0  0  0  0  0  0  0  0
   11.7856    6.8851   19.2401 C   0  0  0  0  0  0  0  0  0  0  0  0
   10.5281    7.4276   19.5649 C   0  0  0  0  0  0  0  0  0  0  0  0
   10.0256    7.2907   20.8484 C   0  0  0  0  0  0  0  0  0  0  0  0
    9.3113    5.3049   14.4911 C   0  0  0  0  0  0  0  0  0  0  0  0
    9.4607    7.5646   16.0139 C   0  0  0  0  0  0  0  0  0  0  0  0
   10.4192    7.3157   15.0955 C   0  0  0  0  0  0  0  0  0  0  0  0
   10.2489    6.4227   23.0218 N   0  0  0  0  0  0  0  0  0  0  0  0
    7.2472    8.0746   23.5050 C   0  0  0  0  0  0  0  0  0  0  0  0
    9.2051    6.9101   23.4604 C   0  0  0  0  0  0  0  0  0  0  0  0
   11.9646    6.0299   21.4251 C   0  0  0  0  0  0  0  0  0  0  0  0
  1  5  1  0
  1 13  1  0
  2 20  2  0
  2 28  1  0
  2 29  1  0
  3 19  4  0
  3 25  4  0
  4 23  4  0
  4 27  1  0
  4 30  4  0
  5 17  1  0
  6  8  1  0
  6 29  1  0
  7 24  4  0
  7 26  4  0
  8 28  1  0
  9 13  2  0
 10 18  1  0
 10 21  4  0
 10 30  4  0
 11 17  2  0
 12 18  1  0
 13 15  1  0
 14 24  1  0
 15 25  1  0
 16 28  2  0
 17 20  1  0
 19 24  4  0
 20 23  1  0
 21 22  4  0
 22 23  4  0
 25 26  4  0
 27 29  2  0
M  END
$$$$

 Created by Python create_sdf_string function

 30 33  0  0  0  0  0  0  0  0999 V2000
    8.3036    9.8571   18.4133 C   0  0  0  0  0  0  0  0  0  0  0  0
    8.3694    7.6612   22.6703 C   0  0  0  0  0  0  0  0  0  0  0  0
    8.4143    6.6863   16.2273 C   0  0  0  0  0  0  0  0  0  0  0  0
   10.7581    6.5674   21.7636 C   0  0  0  0  0  0  0  0  0  0  0  0
    8.4452    8.7960   19.2958 O   0  0  0  0  0  0  0  0  0  0  0  0
    8.7122    6.7842   24.8569 C   0  0  0  0  0  0  0  0  0  0  0  0
   10.3400    6.1726   14.3081 C   0  0  0  0  0  0  0  0  0  0  0  0
    7.4297    7.5873   24.8962 C   0  0  0  0  0  0  0  0  0  0  0  0
    8.1566   10.0536   16.0516 O   0  0  0  0  0  0  0  0  0  0  0  0
   12.4989    6.2074   20.1776 C   0  0  0  0  0  0  0  0  0  0  0  0
    6.9192    9.1053   20.9073 O   0  0  0  0  0  0  0  0  0  0  0  0
   14.3979    6.0729   18.7784 C   0  0  0  0  0  0  0  0  0  0  0  0
    8.6811    9.5354   16.9998 C   0  0  0  0  0  0  0  0  0  0  0  0
    9.2512    4.2713   13.7653 O   0  0  0  0  0  0  0  0  0  0  0  0
    9.6495    8.6317   16.8332 N   0  0  0  0  0  0  0  0  0  0  0  0
    6.2934    8.6988   23.1988 O   0  0  0  0  0  0  0  0  0  0  0  0
    7.9806    8.6543   20.5437 C   0  0  0  0  0  0  0  0  0  0  0  0
   13.7270    5.7144   19.8610 O   0  0  0  0  0  0  0  0  0  0  0  0
    8.3351    5.5235   15.4478 C   0  0  0  0  0  0  0  0  0  0  0  0
    8.7700    7.8434   21.3915 C   0  0  0  0  0  0  0  0  0  0  0  0
   11.7856    6.8851   19.2401 C   0  0  0  0  0  0  0  0  0  0  0  0
   10.5281    7.4276   19.5649 C   0  0  0  0  0  0  0  0  0  0  0  0
   10.0256    7.2907   20.8484 C   0  0  0  0  0  0  0  0  0  0  0  0
    9.3113    5.3049   14.4911 C   0  0  0  0  0  0  0  0  0  0  0  0
    9.4607    7.5646   16.0139 C   0  0  0  0  0  0  0  0  0  0  0  0
   10.4192    7.3157   15.0955 C   0  0  0  0  0  0  0  0  0  0  0  0
   10.2489    6.4227   23.0218 N   0  0  0  0  0  0  0  0  0  0  0  0
    7.2472    8.0746   23.5050 C   0  0  0  0  0  0  0  0  0  0  0  0
    9.2051    6.9101   23.4604 C   0  0  0  0  0  0  0  0  0  0  0  0
   11.9646    6.0299   21.4251 C   0  0  0  0  0  0  0  0  0  0  0  0
  1  5  1  0
  1 13  1  0
  2 20  2  0
  2 28  1  0
  2 29  1  0
  3 19  4  0
  3 25  4  0
  4 23  4  0
  4 27  1  0
  4 30  4  0
  5 17  1  0
  6  8  1  0
  6 29  1  0
  7 24  4  0
  7 26  4  0
  8 28  1  0
  9 13  2  0
 10 18  1  0
 10 21  4  0
 10 30  4  0
 11 17  2  0
 12 18  1  0
 13 15  1  0
 14 24  1  0
 15 25  1  0
 16 28  2  0
 17 20  1  0
 19 24  4  0
 20 23  1  0
 21 22  4  0
 22 23  4  0
 25 26  4  0
 27 29  2  0
M  END
$$$$

 Created by Python create_sdf_string function

 30 33  0  0  0  0  0  0  0  0999 V2000
    8.3036    9.8571   18.4133 C   0  0  0  0  0  0  0  0  0  0  0  0
    8.3694    7.6612   22.6703 C   0  0  0  0  0  0  0  0  0  0  0  0
    8.4143    6.6863   16.2273 C   0  0  0  0  0  0  0  0  0  0  0  0
   10.7581    6.5674   21.7636 C   0  0  0  0  0  0  0  0  0  0  0  0
    8.4452    8.7960   19.2958 O   0  0  0  0  0  0  0  0  0  0  0  0
    8.7122    6.7842   24.8569 C   0  0  0  0  0  0  0  0  0  0  0  0
   10.3400    6.1726   14.3081 C   0  0  0  0  0  0  0  0  0  0  0  0
    7.4297    7.5873   24.8962 C   0  0  0  0  0  0  0  0  0  0  0  0
    8.1566   10.0536   16.0516 O   0  0  0  0  0  0  0  0  0  0  0  0
   12.4989    6.2074   20.1776 C   0  0  0  0  0  0  0  0  0  0  0  0
    6.9192    9.1053   20.9073 O   0  0  0  0  0  0  0  0  0  0  0  0
   14.3979    6.0729   18.7784 C   0  0  0  0  0  0  0  0  0  0  0  0
    8.6811    9.5354   16.9998 C   0  0  0  0  0  0  0  0  0  0  0  0
    9.2512    4.2713   13.7653 O   0  0  0  0  0  0  0  0  0  0  0  0
    9.6495    8.6317   16.8332 N   0  0  0  0  0  0  0  0  0  0  0  0
    6.2934    8.6988   23.1988 O   0  0  0  0  0  0  0  0  0  0  0  0
    7.9806    8.6543   20.5437 C   0  0  0  0  0  0  0  0  0  0  0  0
   13.7270    5.7144   19.8610 O   0  0  0  0  0  0  0  0  0  0  0  0
    8.3351    5.5235   15.4478 C   0  0  0  0  0  0  0  0  0  0  0  0
    8.7700    7.8434   21.3915 C   0  0  0  0  0  0  0  0  0  0  0  0
   11.7856    6.8851   19.2401 C   0  0  0  0  0  0  0  0  0  0  0  0
   10.5281    7.4276   19.5649 C   0  0  0  0  0  0  0  0  0  0  0  0
   10.0256    7.2907   20.8484 C   0  0  0  0  0  0  0  0  0  0  0  0
    9.3113    5.3049   14.4911 C   0  0  0  0  0  0  0  0  0  0  0  0
    9.4607    7.5646   16.0139 C   0  0  0  0  0  0  0  0  0  0  0  0
   10.4192    7.3157   15.0955 C   0  0  0  0  0  0  0  0  0  0  0  0
   10.2489    6.4227   23.0218 N   0  0  0  0  0  0  0  0  0  0  0  0
    7.2472    8.0746   23.5050 C   0  0  0  0  0  0  0  0  0  0  0  0
    9.2051    6.9101   23.4604 C   0  0  0  0  0  0  0  0  0  0  0  0
   11.9646    6.0299   21.4251 C   0  0  0  0  0  0  0  0  0  0  0  0
  1  5  1  0
  1 13  1  0
  2 20  2  0
  2 28  1  0
  2 29  1  0
  3 19  4  0
  3 25  4  0
  4 23  4  0
  4 27  1  0
  4 30  4  0
  5 17  1  0
  6  8  1  0
  6 29  1  0
  7 24  4  0
  7 26  4  0
  8 28  1  0
  9 13  2  0
 10 18  1  0
 10 21  4  0
 10 30  4  0
 11 17  2  0
 12 18  1  0
 13 15  1  0
 14 24  1  0
 15 25  1  0
 16 28  2  0
 17 20  1  0
 19 24  4  0
 20 23  1  0
 21 22  4  0
 22 23  4  0
 25 26  4  0
 27 29  2  0
M  END
$$$$

 Created by Python create_sdf_string function

 30 33  0  0  0  0  0  0  0  0999 V2000
    8.3036    9.8571   18.4133 C   0  0  0  0  0  0  0  0  0  0  0  0
    8.3694    7.6612   22.6703 C   0  0  0  0  0  0  0  0  0  0  0  0
    8.4143    6.6863   16.2273 C   0  0  0  0  0  0  0  0  0  0  0  0
   10.7581    6.5674   21.7636 C   0  0  0  0  0  0  0  0  0  0  0  0
    8.4452    8.7960   19.2958 O   0  0  0  0  0  0  0  0  0  0  0  0
    8.7122    6.7842   24.8569 C   0  0  0  0  0  0  0  0  0  0  0  0
   10.3400    6.1726   14.3081 C   0  0  0  0  0  0  0  0  0  0  0  0
    7.4297    7.5873   24.8962 C   0  0  0  0  0  0  0  0  0  0  0  0
    8.1566   10.0536   16.0516 O   0  0  0  0  0  0  0  0  0  0  0  0
   12.4989    6.2074   20.1776 C   0  0  0  0  0  0  0  0  0  0  0  0
    6.9192    9.1053   20.9073 O   0  0  0  0  0  0  0  0  0  0  0  0
   14.3979    6.0729   18.7784 C   0  0  0  0  0  0  0  0  0  0  0  0
    8.6811    9.5354   16.9998 C   0  0  0  0  0  0  0  0  0  0  0  0
    9.2512    4.2713   13.7653 O   0  0  0  0  0  0  0  0  0  0  0  0
    9.6495    8.6317   16.8332 N   0  0  0  0  0  0  0  0  0  0  0  0
    6.2934    8.6988   23.1988 O   0  0  0  0  0  0  0  0  0  0  0  0
    7.9806    8.6543   20.5437 C   0  0  0  0  0  0  0  0  0  0  0  0
   13.7270    5.7144   19.8610 O   0  0  0  0  0  0  0  0  0  0  0  0
    8.3351    5.5235   15.4478 C   0  0  0  0  0  0  0  0  0  0  0  0
    8.7700    7.8434   21.3915 C   0  0  0  0  0  0  0  0  0  0  0  0
   11.7856    6.8851   19.2401 C   0  0  0  0  0  0  0  0  0  0  0  0
   10.5281    7.4276   19.5649 C   0  0  0  0  0  0  0  0  0  0  0  0
   10.0256    7.2907   20.8484 C   0  0  0  0  0  0  0  0  0  0  0  0
    9.3113    5.3049   14.4911 C   0  0  0  0  0  0  0  0  0  0  0  0
    9.4607    7.5646   16.0139 C   0  0  0  0  0  0  0  0  0  0  0  0
   10.4192    7.3157   15.0955 C   0  0  0  0  0  0  0  0  0  0  0  0
   10.2489    6.4227   23.0218 N   0  0  0  0  0  0  0  0  0  0  0  0
    7.2472    8.0746   23.5050 C   0  0  0  0  0  0  0  0  0  0  0  0
    9.2051    6.9101   23.4604 C   0  0  0  0  0  0  0  0  0  0  0  0
   11.9646    6.0299   21.4251 C   0  0  0  0  0  0  0  0  0  0  0  0
  1  5  1  0
  1 13  1  0
  2 20  2  0
  2 28  1  0
  2 29  1  0
  3 19  4  0
  3 25  4  0
  4 23  4  0
  4 27  1  0
  4 30  4  0
  5 17  1  0
  6  8  1  0
  6 29  1  0
  7 24  4  0
  7 26  4  0
  8 28  1  0
  9 13  2  0
 10 18  1  0
 10 21  4  0
 10 30  4  0
 11 17  2  0
 12 18  1  0
 13 15  1  0
 14 24  1  0
 15 25  1  0
 16 28  2  0
 17 20  1  0
 19 24  4  0
 20 23  1  0
 21 22  4  0
 22 23  4  0
 25 26  4  0
 27 29  2  0
M  END
$$$$

 Created by Python create_sdf_string function

 30 33  0  0  0  0  0  0  0  0999 V2000
    8.3036    9.8571   18.4133 C   0  0  0  0  0  0  0  0  0  0  0  0
    8.3694    7.6612   22.6703 C   0  0  0  0  0  0  0  0  0  0  0  0
    8.4143    6.6863   16.2273 C   0  0  0  0  0  0  0  0  0  0  0  0
   10.7581    6.5674   21.7636 C   0  0  0  0  0  0  0  0  0  0  0  0
    8.4452    8.7960   19.2958 O   0  0  0  0  0  0  0  0  0  0  0  0
    8.7122    6.7842   24.8569 C   0  0  0  0  0  0  0  0  0  0  0  0
   10.3400    6.1726   14.3081 C   0  0  0  0  0  0  0  0  0  0  0  0
    7.4297    7.5873   24.8962 C   0  0  0  0  0  0  0  0  0  0  0  0
    8.1566   10.0536   16.0516 O   0  0  0  0  0  0  0  0  0  0  0  0
   12.4989    6.2074   20.1776 C   0  0  0  0  0  0  0  0  0  0  0  0
    6.9192    9.1053   20.9073 O   0  0  0  0  0  0  0  0  0  0  0  0
   14.3979    6.0729   18.7784 C   0  0  0  0  0  0  0  0  0  0  0  0
    8.6811    9.5354   16.9998 C   0  0  0  0  0  0  0  0  0  0  0  0
    9.2512    4.2713   13.7653 O   0  0  0  0  0  0  0  0  0  0  0  0
    9.6495    8.6317   16.8332 N   0  0  0  0  0  0  0  0  0  0  0  0
    6.2934    8.6988   23.1988 O   0  0  0  0  0  0  0  0  0  0  0  0
    7.9806    8.6543   20.5437 C   0  0  0  0  0  0  0  0  0  0  0  0
   13.7270    5.7144   19.8610 O   0  0  0  0  0  0  0  0  0  0  0  0
    8.3351    5.5235   15.4478 C   0  0  0  0  0  0  0  0  0  0  0  0
    8.7700    7.8434   21.3915 C   0  0  0  0  0  0  0  0  0  0  0  0
   11.7856    6.8851   19.2401 C   0  0  0  0  0  0  0  0  0  0  0  0
   10.5281    7.4276   19.5649 C   0  0  0  0  0  0  0  0  0  0  0  0
   10.0256    7.2907   20.8484 C   0  0  0  0  0  0  0  0  0  0  0  0
    9.3113    5.3049   14.4911 C   0  0  0  0  0  0  0  0  0  0  0  0
    9.4607    7.5646   16.0139 C   0  0  0  0  0  0  0  0  0  0  0  0
   10.4192    7.3157   15.0955 C   0  0  0  0  0  0  0  0  0  0  0  0
   10.2489    6.4227   23.0218 N   0  0  0  0  0  0  0  0  0  0  0  0
    7.2472    8.0746   23.5050 C   0  0  0  0  0  0  0  0  0  0  0  0
    9.2051    6.9101   23.4604 C   0  0  0  0  0  0  0  0  0  0  0  0
   11.9646    6.0299   21.4251 C   0  0  0  0  0  0  0  0  0  0  0  0
  1  5  1  0
  1 13  1  0
  2 20  2  0
  2 28  1  0
  2 29  1  0
  3 19  4  0
  3 25  4  0
  4 23  4  0
  4 27  1  0
  4 30  4  0
  5 17  1  0
  6  8  1  0
  6 29  1  0
  7 24  4  0
  7 26  4  0
  8 28  1  0
  9 13  2  0
 10 18  1  0
 10 21  4  0
 10 30  4  0
 11 17  2  0
 12 18  1  0
 13 15  1  0
 14 24  1  0
 15 25  1  0
 16 28  2  0
 17 20  1  0
 19 24  4  0
 20 23  1  0
 21 22  4  0
 22 23  4  0
 25 26  4  0
 27 29  2  0
M  END
$$$$

 Created by Python create_sdf_string function

 30 33  0  0  0  0  0  0  0  0999 V2000
    8.3036    9.8571   18.4133 C   0  0  0  0  0  0  0  0  0  0  0  0
    8.3694    7.6612   22.6703 C   0  0  0  0  0  0  0  0  0  0  0  0
    8.4143    6.6863   16.2273 C   0  0  0  0  0  0  0  0  0  0  0  0
   10.7581    6.5674   21.7636 C   0  0  0  0  0  0  0  0  0  0  0  0
    8.4452    8.7960   19.2958 O   0  0  0  0  0  0  0  0  0  0  0  0
    8.7122    6.7842   24.8569 C   0  0  0  0  0  0  0  0  0  0  0  0
   10.3400    6.1726   14.3081 C   0  0  0  0  0  0  0  0  0  0  0  0
    7.4297    7.5873   24.8962 C   0  0  0  0  0  0  0  0  0  0  0  0
    8.1566   10.0536   16.0516 O   0  0  0  0  0  0  0  0  0  0  0  0
   12.4989    6.2074   20.1776 C   0  0  0  0  0  0  0  0  0  0  0  0
    6.9192    9.1053   20.9073 O   0  0  0  0  0  0  0  0  0  0  0  0
   14.3979    6.0729   18.7784 C   0  0  0  0  0  0  0  0  0  0  0  0
    8.6811    9.5354   16.9998 C   0  0  0  0  0  0  0  0  0  0  0  0
    9.2512    4.2713   13.7653 O   0  0  0  0  0  0  0  0  0  0  0  0
    9.6495    8.6317   16.8332 N   0  0  0  0  0  0  0  0  0  0  0  0
    6.2934    8.6988   23.1988 O   0  0  0  0  0  0  0  0  0  0  0  0
    7.9806    8.6543   20.5437 C   0  0  0  0  0  0  0  0  0  0  0  0
   13.7270    5.7144   19.8610 O   0  0  0  0  0  0  0  0  0  0  0  0
    8.3351    5.5235   15.4478 C   0  0  0  0  0  0  0  0  0  0  0  0
    8.7700    7.8434   21.3915 C   0  0  0  0  0  0  0  0  0  0  0  0
   11.7856    6.8851   19.2401 C   0  0  0  0  0  0  0  0  0  0  0  0
   10.5281    7.4276   19.5649 C   0  0  0  0  0  0  0  0  0  0  0  0
   10.0256    7.2907   20.8484 C   0  0  0  0  0  0  0  0  0  0  0  0
    9.3113    5.3049   14.4911 C   0  0  0  0  0  0  0  0  0  0  0  0
    9.4607    7.5646   16.0139 C   0  0  0  0  0  0  0  0  0  0  0  0
   10.4192    7.3157   15.0955 C   0  0  0  0  0  0  0  0  0  0  0  0
   10.2489    6.4227   23.0218 N   0  0  0  0  0  0  0  0  0  0  0  0
    7.2472    8.0746   23.5050 C   0  0  0  0  0  0  0  0  0  0  0  0
    9.2051    6.9101   23.4604 C   0  0  0  0  0  0  0  0  0  0  0  0
   11.9646    6.0299   21.4251 C   0  0  0  0  0  0  0  0  0  0  0  0
  1  5  1  0
  1 13  1  0
  2 20  2  0
  2 28  1  0
  2 29  1  0
  3 19  4  0
  3 25  4  0
  4 23  4  0
  4 27  1  0
  4 30  4  0
  5 17  1  0
  6  8  1  0
  6 29  1  0
  7 24  4  0
  7 26  4  0
  8 28  1  0
  9 13  2  0
 10 18  1  0
 10 21  4  0
 10 30  4  0
 11 17  2  0
 12 18  1  0
 13 15  1  0
 14 24  1  0
 15 25  1  0
 16 28  2  0
 17 20  1  0
 19 24  4  0
 20 23  1  0
 21 22  4  0
 22 23  4  0
 25 26  4  0
 27 29  2  0
M  END
$$$$

 Created by Python create_sdf_string function

 30 33  0  0  0  0  0  0  0  0999 V2000
    8.3036    9.8571   18.4133 C   0  0  0  0  0  0  0  0  0  0  0  0
    8.3694    7.6612   22.6703 C   0  0  0  0  0  0  0  0  0  0  0  0
    8.4143    6.6863   16.2273 C   0  0  0  0  0  0  0  0  0  0  0  0
   10.7581    6.5674   21.7636 C   0  0  0  0  0  0  0  0  0  0  0  0
    8.4452    8.7960   19.2958 O   0  0  0  0  0  0  0  0  0  0  0  0
    8.7122    6.7842   24.8569 C   0  0  0  0  0  0  0  0  0  0  0  0
   10.3400    6.1726   14.3081 C   0  0  0  0  0  0  0  0  0  0  0  0
    7.4297    7.5873   24.8962 C   0  0  0  0  0  0  0  0  0  0  0  0
    8.1566   10.0536   16.0516 O   0  0  0  0  0  0  0  0  0  0  0  0
   12.4989    6.2074   20.1776 C   0  0  0  0  0  0  0  0  0  0  0  0
    6.9192    9.1053   20.9073 O   0  0  0  0  0  0  0  0  0  0  0  0
   14.3979    6.0729   18.7784 C   0  0  0  0  0  0  0  0  0  0  0  0
    8.6811    9.5354   16.9998 C   0  0  0  0  0  0  0  0  0  0  0  0
    9.2512    4.2713   13.7653 O   0  0  0  0  0  0  0  0  0  0  0  0
    9.6495    8.6317   16.8332 N   0  0  0  0  0  0  0  0  0  0  0  0
    6.2934    8.6988   23.1988 O   0  0  0  0  0  0  0  0  0  0  0  0
    7.9806    8.6543   20.5437 C   0  0  0  0  0  0  0  0  0  0  0  0
   13.7270    5.7144   19.8610 O   0  0  0  0  0  0  0  0  0  0  0  0
    8.3351    5.5235   15.4478 C   0  0  0  0  0  0  0  0  0  0  0  0
    8.7700    7.8434   21.3915 C   0  0  0  0  0  0  0  0  0  0  0  0
   11.7856    6.8851   19.2401 C   0  0  0  0  0  0  0  0  0  0  0  0
   10.5281    7.4276   19.5649 C   0  0  0  0  0  0  0  0  0  0  0  0
   10.0256    7.2907   20.8484 C   0  0  0  0  0  0  0  0  0  0  0  0
    9.3113    5.3049   14.4911 C   0  0  0  0  0  0  0  0  0  0  0  0
    9.4607    7.5646   16.0139 C   0  0  0  0  0  0  0  0  0  0  0  0
   10.4192    7.3157   15.0955 C   0  0  0  0  0  0  0  0  0  0  0  0
   10.2489    6.4227   23.0218 N   0  0  0  0  0  0  0  0  0  0  0  0
    7.2472    8.0746   23.5050 C   0  0  0  0  0  0  0  0  0  0  0  0
    9.2051    6.9101   23.4604 C   0  0  0  0  0  0  0  0  0  0  0  0
   11.9646    6.0299   21.4251 C   0  0  0  0  0  0  0  0  0  0  0  0
  1  5  1  0
  1 13  1  0
  2 20  2  0
  2 28  1  0
  2 29  1  0
  3 19  4  0
  3 25  4  0
  4 23  4  0
  4 27  1  0
  4 30  4  0
  5 17  1  0
  6  8  1  0
  6 29  1  0
  7 24  4  0
  7 26  4  0
  8 28  1  0
  9 13  2  0
 10 18  1  0
 10 21  4  0
 10 30  4  0
 11 17  2  0
 12 18  1  0
 13 15  1  0
 14 24  1  0
 15 25  1  0
 16 28  2  0
 17 20  1  0
 19 24  4  0
 20 23  1  0
 21 22  4  0
 22 23  4  0
 25 26  4  0
 27 29  2  0
M  END
$$$$

 Created by Python create_sdf_string function

 30 33  0  0  0  0  0  0  0  0999 V2000
    8.3036    9.8571   18.4133 C   0  0  0  0  0  0  0  0  0  0  0  0
    8.3694    7.6612   22.6703 C   0  0  0  0  0  0  0  0  0  0  0  0
    8.4143    6.6863   16.2273 C   0  0  0  0  0  0  0  0  0  0  0  0
   10.7581    6.5674   21.7636 C   0  0  0  0  0  0  0  0  0  0  0  0
    8.4452    8.7960   19.2958 O   0  0  0  0  0  0  0  0  0  0  0  0
    8.7122    6.7842   24.8569 C   0  0  0  0  0  0  0  0  0  0  0  0
   10.3400    6.1726   14.3081 C   0  0  0  0  0  0  0  0  0  0  0  0
    7.4297    7.5873   24.8962 C   0  0  0  0  0  0  0  0  0  0  0  0
    8.1566   10.0536   16.0516 O   0  0  0  0  0  0  0  0  0  0  0  0
   12.4989    6.2074   20.1776 C   0  0  0  0  0  0  0  0  0  0  0  0
    6.9192    9.1053   20.9073 O   0  0  0  0  0  0  0  0  0  0  0  0
   14.3979    6.0729   18.7784 C   0  0  0  0  0  0  0  0  0  0  0  0
    8.6811    9.5354   16.9998 C   0  0  0  0  0  0  0  0  0  0  0  0
    9.2512    4.2713   13.7653 O   0  0  0  0  0  0  0  0  0  0  0  0
    9.6495    8.6317   16.8332 N   0  0  0  0  0  0  0  0  0  0  0  0
    6.2934    8.6988   23.1988 O   0  0  0  0  0  0  0  0  0  0  0  0
    7.9806    8.6543   20.5437 C   0  0  0  0  0  0  0  0  0  0  0  0
   13.7270    5.7144   19.8610 O   0  0  0  0  0  0  0  0  0  0  0  0
    8.3351    5.5235   15.4478 C   0  0  0  0  0  0  0  0  0  0  0  0
    8.7700    7.8434   21.3915 C   0  0  0  0  0  0  0  0  0  0  0  0
   11.7856    6.8851   19.2401 C   0  0  0  0  0  0  0  0  0  0  0  0
   10.5281    7.4276   19.5649 C   0  0  0  0  0  0  0  0  0  0  0  0
   10.0256    7.2907   20.8484 C   0  0  0  0  0  0  0  0  0  0  0  0
    9.3113    5.3049   14.4911 C   0  0  0  0  0  0  0  0  0  0  0  0
    9.4607    7.5646   16.0139 C   0  0  0  0  0  0  0  0  0  0  0  0
   10.4192    7.3157   15.0955 C   0  0  0  0  0  0  0  0  0  0  0  0
   10.2489    6.4227   23.0218 N   0  0  0  0  0  0  0  0  0  0  0  0
    7.2472    8.0746   23.5050 C   0  0  0  0  0  0  0  0  0  0  0  0
    9.2051    6.9101   23.4604 C   0  0  0  0  0  0  0  0  0  0  0  0
   11.9646    6.0299   21.4251 C   0  0  0  0  0  0  0  0  0  0  0  0
  1  5  1  0
  1 13  1  0
  2 20  2  0
  2 28  1  0
  2 29  1  0
  3 19  4  0
  3 25  4  0
  4 23  4  0
  4 27  1  0
  4 30  4  0
  5 17  1  0
  6  8  1  0
  6 29  1  0
  7 24  4  0
  7 26  4  0
  8 28  1  0
  9 13  2  0
 10 18  1  0
 10 21  4  0
 10 30  4  0
 11 17  2  0
 12 18  1  0
 13 15  1  0
 14 24  1  0
 15 25  1  0
 16 28  2  0
 17 20  1  0
 19 24  4  0
 20 23  1  0
 21 22  4  0
 22 23  4  0
 25 26  4  0
 27 29  2  0
M  END
$$$$

 Created by Python create_sdf_string function

 30 33  0  0  0  0  0  0  0  0999 V2000
    8.3036    9.8571   18.4133 C   0  0  0  0  0  0  0  0  0  0  0  0
    8.3694    7.6612   22.6703 C   0  0  0  0  0  0  0  0  0  0  0  0
    8.4143    6.6863   16.2273 C   0  0  0  0  0  0  0  0  0  0  0  0
   10.7581    6.5674   21.7636 C   0  0  0  0  0  0  0  0  0  0  0  0
    8.4452    8.7960   19.2958 O   0  0  0  0  0  0  0  0  0  0  0  0
    8.7122    6.7842   24.8569 C   0  0  0  0  0  0  0  0  0  0  0  0
   10.3400    6.1726   14.3081 C   0  0  0  0  0  0  0  0  0  0  0  0
    7.4297    7.5873   24.8962 C   0  0  0  0  0  0  0  0  0  0  0  0
    8.1566   10.0536   16.0516 O   0  0  0  0  0  0  0  0  0  0  0  0
   12.4989    6.2074   20.1776 C   0  0  0  0  0  0  0  0  0  0  0  0
    6.9192    9.1053   20.9073 O   0  0  0  0  0  0  0  0  0  0  0  0
   14.3979    6.0729   18.7784 C   0  0  0  0  0  0  0  0  0  0  0  0
    8.6811    9.5354   16.9998 C   0  0  0  0  0  0  0  0  0  0  0  0
    9.2512    4.2713   13.7653 O   0  0  0  0  0  0  0  0  0  0  0  0
    9.6495    8.6317   16.8332 N   0  0  0  0  0  0  0  0  0  0  0  0
    6.2934    8.6988   23.1988 O   0  0  0  0  0  0  0  0  0  0  0  0
    7.9806    8.6543   20.5437 C   0  0  0  0  0  0  0  0  0  0  0  0
   13.7270    5.7144   19.8610 O   0  0  0  0  0  0  0  0  0  0  0  0
    8.3351    5.5235   15.4478 C   0  0  0  0  0  0  0  0  0  0  0  0
    8.7700    7.8434   21.3915 C   0  0  0  0  0  0  0  0  0  0  0  0
   11.7856    6.8851   19.2401 C   0  0  0  0  0  0  0  0  0  0  0  0
   10.5281    7.4276   19.5649 C   0  0  0  0  0  0  0  0  0  0  0  0
   10.0256    7.2907   20.8484 C   0  0  0  0  0  0  0  0  0  0  0  0
    9.3113    5.3049   14.4911 C   0  0  0  0  0  0  0  0  0  0  0  0
    9.4607    7.5646   16.0139 C   0  0  0  0  0  0  0  0  0  0  0  0
   10.4192    7.3157   15.0955 C   0  0  0  0  0  0  0  0  0  0  0  0
   10.2489    6.4227   23.0218 N   0  0  0  0  0  0  0  0  0  0  0  0
    7.2472    8.0746   23.5050 C   0  0  0  0  0  0  0  0  0  0  0  0
    9.2051    6.9101   23.4604 C   0  0  0  0  0  0  0  0  0  0  0  0
   11.9646    6.0299   21.4251 C   0  0  0  0  0  0  0  0  0  0  0  0
  1  5  1  0
  1 13  1  0
  2 20  2  0
  2 28  1  0
  2 29  1  0
  3 19  4  0
  3 25  4  0
  4 23  4  0
  4 27  1  0
  4 30  4  0
  5 17  1  0
  6  8  1  0
  6 29  1  0
  7 24  4  0
  7 26  4  0
  8 28  1  0
  9 13  2  0
 10 18  1  0
 10 21  4  0
 10 30  4  0
 11 17  2  0
 12 18  1  0
 13 15  1  0
 14 24  1  0
 15 25  1  0
 16 28  2  0
 17 20  1  0
 19 24  4  0
 20 23  1  0
 21 22  4  0
 22 23  4  0
 25 26  4  0
 27 29  2  0
M  END
$$$$

 Created by Python create_sdf_string function

 30 33  0  0  0  0  0  0  0  0999 V2000
    8.3036    9.8571   18.4133 C   0  0  0  0  0  0  0  0  0  0  0  0
    8.3694    7.6612   22.6703 C   0  0  0  0  0  0  0  0  0  0  0  0
    8.4143    6.6863   16.2273 C   0  0  0  0  0  0  0  0  0  0  0  0
   10.7581    6.5674   21.7636 C   0  0  0  0  0  0  0  0  0  0  0  0
    8.4452    8.7960   19.2958 O   0  0  0  0  0  0  0  0  0  0  0  0
    8.7122    6.7842   24.8569 C   0  0  0  0  0  0  0  0  0  0  0  0
   10.3400    6.1726   14.3081 C   0  0  0  0  0  0  0  0  0  0  0  0
    7.4297    7.5873   24.8962 C   0  0  0  0  0  0  0  0  0  0  0  0
    8.1566   10.0536   16.0516 O   0  0  0  0  0  0  0  0  0  0  0  0
   12.4989    6.2074   20.1776 C   0  0  0  0  0  0  0  0  0  0  0  0
    6.9192    9.1053   20.9073 O   0  0  0  0  0  0  0  0  0  0  0  0
   14.3979    6.0729   18.7784 C   0  0  0  0  0  0  0  0  0  0  0  0
    8.6811    9.5354   16.9998 C   0  0  0  0  0  0  0  0  0  0  0  0
    9.2512    4.2713   13.7653 O   0  0  0  0  0  0  0  0  0  0  0  0
    9.6495    8.6317   16.8332 N   0  0  0  0  0  0  0  0  0  0  0  0
    6.2934    8.6988   23.1988 O   0  0  0  0  0  0  0  0  0  0  0  0
    7.9806    8.6543   20.5437 C   0  0  0  0  0  0  0  0  0  0  0  0
   13.7270    5.7144   19.8610 O   0  0  0  0  0  0  0  0  0  0  0  0
    8.3351    5.5235   15.4478 C   0  0  0  0  0  0  0  0  0  0  0  0
    8.7700    7.8434   21.3915 C   0  0  0  0  0  0  0  0  0  0  0  0
   11.7856    6.8851   19.2401 C   0  0  0  0  0  0  0  0  0  0  0  0
   10.5281    7.4276   19.5649 C   0  0  0  0  0  0  0  0  0  0  0  0
   10.0256    7.2907   20.8484 C   0  0  0  0  0  0  0  0  0  0  0  0
    9.3113    5.3049   14.4911 C   0  0  0  0  0  0  0  0  0  0  0  0
    9.4607    7.5646   16.0139 C   0  0  0  0  0  0  0  0  0  0  0  0
   10.4192    7.3157   15.0955 C   0  0  0  0  0  0  0  0  0  0  0  0
   10.2489    6.4227   23.0218 N   0  0  0  0  0  0  0  0  0  0  0  0
    7.2472    8.0746   23.5050 C   0  0  0  0  0  0  0  0  0  0  0  0
    9.2051    6.9101   23.4604 C   0  0  0  0  0  0  0  0  0  0  0  0
   11.9646    6.0299   21.4251 C   0  0  0  0  0  0  0  0  0  0  0  0
  1  5  1  0
  1 13  1  0
  2 20  2  0
  2 28  1  0
  2 29  1  0
  3 19  4  0
  3 25  4  0
  4 23  4  0
  4 27  1  0
  4 30  4  0
  5 17  1  0
  6  8  1  0
  6 29  1  0
  7 24  4  0
  7 26  4  0
  8 28  1  0
  9 13  2  0
 10 18  1  0
 10 21  4  0
 10 30  4  0
 11 17  2  0
 12 18  1  0
 13 15  1  0
 14 24  1  0
 15 25  1  0
 16 28  2  0
 17 20  1  0
 19 24  4  0
 20 23  1  0
 21 22  4  0
 22 23  4  0
 25 26  4  0
 27 29  2  0
M  END
$$$$

 Created by Python create_sdf_string function

 30 33  0  0  0  0  0  0  0  0999 V2000
    8.3036    9.8571   18.4133 C   0  0  0  0  0  0  0  0  0  0  0  0
    8.3694    7.6612   22.6703 C   0  0  0  0  0  0  0  0  0  0  0  0
    8.4143    6.6863   16.2273 C   0  0  0  0  0  0  0  0  0  0  0  0
   10.7581    6.5674   21.7636 C   0  0  0  0  0  0  0  0  0  0  0  0
    8.4452    8.7960   19.2958 O   0  0  0  0  0  0  0  0  0  0  0  0
    8.7122    6.7842   24.8569 C   0  0  0  0  0  0  0  0  0  0  0  0
   10.3400    6.1726   14.3081 C   0  0  0  0  0  0  0  0  0  0  0  0
    7.4297    7.5873   24.8962 C   0  0  0  0  0  0  0  0  0  0  0  0
    8.1566   10.0536   16.0516 O   0  0  0  0  0  0  0  0  0  0  0  0
   12.4989    6.2074   20.1776 C   0  0  0  0  0  0  0  0  0  0  0  0
    6.9192    9.1053   20.9073 O   0  0  0  0  0  0  0  0  0  0  0  0
   14.3979    6.0729   18.7784 C   0  0  0  0  0  0  0  0  0  0  0  0
    8.6811    9.5354   16.9998 C   0  0  0  0  0  0  0  0  0  0  0  0
    9.2512    4.2713   13.7653 O   0  0  0  0  0  0  0  0  0  0  0  0
    9.6495    8.6317   16.8332 N   0  0  0  0  0  0  0  0  0  0  0  0
    6.2934    8.6988   23.1988 O   0  0  0  0  0  0  0  0  0  0  0  0
    7.9806    8.6543   20.5437 C   0  0  0  0  0  0  0  0  0  0  0  0
   13.7270    5.7144   19.8610 O   0  0  0  0  0  0  0  0  0  0  0  0
    8.3351    5.5235   15.4478 C   0  0  0  0  0  0  0  0  0  0  0  0
    8.7700    7.8434   21.3915 C   0  0  0  0  0  0  0  0  0  0  0  0
   11.7856    6.8851   19.2401 C   0  0  0  0  0  0  0  0  0  0  0  0
   10.5281    7.4276   19.5649 C   0  0  0  0  0  0  0  0  0  0  0  0
   10.0256    7.2907   20.8484 C   0  0  0  0  0  0  0  0  0  0  0  0
    9.3113    5.3049   14.4911 C   0  0  0  0  0  0  0  0  0  0  0  0
    9.4607    7.5646   16.0139 C   0  0  0  0  0  0  0  0  0  0  0  0
   10.4192    7.3157   15.0955 C   0  0  0  0  0  0  0  0  0  0  0  0
   10.2489    6.4227   23.0218 N   0  0  0  0  0  0  0  0  0  0  0  0
    7.2472    8.0746   23.5050 C   0  0  0  0  0  0  0  0  0  0  0  0
    9.2051    6.9101   23.4604 C   0  0  0  0  0  0  0  0  0  0  0  0
   11.9646    6.0299   21.4251 C   0  0  0  0  0  0  0  0  0  0  0  0
  1  5  1  0
  1 13  1  0
  2 20  2  0
  2 28  1  0
  2 29  1  0
  3 19  4  0
  3 25  4  0
  4 23  4  0
  4 27  1  0
  4 30  4  0
  5 17  1  0
  6  8  1  0
  6 29  1  0
  7 24  4  0
  7 26  4  0
  8 28  1  0
  9 13  2  0
 10 18  1  0
 10 21  4  0
 10 30  4  0
 11 17  2  0
 12 18  1  0
 13 15  1  0
 14 24  1  0
 15 25  1  0
 16 28  2  0
 17 20  1  0
 19 24  4  0
 20 23  1  0
 21 22  4  0
 22 23  4  0
 25 26  4  0
 27 29  2  0
M  END
$$$$

 Created by Python create_sdf_string function

 30 33  0  0  0  0  0  0  0  0999 V2000
    8.3036    9.8571   18.4133 C   0  0  0  0  0  0  0  0  0  0  0  0
    8.3694    7.6612   22.6703 C   0  0  0  0  0  0  0  0  0  0  0  0
    8.4143    6.6863   16.2273 C   0  0  0  0  0  0  0  0  0  0  0  0
   10.7581    6.5674   21.7636 C   0  0  0  0  0  0  0  0  0  0  0  0
    8.4452    8.7960   19.2958 O   0  0  0  0  0  0  0  0  0  0  0  0
    8.7122    6.7842   24.8569 C   0  0  0  0  0  0  0  0  0  0  0  0
   10.3400    6.1726   14.3081 C   0  0  0  0  0  0  0  0  0  0  0  0
    7.4297    7.5873   24.8962 C   0  0  0  0  0  0  0  0  0  0  0  0
    8.1566   10.0536   16.0516 O   0  0  0  0  0  0  0  0  0  0  0  0
   12.4989    6.2074   20.1776 C   0  0  0  0  0  0  0  0  0  0  0  0
    6.9192    9.1053   20.9073 O   0  0  0  0  0  0  0  0  0  0  0  0
   14.3979    6.0729   18.7784 C   0  0  0  0  0  0  0  0  0  0  0  0
    8.6811    9.5354   16.9998 C   0  0  0  0  0  0  0  0  0  0  0  0
    9.2512    4.2713   13.7653 O   0  0  0  0  0  0  0  0  0  0  0  0
    9.6495    8.6317   16.8332 N   0  0  0  0  0  0  0  0  0  0  0  0
    6.2934    8.6988   23.1988 O   0  0  0  0  0  0  0  0  0  0  0  0
    7.9806    8.6543   20.5437 C   0  0  0  0  0  0  0  0  0  0  0  0
   13.7270    5.7144   19.8610 O   0  0  0  0  0  0  0  0  0  0  0  0
    8.3351    5.5235   15.4478 C   0  0  0  0  0  0  0  0  0  0  0  0
    8.7700    7.8434   21.3915 C   0  0  0  0  0  0  0  0  0  0  0  0
   11.7856    6.8851   19.2401 C   0  0  0  0  0  0  0  0  0  0  0  0
   10.5281    7.4276   19.5649 C   0  0  0  0  0  0  0  0  0  0  0  0
   10.0256    7.2907   20.8484 C   0  0  0  0  0  0  0  0  0  0  0  0
    9.3113    5.3049   14.4911 C   0  0  0  0  0  0  0  0  0  0  0  0
    9.4607    7.5646   16.0139 C   0  0  0  0  0  0  0  0  0  0  0  0
   10.4192    7.3157   15.0955 C   0  0  0  0  0  0  0  0  0  0  0  0
   10.2489    6.4227   23.0218 N   0  0  0  0  0  0  0  0  0  0  0  0
    7.2472    8.0746   23.5050 C   0  0  0  0  0  0  0  0  0  0  0  0
    9.2051    6.9101   23.4604 C   0  0  0  0  0  0  0  0  0  0  0  0
   11.9646    6.0299   21.4251 C   0  0  0  0  0  0  0  0  0  0  0  0
  1  5  1  0
  1 13  1  0
  2 20  2  0
  2 28  1  0
  2 29  1  0
  3 19  4  0
  3 25  4  0
  4 23  4  0
  4 27  1  0
  4 30  4  0
  5 17  1  0
  6  8  1  0
  6 29  1  0
  7 24  4  0
  7 26  4  0
  8 28  1  0
  9 13  2  0
 10 18  1  0
 10 21  4  0
 10 30  4  0
 11 17  2  0
 12 18  1  0
 13 15  1  0
 14 24  1  0
 15 25  1  0
 16 28  2  0
 17 20  1  0
 19 24  4  0
 20 23  1  0
 21 22  4  0
 22 23  4  0
 25 26  4  0
 27 29  2  0
M  END
$$$$

 Created by Python create_sdf_string function

 30 33  0  0  0  0  0  0  0  0999 V2000
    8.3036    9.8571   18.4133 C   0  0  0  0  0  0  0  0  0  0  0  0
    8.3694    7.6612   22.6703 C   0  0  0  0  0  0  0  0  0  0  0  0
    8.4143    6.6863   16.2273 C   0  0  0  0  0  0  0  0  0  0  0  0
   10.7581    6.5674   21.7636 C   0  0  0  0  0  0  0  0  0  0  0  0
    8.4452    8.7960   19.2958 O   0  0  0  0  0  0  0  0  0  0  0  0
    8.7122    6.7842   24.8569 C   0  0  0  0  0  0  0  0  0  0  0  0
   10.3400    6.1726   14.3081 C   0  0  0  0  0  0  0  0  0  0  0  0
    7.4297    7.5873   24.8962 C   0  0  0  0  0  0  0  0  0  0  0  0
    8.1566   10.0536   16.0516 O   0  0  0  0  0  0  0  0  0  0  0  0
   12.4989    6.2074   20.1776 C   0  0  0  0  0  0  0  0  0  0  0  0
    6.9192    9.1053   20.9073 O   0  0  0  0  0  0  0  0  0  0  0  0
   14.3979    6.0729   18.7784 C   0  0  0  0  0  0  0  0  0  0  0  0
    8.6811    9.5354   16.9998 C   0  0  0  0  0  0  0  0  0  0  0  0
    9.2512    4.2713   13.7653 O   0  0  0  0  0  0  0  0  0  0  0  0
    9.6495    8.6317   16.8332 N   0  0  0  0  0  0  0  0  0  0  0  0
    6.2934    8.6988   23.1988 O   0  0  0  0  0  0  0  0  0  0  0  0
    7.9806    8.6543   20.5437 C   0  0  0  0  0  0  0  0  0  0  0  0
   13.7270    5.7144   19.8610 O   0  0  0  0  0  0  0  0  0  0  0  0
    8.3351    5.5235   15.4478 C   0  0  0  0  0  0  0  0  0  0  0  0
    8.7700    7.8434   21.3915 C   0  0  0  0  0  0  0  0  0  0  0  0
   11.7856    6.8851   19.2401 C   0  0  0  0  0  0  0  0  0  0  0  0
   10.5281    7.4276   19.5649 C   0  0  0  0  0  0  0  0  0  0  0  0
   10.0256    7.2907   20.8484 C   0  0  0  0  0  0  0  0  0  0  0  0
    9.3113    5.3049   14.4911 C   0  0  0  0  0  0  0  0  0  0  0  0
    9.4607    7.5646   16.0139 C   0  0  0  0  0  0  0  0  0  0  0  0
   10.4192    7.3157   15.0955 C   0  0  0  0  0  0  0  0  0  0  0  0
   10.2489    6.4227   23.0218 N   0  0  0  0  0  0  0  0  0  0  0  0
    7.2472    8.0746   23.5050 C   0  0  0  0  0  0  0  0  0  0  0  0
    9.2051    6.9101   23.4604 C   0  0  0  0  0  0  0  0  0  0  0  0
   11.9646    6.0299   21.4251 C   0  0  0  0  0  0  0  0  0  0  0  0
  1  5  1  0
  1 13  1  0
  2 20  2  0
  2 28  1  0
  2 29  1  0
  3 19  4  0
  3 25  4  0
  4 23  4  0
  4 27  1  0
  4 30  4  0
  5 17  1  0
  6  8  1  0
  6 29  1  0
  7 24  4  0
  7 26  4  0
  8 28  1  0
  9 13  2  0
 10 18  1  0
 10 21  4  0
 10 30  4  0
 11 17  2  0
 12 18  1  0
 13 15  1  0
 14 24  1  0
 15 25  1  0
 16 28  2  0
 17 20  1  0
 19 24  4  0
 20 23  1  0
 21 22  4  0
 22 23  4  0
 25 26  4  0
 27 29  2  0
M  END
$$$$

 Created by Python create_sdf_string function

 30 33  0  0  0  0  0  0  0  0999 V2000
    8.3036    9.8571   18.4133 C   0  0  0  0  0  0  0  0  0  0  0  0
    8.3694    7.6612   22.6703 C   0  0  0  0  0  0  0  0  0  0  0  0
    8.4143    6.6863   16.2273 C   0  0  0  0  0  0  0  0  0  0  0  0
   10.7581    6.5674   21.7636 C   0  0  0  0  0  0  0  0  0  0  0  0
    8.4452    8.7960   19.2958 O   0  0  0  0  0  0  0  0  0  0  0  0
    8.7122    6.7842   24.8569 C   0  0  0  0  0  0  0  0  0  0  0  0
   10.3400    6.1726   14.3081 C   0  0  0  0  0  0  0  0  0  0  0  0
    7.4297    7.5873   24.8962 C   0  0  0  0  0  0  0  0  0  0  0  0
    8.1566   10.0536   16.0516 O   0  0  0  0  0  0  0  0  0  0  0  0
   12.4989    6.2074   20.1776 C   0  0  0  0  0  0  0  0  0  0  0  0
    6.9192    9.1053   20.9073 O   0  0  0  0  0  0  0  0  0  0  0  0
   14.3979    6.0729   18.7784 C   0  0  0  0  0  0  0  0  0  0  0  0
    8.6811    9.5354   16.9998 C   0  0  0  0  0  0  0  0  0  0  0  0
    9.2512    4.2713   13.7653 O   0  0  0  0  0  0  0  0  0  0  0  0
    9.6495    8.6317   16.8332 N   0  0  0  0  0  0  0  0  0  0  0  0
    6.2934    8.6988   23.1988 O   0  0  0  0  0  0  0  0  0  0  0  0
    7.9806    8.6543   20.5437 C   0  0  0  0  0  0  0  0  0  0  0  0
   13.7270    5.7144   19.8610 O   0  0  0  0  0  0  0  0  0  0  0  0
    8.3351    5.5235   15.4478 C   0  0  0  0  0  0  0  0  0  0  0  0
    8.7700    7.8434   21.3915 C   0  0  0  0  0  0  0  0  0  0  0  0
   11.7856    6.8851   19.2401 C   0  0  0  0  0  0  0  0  0  0  0  0
   10.5281    7.4276   19.5649 C   0  0  0  0  0  0  0  0  0  0  0  0
   10.0256    7.2907   20.8484 C   0  0  0  0  0  0  0  0  0  0  0  0
    9.3113    5.3049   14.4911 C   0  0  0  0  0  0  0  0  0  0  0  0
    9.4607    7.5646   16.0139 C   0  0  0  0  0  0  0  0  0  0  0  0
   10.4192    7.3157   15.0955 C   0  0  0  0  0  0  0  0  0  0  0  0
   10.2489    6.4227   23.0218 N   0  0  0  0  0  0  0  0  0  0  0  0
    7.2472    8.0746   23.5050 C   0  0  0  0  0  0  0  0  0  0  0  0
    9.2051    6.9101   23.4604 C   0  0  0  0  0  0  0  0  0  0  0  0
   11.9646    6.0299   21.4251 C   0  0  0  0  0  0  0  0  0  0  0  0
  1  5  1  0
  1 13  1  0
  2 20  2  0
  2 28  1  0
  2 29  1  0
  3 19  4  0
  3 25  4  0
  4 23  4  0
  4 27  1  0
  4 30  4  0
  5 17  1  0
  6  8  1  0
  6 29  1  0
  7 24  4  0
  7 26  4  0
  8 28  1  0
  9 13  2  0
 10 18  1  0
 10 21  4  0
 10 30  4  0
 11 17  2  0
 12 18  1  0
 13 15  1  0
 14 24  1  0
 15 25  1  0
 16 28  2  0
 17 20  1  0
 19 24  4  0
 20 23  1  0
 21 22  4  0
 22 23  4  0
 25 26  4  0
 27 29  2  0
M  END
$$$$

 Created by Python create_sdf_string function

 30 33  0  0  0  0  0  0  0  0999 V2000
    8.3036    9.8571   18.4133 C   0  0  0  0  0  0  0  0  0  0  0  0
    8.3694    7.6612   22.6703 C   0  0  0  0  0  0  0  0  0  0  0  0
    8.4143    6.6863   16.2273 C   0  0  0  0  0  0  0  0  0  0  0  0
   10.7581    6.5674   21.7636 C   0  0  0  0  0  0  0  0  0  0  0  0
    8.4452    8.7960   19.2958 O   0  0  0  0  0  0  0  0  0  0  0  0
    8.7122    6.7842   24.8569 C   0  0  0  0  0  0  0  0  0  0  0  0
   10.3400    6.1726   14.3081 C   0  0  0  0  0  0  0  0  0  0  0  0
    7.4297    7.5873   24.8962 C   0  0  0  0  0  0  0  0  0  0  0  0
    8.1566   10.0536   16.0516 O   0  0  0  0  0  0  0  0  0  0  0  0
   12.4989    6.2074   20.1776 C   0  0  0  0  0  0  0  0  0  0  0  0
    6.9192    9.1053   20.9073 O   0  0  0  0  0  0  0  0  0  0  0  0
   14.3979    6.0729   18.7784 C   0  0  0  0  0  0  0  0  0  0  0  0
    8.6811    9.5354   16.9998 C   0  0  0  0  0  0  0  0  0  0  0  0
    9.2512    4.2713   13.7653 O   0  0  0  0  0  0  0  0  0  0  0  0
    9.6495    8.6317   16.8332 N   0  0  0  0  0  0  0  0  0  0  0  0
    6.2934    8.6988   23.1988 O   0  0  0  0  0  0  0  0  0  0  0  0
    7.9806    8.6543   20.5437 C   0  0  0  0  0  0  0  0  0  0  0  0
   13.7270    5.7144   19.8610 O   0  0  0  0  0  0  0  0  0  0  0  0
    8.3351    5.5235   15.4478 C   0  0  0  0  0  0  0  0  0  0  0  0
    8.7700    7.8434   21.3915 C   0  0  0  0  0  0  0  0  0  0  0  0
   11.7856    6.8851   19.2401 C   0  0  0  0  0  0  0  0  0  0  0  0
   10.5281    7.4276   19.5649 C   0  0  0  0  0  0  0  0  0  0  0  0
   10.0256    7.2907   20.8484 C   0  0  0  0  0  0  0  0  0  0  0  0
    9.3113    5.3049   14.4911 C   0  0  0  0  0  0  0  0  0  0  0  0
    9.4607    7.5646   16.0139 C   0  0  0  0  0  0  0  0  0  0  0  0
   10.4192    7.3157   15.0955 C   0  0  0  0  0  0  0  0  0  0  0  0
   10.2489    6.4227   23.0218 N   0  0  0  0  0  0  0  0  0  0  0  0
    7.2472    8.0746   23.5050 C   0  0  0  0  0  0  0  0  0  0  0  0
    9.2051    6.9101   23.4604 C   0  0  0  0  0  0  0  0  0  0  0  0
   11.9646    6.0299   21.4251 C   0  0  0  0  0  0  0  0  0  0  0  0
  1  5  1  0
  1 13  1  0
  2 20  2  0
  2 28  1  0
  2 29  1  0
  3 19  4  0
  3 25  4  0
  4 23  4  0
  4 27  1  0
  4 30  4  0
  5 17  1  0
  6  8  1  0
  6 29  1  0
  7 24  4  0
  7 26  4  0
  8 28  1  0
  9 13  2  0
 10 18  1  0
 10 21  4  0
 10 30  4  0
 11 17  2  0
 12 18  1  0
 13 15  1  0
 14 24  1  0
 15 25  1  0
 16 28  2  0
 17 20  1  0
 19 24  4  0
 20 23  1  0
 21 22  4  0
 22 23  4  0
 25 26  4  0
 27 29  2  0
M  END
$$$$

 Created by Python create_sdf_string function

 30 33  0  0  0  0  0  0  0  0999 V2000
    8.3036    9.8571   18.4133 C   0  0  0  0  0  0  0  0  0  0  0  0
    8.3694    7.6612   22.6703 C   0  0  0  0  0  0  0  0  0  0  0  0
    8.4143    6.6863   16.2273 C   0  0  0  0  0  0  0  0  0  0  0  0
   10.7581    6.5674   21.7636 C   0  0  0  0  0  0  0  0  0  0  0  0
    8.4452    8.7960   19.2958 O   0  0  0  0  0  0  0  0  0  0  0  0
    8.7122    6.7842   24.8569 C   0  0  0  0  0  0  0  0  0  0  0  0
   10.3400    6.1726   14.3081 C   0  0  0  0  0  0  0  0  0  0  0  0
    7.4297    7.5873   24.8962 C   0  0  0  0  0  0  0  0  0  0  0  0
    8.1566   10.0536   16.0516 O   0  0  0  0  0  0  0  0  0  0  0  0
   12.4989    6.2074   20.1776 C   0  0  0  0  0  0  0  0  0  0  0  0
    6.9192    9.1053   20.9073 O   0  0  0  0  0  0  0  0  0  0  0  0
   14.3979    6.0729   18.7784 C   0  0  0  0  0  0  0  0  0  0  0  0
    8.6811    9.5354   16.9998 C   0  0  0  0  0  0  0  0  0  0  0  0
    9.2512    4.2713   13.7653 O   0  0  0  0  0  0  0  0  0  0  0  0
    9.6495    8.6317   16.8332 N   0  0  0  0  0  0  0  0  0  0  0  0
    6.2934    8.6988   23.1988 O   0  0  0  0  0  0  0  0  0  0  0  0
    7.9806    8.6543   20.5437 C   0  0  0  0  0  0  0  0  0  0  0  0
   13.7270    5.7144   19.8610 O   0  0  0  0  0  0  0  0  0  0  0  0
    8.3351    5.5235   15.4478 C   0  0  0  0  0  0  0  0  0  0  0  0
    8.7700    7.8434   21.3915 C   0  0  0  0  0  0  0  0  0  0  0  0
   11.7856    6.8851   19.2401 C   0  0  0  0  0  0  0  0  0  0  0  0
   10.5281    7.4276   19.5649 C   0  0  0  0  0  0  0  0  0  0  0  0
   10.0256    7.2907   20.8484 C   0  0  0  0  0  0  0  0  0  0  0  0
    9.3113    5.3049   14.4911 C   0  0  0  0  0  0  0  0  0  0  0  0
    9.4607    7.5646   16.0139 C   0  0  0  0  0  0  0  0  0  0  0  0
   10.4192    7.3157   15.0955 C   0  0  0  0  0  0  0  0  0  0  0  0
   10.2489    6.4227   23.0218 N   0  0  0  0  0  0  0  0  0  0  0  0
    7.2472    8.0746   23.5050 C   0  0  0  0  0  0  0  0  0  0  0  0
    9.2051    6.9101   23.4604 C   0  0  0  0  0  0  0  0  0  0  0  0
   11.9646    6.0299   21.4251 C   0  0  0  0  0  0  0  0  0  0  0  0
  1  5  1  0
  1 13  1  0
  2 20  2  0
  2 28  1  0
  2 29  1  0
  3 19  4  0
  3 25  4  0
  4 23  4  0
  4 27  1  0
  4 30  4  0
  5 17  1  0
  6  8  1  0
  6 29  1  0
  7 24  4  0
  7 26  4  0
  8 28  1  0
  9 13  2  0
 10 18  1  0
 10 21  4  0
 10 30  4  0
 11 17  2  0
 12 18  1  0
 13 15  1  0
 14 24  1  0
 15 25  1  0
 16 28  2  0
 17 20  1  0
 19 24  4  0
 20 23  1  0
 21 22  4  0
 22 23  4  0
 25 26  4  0
 27 29  2  0
M  END
$$$$

 Created by Python create_sdf_string function

 30 33  0  0  0  0  0  0  0  0999 V2000
    8.3036    9.8571   18.4133 C   0  0  0  0  0  0  0  0  0  0  0  0
    8.3694    7.6612   22.6703 C   0  0  0  0  0  0  0  0  0  0  0  0
    8.4143    6.6863   16.2273 C   0  0  0  0  0  0  0  0  0  0  0  0
   10.7581    6.5674   21.7636 C   0  0  0  0  0  0  0  0  0  0  0  0
    8.4452    8.7960   19.2958 O   0  0  0  0  0  0  0  0  0  0  0  0
    8.7122    6.7842   24.8569 C   0  0  0  0  0  0  0  0  0  0  0  0
   10.3400    6.1726   14.3081 C   0  0  0  0  0  0  0  0  0  0  0  0
    7.4297    7.5873   24.8962 C   0  0  0  0  0  0  0  0  0  0  0  0
    8.1566   10.0536   16.0516 O   0  0  0  0  0  0  0  0  0  0  0  0
   12.4989    6.2074   20.1776 C   0  0  0  0  0  0  0  0  0  0  0  0
    6.9192    9.1053   20.9073 O   0  0  0  0  0  0  0  0  0  0  0  0
   14.3979    6.0729   18.7784 C   0  0  0  0  0  0  0  0  0  0  0  0
    8.6811    9.5354   16.9998 C   0  0  0  0  0  0  0  0  0  0  0  0
    9.2512    4.2713   13.7653 O   0  0  0  0  0  0  0  0  0  0  0  0
    9.6495    8.6317   16.8332 N   0  0  0  0  0  0  0  0  0  0  0  0
    6.2934    8.6988   23.1988 O   0  0  0  0  0  0  0  0  0  0  0  0
    7.9806    8.6543   20.5437 C   0  0  0  0  0  0  0  0  0  0  0  0
   13.7270    5.7144   19.8610 O   0  0  0  0  0  0  0  0  0  0  0  0
    8.3351    5.5235   15.4478 C   0  0  0  0  0  0  0  0  0  0  0  0
    8.7700    7.8434   21.3915 C   0  0  0  0  0  0  0  0  0  0  0  0
   11.7856    6.8851   19.2401 C   0  0  0  0  0  0  0  0  0  0  0  0
   10.5281    7.4276   19.5649 C   0  0  0  0  0  0  0  0  0  0  0  0
   10.0256    7.2907   20.8484 C   0  0  0  0  0  0  0  0  0  0  0  0
    9.3113    5.3049   14.4911 C   0  0  0  0  0  0  0  0  0  0  0  0
    9.4607    7.5646   16.0139 C   0  0  0  0  0  0  0  0  0  0  0  0
   10.4192    7.3157   15.0955 C   0  0  0  0  0  0  0  0  0  0  0  0
   10.2489    6.4227   23.0218 N   0  0  0  0  0  0  0  0  0  0  0  0
    7.2472    8.0746   23.5050 C   0  0  0  0  0  0  0  0  0  0  0  0
    9.2051    6.9101   23.4604 C   0  0  0  0  0  0  0  0  0  0  0  0
   11.9646    6.0299   21.4251 C   0  0  0  0  0  0  0  0  0  0  0  0
  1  5  1  0
  1 13  1  0
  2 20  2  0
  2 28  1  0
  2 29  1  0
  3 19  4  0
  3 25  4  0
  4 23  4  0
  4 27  1  0
  4 30  4  0
  5 17  1  0
  6  8  1  0
  6 29  1  0
  7 24  4  0
  7 26  4  0
  8 28  1  0
  9 13  2  0
 10 18  1  0
 10 21  4  0
 10 30  4  0
 11 17  2  0
 12 18  1  0
 13 15  1  0
 14 24  1  0
 15 25  1  0
 16 28  2  0
 17 20  1  0
 19 24  4  0
 20 23  1  0
 21 22  4  0
 22 23  4  0
 25 26  4  0
 27 29  2  0
M  END
$$$$

 Created by Python create_sdf_string function

 30 33  0  0  0  0  0  0  0  0999 V2000
    8.3036    9.8571   18.4133 C   0  0  0  0  0  0  0  0  0  0  0  0
    8.3694    7.6612   22.6703 C   0  0  0  0  0  0  0  0  0  0  0  0
    8.4143    6.6863   16.2273 C   0  0  0  0  0  0  0  0  0  0  0  0
   10.7581    6.5674   21.7636 C   0  0  0  0  0  0  0  0  0  0  0  0
    8.4452    8.7960   19.2958 O   0  0  0  0  0  0  0  0  0  0  0  0
    8.7122    6.7842   24.8569 C   0  0  0  0  0  0  0  0  0  0  0  0
   10.3400    6.1726   14.3081 C   0  0  0  0  0  0  0  0  0  0  0  0
    7.4297    7.5873   24.8962 C   0  0  0  0  0  0  0  0  0  0  0  0
    8.1566   10.0536   16.0516 O   0  0  0  0  0  0  0  0  0  0  0  0
   12.4989    6.2074   20.1776 C   0  0  0  0  0  0  0  0  0  0  0  0
    6.9192    9.1053   20.9073 O   0  0  0  0  0  0  0  0  0  0  0  0
   14.3979    6.0729   18.7784 C   0  0  0  0  0  0  0  0  0  0  0  0
    8.6811    9.5354   16.9998 C   0  0  0  0  0  0  0  0  0  0  0  0
    9.2512    4.2713   13.7653 O   0  0  0  0  0  0  0  0  0  0  0  0
    9.6495    8.6317   16.8332 N   0  0  0  0  0  0  0  0  0  0  0  0
    6.2934    8.6988   23.1988 O   0  0  0  0  0  0  0  0  0  0  0  0
    7.9806    8.6543   20.5437 C   0  0  0  0  0  0  0  0  0  0  0  0
   13.7270    5.7144   19.8610 O   0  0  0  0  0  0  0  0  0  0  0  0
    8.3351    5.5235   15.4478 C   0  0  0  0  0  0  0  0  0  0  0  0
    8.7700    7.8434   21.3915 C   0  0  0  0  0  0  0  0  0  0  0  0
   11.7856    6.8851   19.2401 C   0  0  0  0  0  0  0  0  0  0  0  0
   10.5281    7.4276   19.5649 C   0  0  0  0  0  0  0  0  0  0  0  0
   10.0256    7.2907   20.8484 C   0  0  0  0  0  0  0  0  0  0  0  0
    9.3113    5.3049   14.4911 C   0  0  0  0  0  0  0  0  0  0  0  0
    9.4607    7.5646   16.0139 C   0  0  0  0  0  0  0  0  0  0  0  0
   10.4192    7.3157   15.0955 C   0  0  0  0  0  0  0  0  0  0  0  0
   10.2489    6.4227   23.0218 N   0  0  0  0  0  0  0  0  0  0  0  0
    7.2472    8.0746   23.5050 C   0  0  0  0  0  0  0  0  0  0  0  0
    9.2051    6.9101   23.4604 C   0  0  0  0  0  0  0  0  0  0  0  0
   11.9646    6.0299   21.4251 C   0  0  0  0  0  0  0  0  0  0  0  0
  1  5  1  0
  1 13  1  0
  2 20  2  0
  2 28  1  0
  2 29  1  0
  3 19  4  0
  3 25  4  0
  4 23  4  0
  4 27  1  0
  4 30  4  0
  5 17  1  0
  6  8  1  0
  6 29  1  0
  7 24  4  0
  7 26  4  0
  8 28  1  0
  9 13  2  0
 10 18  1  0
 10 21  4  0
 10 30  4  0
 11 17  2  0
 12 18  1  0
 13 15  1  0
 14 24  1  0
 15 25  1  0
 16 28  2  0
 17 20  1  0
 19 24  4  0
 20 23  1  0
 21 22  4  0
 22 23  4  0
 25 26  4  0
 27 29  2  0
M  END
$$$$

 Created by Python create_sdf_string function

 30 33  0  0  0  0  0  0  0  0999 V2000
    8.3036    9.8571   18.4133 C   0  0  0  0  0  0  0  0  0  0  0  0
    8.3694    7.6612   22.6703 C   0  0  0  0  0  0  0  0  0  0  0  0
    8.4143    6.6863   16.2273 C   0  0  0  0  0  0  0  0  0  0  0  0
   10.7581    6.5674   21.7636 C   0  0  0  0  0  0  0  0  0  0  0  0
    8.4452    8.7960   19.2958 O   0  0  0  0  0  0  0  0  0  0  0  0
    8.7122    6.7842   24.8569 C   0  0  0  0  0  0  0  0  0  0  0  0
   10.3400    6.1726   14.3081 C   0  0  0  0  0  0  0  0  0  0  0  0
    7.4297    7.5873   24.8962 C   0  0  0  0  0  0  0  0  0  0  0  0
    8.1566   10.0536   16.0516 O   0  0  0  0  0  0  0  0  0  0  0  0
   12.4989    6.2074   20.1776 C   0  0  0  0  0  0  0  0  0  0  0  0
    6.9192    9.1053   20.9073 O   0  0  0  0  0  0  0  0  0  0  0  0
   14.3979    6.0729   18.7784 C   0  0  0  0  0  0  0  0  0  0  0  0
    8.6811    9.5354   16.9998 C   0  0  0  0  0  0  0  0  0  0  0  0
    9.2512    4.2713   13.7653 O   0  0  0  0  0  0  0  0  0  0  0  0
    9.6495    8.6317   16.8332 N   0  0  0  0  0  0  0  0  0  0  0  0
    6.2934    8.6988   23.1988 O   0  0  0  0  0  0  0  0  0  0  0  0
    7.9806    8.6543   20.5437 C   0  0  0  0  0  0  0  0  0  0  0  0
   13.7270    5.7144   19.8610 O   0  0  0  0  0  0  0  0  0  0  0  0
    8.3351    5.5235   15.4478 C   0  0  0  0  0  0  0  0  0  0  0  0
    8.7700    7.8434   21.3915 C   0  0  0  0  0  0  0  0  0  0  0  0
   11.7856    6.8851   19.2401 C   0  0  0  0  0  0  0  0  0  0  0  0
   10.5281    7.4276   19.5649 C   0  0  0  0  0  0  0  0  0  0  0  0
   10.0256    7.2907   20.8484 C   0  0  0  0  0  0  0  0  0  0  0  0
    9.3113    5.3049   14.4911 C   0  0  0  0  0  0  0  0  0  0  0  0
    9.4607    7.5646   16.0139 C   0  0  0  0  0  0  0  0  0  0  0  0
   10.4192    7.3157   15.0955 C   0  0  0  0  0  0  0  0  0  0  0  0
   10.2489    6.4227   23.0218 N   0  0  0  0  0  0  0  0  0  0  0  0
    7.2472    8.0746   23.5050 C   0  0  0  0  0  0  0  0  0  0  0  0
    9.2051    6.9101   23.4604 C   0  0  0  0  0  0  0  0  0  0  0  0
   11.9646    6.0299   21.4251 C   0  0  0  0  0  0  0  0  0  0  0  0
  1  5  1  0
  1 13  1  0
  2 20  2  0
  2 28  1  0
  2 29  1  0
  3 19  4  0
  3 25  4  0
  4 23  4  0
  4 27  1  0
  4 30  4  0
  5 17  1  0
  6  8  1  0
  6 29  1  0
  7 24  4  0
  7 26  4  0
  8 28  1  0
  9 13  2  0
 10 18  1  0
 10 21  4  0
 10 30  4  0
 11 17  2  0
 12 18  1  0
 13 15  1  0
 14 24  1  0
 15 25  1  0
 16 28  2  0
 17 20  1  0
 19 24  4  0
 20 23  1  0
 21 22  4  0
 22 23  4  0
 25 26  4  0
 27 29  2  0
M  END
$$$$

 Created by Python create_sdf_string function

 30 33  0  0  0  0  0  0  0  0999 V2000
    8.3036    9.8571   18.4133 C   0  0  0  0  0  0  0  0  0  0  0  0
    8.3694    7.6612   22.6703 C   0  0  0  0  0  0  0  0  0  0  0  0
    8.4143    6.6863   16.2273 C   0  0  0  0  0  0  0  0  0  0  0  0
   10.7581    6.5674   21.7636 C   0  0  0  0  0  0  0  0  0  0  0  0
    8.4452    8.7960   19.2958 O   0  0  0  0  0  0  0  0  0  0  0  0
    8.7122    6.7842   24.8569 C   0  0  0  0  0  0  0  0  0  0  0  0
   10.3400    6.1726   14.3081 C   0  0  0  0  0  0  0  0  0  0  0  0
    7.4297    7.5873   24.8962 C   0  0  0  0  0  0  0  0  0  0  0  0
    8.1566   10.0536   16.0516 O   0  0  0  0  0  0  0  0  0  0  0  0
   12.4989    6.2074   20.1776 C   0  0  0  0  0  0  0  0  0  0  0  0
    6.9192    9.1053   20.9073 O   0  0  0  0  0  0  0  0  0  0  0  0
   14.3979    6.0729   18.7784 C   0  0  0  0  0  0  0  0  0  0  0  0
    8.6811    9.5354   16.9998 C   0  0  0  0  0  0  0  0  0  0  0  0
    9.2512    4.2713   13.7653 O   0  0  0  0  0  0  0  0  0  0  0  0
    9.6495    8.6317   16.8332 N   0  0  0  0  0  0  0  0  0  0  0  0
    6.2934    8.6988   23.1988 O   0  0  0  0  0  0  0  0  0  0  0  0
    7.9806    8.6543   20.5437 C   0  0  0  0  0  0  0  0  0  0  0  0
   13.7270    5.7144   19.8610 O   0  0  0  0  0  0  0  0  0  0  0  0
    8.3351    5.5235   15.4478 C   0  0  0  0  0  0  0  0  0  0  0  0
    8.7700    7.8434   21.3915 C   0  0  0  0  0  0  0  0  0  0  0  0
   11.7856    6.8851   19.2401 C   0  0  0  0  0  0  0  0  0  0  0  0
   10.5281    7.4276   19.5649 C   0  0  0  0  0  0  0  0  0  0  0  0
   10.0256    7.2907   20.8484 C   0  0  0  0  0  0  0  0  0  0  0  0
    9.3113    5.3049   14.4911 C   0  0  0  0  0  0  0  0  0  0  0  0
    9.4607    7.5646   16.0139 C   0  0  0  0  0  0  0  0  0  0  0  0
   10.4192    7.3157   15.0955 C   0  0  0  0  0  0  0  0  0  0  0  0
   10.2489    6.4227   23.0218 N   0  0  0  0  0  0  0  0  0  0  0  0
    7.2472    8.0746   23.5050 C   0  0  0  0  0  0  0  0  0  0  0  0
    9.2051    6.9101   23.4604 C   0  0  0  0  0  0  0  0  0  0  0  0
   11.9646    6.0299   21.4251 C   0  0  0  0  0  0  0  0  0  0  0  0
  1  5  1  0
  1 13  1  0
  2 20  2  0
  2 28  1  0
  2 29  1  0
  3 19  4  0
  3 25  4  0
  4 23  4  0
  4 27  1  0
  4 30  4  0
  5 17  1  0
  6  8  1  0
  6 29  1  0
  7 24  4  0
  7 26  4  0
  8 28  1  0
  9 13  2  0
 10 18  1  0
 10 21  4  0
 10 30  4  0
 11 17  2  0
 12 18  1  0
 13 15  1  0
 14 24  1  0
 15 25  1  0
 16 28  2  0
 17 20  1  0
 19 24  4  0
 20 23  1  0
 21 22  4  0
 22 23  4  0
 25 26  4  0
 27 29  2  0
M  END
$$$$

 Created by Python create_sdf_string function

 30 33  0  0  0  0  0  0  0  0999 V2000
    8.3036    9.8571   18.4133 C   0  0  0  0  0  0  0  0  0  0  0  0
    8.3694    7.6612   22.6703 C   0  0  0  0  0  0  0  0  0  0  0  0
    8.4143    6.6863   16.2273 C   0  0  0  0  0  0  0  0  0  0  0  0
   10.7581    6.5674   21.7636 C   0  0  0  0  0  0  0  0  0  0  0  0
    8.4452    8.7960   19.2958 O   0  0  0  0  0  0  0  0  0  0  0  0
    8.7122    6.7842   24.8569 C   0  0  0  0  0  0  0  0  0  0  0  0
   10.3400    6.1726   14.3081 C   0  0  0  0  0  0  0  0  0  0  0  0
    7.4297    7.5873   24.8962 C   0  0  0  0  0  0  0  0  0  0  0  0
    8.1566   10.0536   16.0516 O   0  0  0  0  0  0  0  0  0  0  0  0
   12.4989    6.2074   20.1776 C   0  0  0  0  0  0  0  0  0  0  0  0
    6.9192    9.1053   20.9073 O   0  0  0  0  0  0  0  0  0  0  0  0
   14.3979    6.0729   18.7784 C   0  0  0  0  0  0  0  0  0  0  0  0
    8.6811    9.5354   16.9998 C   0  0  0  0  0  0  0  0  0  0  0  0
    9.2512    4.2713   13.7653 O   0  0  0  0  0  0  0  0  0  0  0  0
    9.6495    8.6317   16.8332 N   0  0  0  0  0  0  0  0  0  0  0  0
    6.2934    8.6988   23.1988 O   0  0  0  0  0  0  0  0  0  0  0  0
    7.9806    8.6543   20.5437 C   0  0  0  0  0  0  0  0  0  0  0  0
   13.7270    5.7144   19.8610 O   0  0  0  0  0  0  0  0  0  0  0  0
    8.3351    5.5235   15.4478 C   0  0  0  0  0  0  0  0  0  0  0  0
    8.7700    7.8434   21.3915 C   0  0  0  0  0  0  0  0  0  0  0  0
   11.7856    6.8851   19.2401 C   0  0  0  0  0  0  0  0  0  0  0  0
   10.5281    7.4276   19.5649 C   0  0  0  0  0  0  0  0  0  0  0  0
   10.0256    7.2907   20.8484 C   0  0  0  0  0  0  0  0  0  0  0  0
    9.3113    5.3049   14.4911 C   0  0  0  0  0  0  0  0  0  0  0  0
    9.4607    7.5646   16.0139 C   0  0  0  0  0  0  0  0  0  0  0  0
   10.4192    7.3157   15.0955 C   0  0  0  0  0  0  0  0  0  0  0  0
   10.2489    6.4227   23.0218 N   0  0  0  0  0  0  0  0  0  0  0  0
    7.2472    8.0746   23.5050 C   0  0  0  0  0  0  0  0  0  0  0  0
    9.2051    6.9101   23.4604 C   0  0  0  0  0  0  0  0  0  0  0  0
   11.9646    6.0299   21.4251 C   0  0  0  0  0  0  0  0  0  0  0  0
  1  5  1  0
  1 13  1  0
  2 20  2  0
  2 28  1  0
  2 29  1  0
  3 19  4  0
  3 25  4  0
  4 23  4  0
  4 27  1  0
  4 30  4  0
  5 17  1  0
  6  8  1  0
  6 29  1  0
  7 24  4  0
  7 26  4  0
  8 28  1  0
  9 13  2  0
 10 18  1  0
 10 21  4  0
 10 30  4  0
 11 17  2  0
 12 18  1  0
 13 15  1  0
 14 24  1  0
 15 25  1  0
 16 28  2  0
 17 20  1  0
 19 24  4  0
 20 23  1  0
 21 22  4  0
 22 23  4  0
 25 26  4  0
 27 29  2  0
M  END
$$$$

 Created by Python create_sdf_string function

 30 33  0  0  0  0  0  0  0  0999 V2000
    8.3036    9.8571   18.4133 C   0  0  0  0  0  0  0  0  0  0  0  0
    8.3694    7.6612   22.6703 C   0  0  0  0  0  0  0  0  0  0  0  0
    8.4143    6.6863   16.2273 C   0  0  0  0  0  0  0  0  0  0  0  0
   10.7581    6.5674   21.7636 C   0  0  0  0  0  0  0  0  0  0  0  0
    8.4452    8.7960   19.2958 O   0  0  0  0  0  0  0  0  0  0  0  0
    8.7122    6.7842   24.8569 C   0  0  0  0  0  0  0  0  0  0  0  0
   10.3400    6.1726   14.3081 C   0  0  0  0  0  0  0  0  0  0  0  0
    7.4297    7.5873   24.8962 C   0  0  0  0  0  0  0  0  0  0  0  0
    8.1566   10.0536   16.0516 O   0  0  0  0  0  0  0  0  0  0  0  0
   12.4989    6.2074   20.1776 C   0  0  0  0  0  0  0  0  0  0  0  0
    6.9192    9.1053   20.9073 O   0  0  0  0  0  0  0  0  0  0  0  0
   14.3979    6.0729   18.7784 C   0  0  0  0  0  0  0  0  0  0  0  0
    8.6811    9.5354   16.9998 C   0  0  0  0  0  0  0  0  0  0  0  0
    9.2512    4.2713   13.7653 O   0  0  0  0  0  0  0  0  0  0  0  0
    9.6495    8.6317   16.8332 N   0  0  0  0  0  0  0  0  0  0  0  0
    6.2934    8.6988   23.1988 O   0  0  0  0  0  0  0  0  0  0  0  0
    7.9806    8.6543   20.5437 C   0  0  0  0  0  0  0  0  0  0  0  0
   13.7270    5.7144   19.8610 O   0  0  0  0  0  0  0  0  0  0  0  0
    8.3351    5.5235   15.4478 C   0  0  0  0  0  0  0  0  0  0  0  0
    8.7700    7.8434   21.3915 C   0  0  0  0  0  0  0  0  0  0  0  0
   11.7856    6.8851   19.2401 C   0  0  0  0  0  0  0  0  0  0  0  0
   10.5281    7.4276   19.5649 C   0  0  0  0  0  0  0  0  0  0  0  0
   10.0256    7.2907   20.8484 C   0  0  0  0  0  0  0  0  0  0  0  0
    9.3113    5.3049   14.4911 C   0  0  0  0  0  0  0  0  0  0  0  0
    9.4607    7.5646   16.0139 C   0  0  0  0  0  0  0  0  0  0  0  0
   10.4192    7.3157   15.0955 C   0  0  0  0  0  0  0  0  0  0  0  0
   10.2489    6.4227   23.0218 N   0  0  0  0  0  0  0  0  0  0  0  0
    7.2472    8.0746   23.5050 C   0  0  0  0  0  0  0  0  0  0  0  0
    9.2051    6.9101   23.4604 C   0  0  0  0  0  0  0  0  0  0  0  0
   11.9646    6.0299   21.4251 C   0  0  0  0  0  0  0  0  0  0  0  0
  1  5  1  0
  1 13  1  0
  2 20  2  0
  2 28  1  0
  2 29  1  0
  3 19  4  0
  3 25  4  0
  4 23  4  0
  4 27  1  0
  4 30  4  0
  5 17  1  0
  6  8  1  0
  6 29  1  0
  7 24  4  0
  7 26  4  0
  8 28  1  0
  9 13  2  0
 10 18  1  0
 10 21  4  0
 10 30  4  0
 11 17  2  0
 12 18  1  0
 13 15  1  0
 14 24  1  0
 15 25  1  0
 16 28  2  0
 17 20  1  0
 19 24  4  0
 20 23  1  0
 21 22  4  0
 22 23  4  0
 25 26  4  0
 27 29  2  0
M  END
$$$$

 Created by Python create_sdf_string function

 30 33  0  0  0  0  0  0  0  0999 V2000
    8.3036    9.8571   18.4133 C   0  0  0  0  0  0  0  0  0  0  0  0
    8.3694    7.6612   22.6703 C   0  0  0  0  0  0  0  0  0  0  0  0
    8.4143    6.6863   16.2273 C   0  0  0  0  0  0  0  0  0  0  0  0
   10.7581    6.5674   21.7636 C   0  0  0  0  0  0  0  0  0  0  0  0
    8.4452    8.7960   19.2958 O   0  0  0  0  0  0  0  0  0  0  0  0
    8.7122    6.7842   24.8569 C   0  0  0  0  0  0  0  0  0  0  0  0
   10.3400    6.1726   14.3081 C   0  0  0  0  0  0  0  0  0  0  0  0
    7.4297    7.5873   24.8962 C   0  0  0  0  0  0  0  0  0  0  0  0
    8.1566   10.0536   16.0516 O   0  0  0  0  0  0  0  0  0  0  0  0
   12.4989    6.2074   20.1776 C   0  0  0  0  0  0  0  0  0  0  0  0
    6.9192    9.1053   20.9073 O   0  0  0  0  0  0  0  0  0  0  0  0
   14.3979    6.0729   18.7784 C   0  0  0  0  0  0  0  0  0  0  0  0
    8.6811    9.5354   16.9998 C   0  0  0  0  0  0  0  0  0  0  0  0
    9.2512    4.2713   13.7653 O   0  0  0  0  0  0  0  0  0  0  0  0
    9.6495    8.6317   16.8332 N   0  0  0  0  0  0  0  0  0  0  0  0
    6.2934    8.6988   23.1988 O   0  0  0  0  0  0  0  0  0  0  0  0
    7.9806    8.6543   20.5437 C   0  0  0  0  0  0  0  0  0  0  0  0
   13.7270    5.7144   19.8610 O   0  0  0  0  0  0  0  0  0  0  0  0
    8.3351    5.5235   15.4478 C   0  0  0  0  0  0  0  0  0  0  0  0
    8.7700    7.8434   21.3915 C   0  0  0  0  0  0  0  0  0  0  0  0
   11.7856    6.8851   19.2401 C   0  0  0  0  0  0  0  0  0  0  0  0
   10.5281    7.4276   19.5649 C   0  0  0  0  0  0  0  0  0  0  0  0
   10.0256    7.2907   20.8484 C   0  0  0  0  0  0  0  0  0  0  0  0
    9.3113    5.3049   14.4911 C   0  0  0  0  0  0  0  0  0  0  0  0
    9.4607    7.5646   16.0139 C   0  0  0  0  0  0  0  0  0  0  0  0
   10.4192    7.3157   15.0955 C   0  0  0  0  0  0  0  0  0  0  0  0
   10.2489    6.4227   23.0218 N   0  0  0  0  0  0  0  0  0  0  0  0
    7.2472    8.0746   23.5050 C   0  0  0  0  0  0  0  0  0  0  0  0
    9.2051    6.9101   23.4604 C   0  0  0  0  0  0  0  0  0  0  0  0
   11.9646    6.0299   21.4251 C   0  0  0  0  0  0  0  0  0  0  0  0
  1  5  1  0
  1 13  1  0
  2 20  2  0
  2 28  1  0
  2 29  1  0
  3 19  4  0
  3 25  4  0
  4 23  4  0
  4 27  1  0
  4 30  4  0
  5 17  1  0
  6  8  1  0
  6 29  1  0
  7 24  4  0
  7 26  4  0
  8 28  1  0
  9 13  2  0
 10 18  1  0
 10 21  4  0
 10 30  4  0
 11 17  2  0
 12 18  1  0
 13 15  1  0
 14 24  1  0
 15 25  1  0
 16 28  2  0
 17 20  1  0
 19 24  4  0
 20 23  1  0
 21 22  4  0
 22 23  4  0
 25 26  4  0
 27 29  2  0
M  END
$$$$

 Created by Python create_sdf_string function

 30 33  0  0  0  0  0  0  0  0999 V2000
    8.3036    9.8571   18.4133 C   0  0  0  0  0  0  0  0  0  0  0  0
    8.3694    7.6612   22.6703 C   0  0  0  0  0  0  0  0  0  0  0  0
    8.4143    6.6863   16.2273 C   0  0  0  0  0  0  0  0  0  0  0  0
   10.7581    6.5674   21.7636 C   0  0  0  0  0  0  0  0  0  0  0  0
    8.4452    8.7960   19.2958 O   0  0  0  0  0  0  0  0  0  0  0  0
    8.7122    6.7842   24.8569 C   0  0  0  0  0  0  0  0  0  0  0  0
   10.3400    6.1726   14.3081 C   0  0  0  0  0  0  0  0  0  0  0  0
    7.4297    7.5873   24.8962 C   0  0  0  0  0  0  0  0  0  0  0  0
    8.1566   10.0536   16.0516 O   0  0  0  0  0  0  0  0  0  0  0  0
   12.4989    6.2074   20.1776 C   0  0  0  0  0  0  0  0  0  0  0  0
    6.9192    9.1053   20.9073 O   0  0  0  0  0  0  0  0  0  0  0  0
   14.3979    6.0729   18.7784 C   0  0  0  0  0  0  0  0  0  0  0  0
    8.6811    9.5354   16.9998 C   0  0  0  0  0  0  0  0  0  0  0  0
    9.2512    4.2713   13.7653 O   0  0  0  0  0  0  0  0  0  0  0  0
    9.6495    8.6317   16.8332 N   0  0  0  0  0  0  0  0  0  0  0  0
    6.2934    8.6988   23.1988 O   0  0  0  0  0  0  0  0  0  0  0  0
    7.9806    8.6543   20.5437 C   0  0  0  0  0  0  0  0  0  0  0  0
   13.7270    5.7144   19.8610 O   0  0  0  0  0  0  0  0  0  0  0  0
    8.3351    5.5235   15.4478 C   0  0  0  0  0  0  0  0  0  0  0  0
    8.7700    7.8434   21.3915 C   0  0  0  0  0  0  0  0  0  0  0  0
   11.7856    6.8851   19.2401 C   0  0  0  0  0  0  0  0  0  0  0  0
   10.5281    7.4276   19.5649 C   0  0  0  0  0  0  0  0  0  0  0  0
   10.0256    7.2907   20.8484 C   0  0  0  0  0  0  0  0  0  0  0  0
    9.3113    5.3049   14.4911 C   0  0  0  0  0  0  0  0  0  0  0  0
    9.4607    7.5646   16.0139 C   0  0  0  0  0  0  0  0  0  0  0  0
   10.4192    7.3157   15.0955 C   0  0  0  0  0  0  0  0  0  0  0  0
   10.2489    6.4227   23.0218 N   0  0  0  0  0  0  0  0  0  0  0  0
    7.2472    8.0746   23.5050 C   0  0  0  0  0  0  0  0  0  0  0  0
    9.2051    6.9101   23.4604 C   0  0  0  0  0  0  0  0  0  0  0  0
   11.9646    6.0299   21.4251 C   0  0  0  0  0  0  0  0  0  0  0  0
  1  5  1  0
  1 13  1  0
  2 20  2  0
  2 28  1  0
  2 29  1  0
  3 19  4  0
  3 25  4  0
  4 23  4  0
  4 27  1  0
  4 30  4  0
  5 17  1  0
  6  8  1  0
  6 29  1  0
  7 24  4  0
  7 26  4  0
  8 28  1  0
  9 13  2  0
 10 18  1  0
 10 21  4  0
 10 30  4  0
 11 17  2  0
 12 18  1  0
 13 15  1  0
 14 24  1  0
 15 25  1  0
 16 28  2  0
 17 20  1  0
 19 24  4  0
 20 23  1  0
 21 22  4  0
 22 23  4  0
 25 26  4  0
 27 29  2  0
M  END
$$$$

 Created by Python create_sdf_string function

 30 33  0  0  0  0  0  0  0  0999 V2000
    8.3036    9.8571   18.4133 C   0  0  0  0  0  0  0  0  0  0  0  0
    8.3694    7.6612   22.6703 C   0  0  0  0  0  0  0  0  0  0  0  0
    8.4143    6.6863   16.2273 C   0  0  0  0  0  0  0  0  0  0  0  0
   10.7581    6.5674   21.7636 C   0  0  0  0  0  0  0  0  0  0  0  0
    8.4452    8.7960   19.2958 O   0  0  0  0  0  0  0  0  0  0  0  0
    8.7122    6.7842   24.8569 C   0  0  0  0  0  0  0  0  0  0  0  0
   10.3400    6.1726   14.3081 C   0  0  0  0  0  0  0  0  0  0  0  0
    7.4297    7.5873   24.8962 C   0  0  0  0  0  0  0  0  0  0  0  0
    8.1566   10.0536   16.0516 O   0  0  0  0  0  0  0  0  0  0  0  0
   12.4989    6.2074   20.1776 C   0  0  0  0  0  0  0  0  0  0  0  0
    6.9192    9.1053   20.9073 O   0  0  0  0  0  0  0  0  0  0  0  0
   14.3979    6.0729   18.7784 C   0  0  0  0  0  0  0  0  0  0  0  0
    8.6811    9.5354   16.9998 C   0  0  0  0  0  0  0  0  0  0  0  0
    9.2512    4.2713   13.7653 O   0  0  0  0  0  0  0  0  0  0  0  0
    9.6495    8.6317   16.8332 N   0  0  0  0  0  0  0  0  0  0  0  0
    6.2934    8.6988   23.1988 O   0  0  0  0  0  0  0  0  0  0  0  0
    7.9806    8.6543   20.5437 C   0  0  0  0  0  0  0  0  0  0  0  0
   13.7270    5.7144   19.8610 O   0  0  0  0  0  0  0  0  0  0  0  0
    8.3351    5.5235   15.4478 C   0  0  0  0  0  0  0  0  0  0  0  0
    8.7700    7.8434   21.3915 C   0  0  0  0  0  0  0  0  0  0  0  0
   11.7856    6.8851   19.2401 C   0  0  0  0  0  0  0  0  0  0  0  0
   10.5281    7.4276   19.5649 C   0  0  0  0  0  0  0  0  0  0  0  0
   10.0256    7.2907   20.8484 C   0  0  0  0  0  0  0  0  0  0  0  0
    9.3113    5.3049   14.4911 C   0  0  0  0  0  0  0  0  0  0  0  0
    9.4607    7.5646   16.0139 C   0  0  0  0  0  0  0  0  0  0  0  0
   10.4192    7.3157   15.0955 C   0  0  0  0  0  0  0  0  0  0  0  0
   10.2489    6.4227   23.0218 N   0  0  0  0  0  0  0  0  0  0  0  0
    7.2472    8.0746   23.5050 C   0  0  0  0  0  0  0  0  0  0  0  0
    9.2051    6.9101   23.4604 C   0  0  0  0  0  0  0  0  0  0  0  0
   11.9646    6.0299   21.4251 C   0  0  0  0  0  0  0  0  0  0  0  0
  1  5  1  0
  1 13  1  0
  2 20  2  0
  2 28  1  0
  2 29  1  0
  3 19  4  0
  3 25  4  0
  4 23  4  0
  4 27  1  0
  4 30  4  0
  5 17  1  0
  6  8  1  0
  6 29  1  0
  7 24  4  0
  7 26  4  0
  8 28  1  0
  9 13  2  0
 10 18  1  0
 10 21  4  0
 10 30  4  0
 11 17  2  0
 12 18  1  0
 13 15  1  0
 14 24  1  0
 15 25  1  0
 16 28  2  0
 17 20  1  0
 19 24  4  0
 20 23  1  0
 21 22  4  0
 22 23  4  0
 25 26  4  0
 27 29  2  0
M  END
$$$$

 Created by Python create_sdf_string function

 30 33  0  0  0  0  0  0  0  0999 V2000
    8.3036    9.8571   18.4133 C   0  0  0  0  0  0  0  0  0  0  0  0
    8.3694    7.6612   22.6703 C   0  0  0  0  0  0  0  0  0  0  0  0
    8.4143    6.6863   16.2273 C   0  0  0  0  0  0  0  0  0  0  0  0
   10.7581    6.5674   21.7636 C   0  0  0  0  0  0  0  0  0  0  0  0
    8.4452    8.7960   19.2958 O   0  0  0  0  0  0  0  0  0  0  0  0
    8.7122    6.7842   24.8569 C   0  0  0  0  0  0  0  0  0  0  0  0
   10.3400    6.1726   14.3081 C   0  0  0  0  0  0  0  0  0  0  0  0
    7.4297    7.5873   24.8962 C   0  0  0  0  0  0  0  0  0  0  0  0
    8.1566   10.0536   16.0516 O   0  0  0  0  0  0  0  0  0  0  0  0
   12.4989    6.2074   20.1776 C   0  0  0  0  0  0  0  0  0  0  0  0
    6.9192    9.1053   20.9073 O   0  0  0  0  0  0  0  0  0  0  0  0
   14.3979    6.0729   18.7784 C   0  0  0  0  0  0  0  0  0  0  0  0
    8.6811    9.5354   16.9998 C   0  0  0  0  0  0  0  0  0  0  0  0
    9.2512    4.2713   13.7653 O   0  0  0  0  0  0  0  0  0  0  0  0
    9.6495    8.6317   16.8332 N   0  0  0  0  0  0  0  0  0  0  0  0
    6.2934    8.6988   23.1988 O   0  0  0  0  0  0  0  0  0  0  0  0
    7.9806    8.6543   20.5437 C   0  0  0  0  0  0  0  0  0  0  0  0
   13.7270    5.7144   19.8610 O   0  0  0  0  0  0  0  0  0  0  0  0
    8.3351    5.5235   15.4478 C   0  0  0  0  0  0  0  0  0  0  0  0
    8.7700    7.8434   21.3915 C   0  0  0  0  0  0  0  0  0  0  0  0
   11.7856    6.8851   19.2401 C   0  0  0  0  0  0  0  0  0  0  0  0
   10.5281    7.4276   19.5649 C   0  0  0  0  0  0  0  0  0  0  0  0
   10.0256    7.2907   20.8484 C   0  0  0  0  0  0  0  0  0  0  0  0
    9.3113    5.3049   14.4911 C   0  0  0  0  0  0  0  0  0  0  0  0
    9.4607    7.5646   16.0139 C   0  0  0  0  0  0  0  0  0  0  0  0
   10.4192    7.3157   15.0955 C   0  0  0  0  0  0  0  0  0  0  0  0
   10.2489    6.4227   23.0218 N   0  0  0  0  0  0  0  0  0  0  0  0
    7.2472    8.0746   23.5050 C   0  0  0  0  0  0  0  0  0  0  0  0
    9.2051    6.9101   23.4604 C   0  0  0  0  0  0  0  0  0  0  0  0
   11.9646    6.0299   21.4251 C   0  0  0  0  0  0  0  0  0  0  0  0
  1  5  1  0
  1 13  1  0
  2 20  2  0
  2 28  1  0
  2 29  1  0
  3 19  4  0
  3 25  4  0
  4 23  4  0
  4 27  1  0
  4 30  4  0
  5 17  1  0
  6  8  1  0
  6 29  1  0
  7 24  4  0
  7 26  4  0
  8 28  1  0
  9 13  2  0
 10 18  1  0
 10 21  4  0
 10 30  4  0
 11 17  2  0
 12 18  1  0
 13 15  1  0
 14 24  1  0
 15 25  1  0
 16 28  2  0
 17 20  1  0
 19 24  4  0
 20 23  1  0
 21 22  4  0
 22 23  4  0
 25 26  4  0
 27 29  2  0
M  END
$$$$

 Created by Python create_sdf_string function

 30 33  0  0  0  0  0  0  0  0999 V2000
    8.3036    9.8571   18.4133 C   0  0  0  0  0  0  0  0  0  0  0  0
    8.3694    7.6612   22.6703 C   0  0  0  0  0  0  0  0  0  0  0  0
    8.4143    6.6863   16.2273 C   0  0  0  0  0  0  0  0  0  0  0  0
   10.7581    6.5674   21.7636 C   0  0  0  0  0  0  0  0  0  0  0  0
    8.4452    8.7960   19.2958 O   0  0  0  0  0  0  0  0  0  0  0  0
    8.7122    6.7842   24.8569 C   0  0  0  0  0  0  0  0  0  0  0  0
   10.3400    6.1726   14.3081 C   0  0  0  0  0  0  0  0  0  0  0  0
    7.4297    7.5873   24.8962 C   0  0  0  0  0  0  0  0  0  0  0  0
    8.1566   10.0536   16.0516 O   0  0  0  0  0  0  0  0  0  0  0  0
   12.4989    6.2074   20.1776 C   0  0  0  0  0  0  0  0  0  0  0  0
    6.9192    9.1053   20.9073 O   0  0  0  0  0  0  0  0  0  0  0  0
   14.3979    6.0729   18.7784 C   0  0  0  0  0  0  0  0  0  0  0  0
    8.6811    9.5354   16.9998 C   0  0  0  0  0  0  0  0  0  0  0  0
    9.2512    4.2713   13.7653 O   0  0  0  0  0  0  0  0  0  0  0  0
    9.6495    8.6317   16.8332 N   0  0  0  0  0  0  0  0  0  0  0  0
    6.2934    8.6988   23.1988 O   0  0  0  0  0  0  0  0  0  0  0  0
    7.9806    8.6543   20.5437 C   0  0  0  0  0  0  0  0  0  0  0  0
   13.7270    5.7144   19.8610 O   0  0  0  0  0  0  0  0  0  0  0  0
    8.3351    5.5235   15.4478 C   0  0  0  0  0  0  0  0  0  0  0  0
    8.7700    7.8434   21.3915 C   0  0  0  0  0  0  0  0  0  0  0  0
   11.7856    6.8851   19.2401 C   0  0  0  0  0  0  0  0  0  0  0  0
   10.5281    7.4276   19.5649 C   0  0  0  0  0  0  0  0  0  0  0  0
   10.0256    7.2907   20.8484 C   0  0  0  0  0  0  0  0  0  0  0  0
    9.3113    5.3049   14.4911 C   0  0  0  0  0  0  0  0  0  0  0  0
    9.4607    7.5646   16.0139 C   0  0  0  0  0  0  0  0  0  0  0  0
   10.4192    7.3157   15.0955 C   0  0  0  0  0  0  0  0  0  0  0  0
   10.2489    6.4227   23.0218 N   0  0  0  0  0  0  0  0  0  0  0  0
    7.2472    8.0746   23.5050 C   0  0  0  0  0  0  0  0  0  0  0  0
    9.2051    6.9101   23.4604 C   0  0  0  0  0  0  0  0  0  0  0  0
   11.9646    6.0299   21.4251 C   0  0  0  0  0  0  0  0  0  0  0  0
  1  5  1  0
  1 13  1  0
  2 20  2  0
  2 28  1  0
  2 29  1  0
  3 19  4  0
  3 25  4  0
  4 23  4  0
  4 27  1  0
  4 30  4  0
  5 17  1  0
  6  8  1  0
  6 29  1  0
  7 24  4  0
  7 26  4  0
  8 28  1  0
  9 13  2  0
 10 18  1  0
 10 21  4  0
 10 30  4  0
 11 17  2  0
 12 18  1  0
 13 15  1  0
 14 24  1  0
 15 25  1  0
 16 28  2  0
 17 20  1  0
 19 24  4  0
 20 23  1  0
 21 22  4  0
 22 23  4  0
 25 26  4  0
 27 29  2  0
M  END
$$$$

 Created by Python create_sdf_string function

 30 33  0  0  0  0  0  0  0  0999 V2000
    8.3036    9.8571   18.4133 C   0  0  0  0  0  0  0  0  0  0  0  0
    8.3694    7.6612   22.6703 C   0  0  0  0  0  0  0  0  0  0  0  0
    8.4143    6.6863   16.2273 C   0  0  0  0  0  0  0  0  0  0  0  0
   10.7581    6.5674   21.7636 C   0  0  0  0  0  0  0  0  0  0  0  0
    8.4452    8.7960   19.2958 O   0  0  0  0  0  0  0  0  0  0  0  0
    8.7122    6.7842   24.8569 C   0  0  0  0  0  0  0  0  0  0  0  0
   10.3400    6.1726   14.3081 C   0  0  0  0  0  0  0  0  0  0  0  0
    7.4297    7.5873   24.8962 C   0  0  0  0  0  0  0  0  0  0  0  0
    8.1566   10.0536   16.0516 O   0  0  0  0  0  0  0  0  0  0  0  0
   12.4989    6.2074   20.1776 C   0  0  0  0  0  0  0  0  0  0  0  0
    6.9192    9.1053   20.9073 O   0  0  0  0  0  0  0  0  0  0  0  0
   14.3979    6.0729   18.7784 C   0  0  0  0  0  0  0  0  0  0  0  0
    8.6811    9.5354   16.9998 C   0  0  0  0  0  0  0  0  0  0  0  0
    9.2512    4.2713   13.7653 O   0  0  0  0  0  0  0  0  0  0  0  0
    9.6495    8.6317   16.8332 N   0  0  0  0  0  0  0  0  0  0  0  0
    6.2934    8.6988   23.1988 O   0  0  0  0  0  0  0  0  0  0  0  0
    7.9806    8.6543   20.5437 C   0  0  0  0  0  0  0  0  0  0  0  0
   13.7270    5.7144   19.8610 O   0  0  0  0  0  0  0  0  0  0  0  0
    8.3351    5.5235   15.4478 C   0  0  0  0  0  0  0  0  0  0  0  0
    8.7700    7.8434   21.3915 C   0  0  0  0  0  0  0  0  0  0  0  0
   11.7856    6.8851   19.2401 C   0  0  0  0  0  0  0  0  0  0  0  0
   10.5281    7.4276   19.5649 C   0  0  0  0  0  0  0  0  0  0  0  0
   10.0256    7.2907   20.8484 C   0  0  0  0  0  0  0  0  0  0  0  0
    9.3113    5.3049   14.4911 C   0  0  0  0  0  0  0  0  0  0  0  0
    9.4607    7.5646   16.0139 C   0  0  0  0  0  0  0  0  0  0  0  0
   10.4192    7.3157   15.0955 C   0  0  0  0  0  0  0  0  0  0  0  0
   10.2489    6.4227   23.0218 N   0  0  0  0  0  0  0  0  0  0  0  0
    7.2472    8.0746   23.5050 C   0  0  0  0  0  0  0  0  0  0  0  0
    9.2051    6.9101   23.4604 C   0  0  0  0  0  0  0  0  0  0  0  0
   11.9646    6.0299   21.4251 C   0  0  0  0  0  0  0  0  0  0  0  0
  1  5  1  0
  1 13  1  0
  2 20  2  0
  2 28  1  0
  2 29  1  0
  3 19  4  0
  3 25  4  0
  4 23  4  0
  4 27  1  0
  4 30  4  0
  5 17  1  0
  6  8  1  0
  6 29  1  0
  7 24  4  0
  7 26  4  0
  8 28  1  0
  9 13  2  0
 10 18  1  0
 10 21  4  0
 10 30  4  0
 11 17  2  0
 12 18  1  0
 13 15  1  0
 14 24  1  0
 15 25  1  0
 16 28  2  0
 17 20  1  0
 19 24  4  0
 20 23  1  0
 21 22  4  0
 22 23  4  0
 25 26  4  0
 27 29  2  0
M  END
$$$$

 Created by Python create_sdf_string function

 30 33  0  0  0  0  0  0  0  0999 V2000
    8.3036    9.8571   18.4133 C   0  0  0  0  0  0  0  0  0  0  0  0
    8.3694    7.6612   22.6703 C   0  0  0  0  0  0  0  0  0  0  0  0
    8.4143    6.6863   16.2273 C   0  0  0  0  0  0  0  0  0  0  0  0
   10.7581    6.5674   21.7636 C   0  0  0  0  0  0  0  0  0  0  0  0
    8.4452    8.7960   19.2958 O   0  0  0  0  0  0  0  0  0  0  0  0
    8.7122    6.7842   24.8569 C   0  0  0  0  0  0  0  0  0  0  0  0
   10.3400    6.1726   14.3081 C   0  0  0  0  0  0  0  0  0  0  0  0
    7.4297    7.5873   24.8962 C   0  0  0  0  0  0  0  0  0  0  0  0
    8.1566   10.0536   16.0516 O   0  0  0  0  0  0  0  0  0  0  0  0
   12.4989    6.2074   20.1776 C   0  0  0  0  0  0  0  0  0  0  0  0
    6.9192    9.1053   20.9073 O   0  0  0  0  0  0  0  0  0  0  0  0
   14.3979    6.0729   18.7784 C   0  0  0  0  0  0  0  0  0  0  0  0
    8.6811    9.5354   16.9998 C   0  0  0  0  0  0  0  0  0  0  0  0
    9.2512    4.2713   13.7653 O   0  0  0  0  0  0  0  0  0  0  0  0
    9.6495    8.6317   16.8332 N   0  0  0  0  0  0  0  0  0  0  0  0
    6.2934    8.6988   23.1988 O   0  0  0  0  0  0  0  0  0  0  0  0
    7.9806    8.6543   20.5437 C   0  0  0  0  0  0  0  0  0  0  0  0
   13.7270    5.7144   19.8610 O   0  0  0  0  0  0  0  0  0  0  0  0
    8.3351    5.5235   15.4478 C   0  0  0  0  0  0  0  0  0  0  0  0
    8.7700    7.8434   21.3915 C   0  0  0  0  0  0  0  0  0  0  0  0
   11.7856    6.8851   19.2401 C   0  0  0  0  0  0  0  0  0  0  0  0
   10.5281    7.4276   19.5649 C   0  0  0  0  0  0  0  0  0  0  0  0
   10.0256    7.2907   20.8484 C   0  0  0  0  0  0  0  0  0  0  0  0
    9.3113    5.3049   14.4911 C   0  0  0  0  0  0  0  0  0  0  0  0
    9.4607    7.5646   16.0139 C   0  0  0  0  0  0  0  0  0  0  0  0
   10.4192    7.3157   15.0955 C   0  0  0  0  0  0  0  0  0  0  0  0
   10.2489    6.4227   23.0218 N   0  0  0  0  0  0  0  0  0  0  0  0
    7.2472    8.0746   23.5050 C   0  0  0  0  0  0  0  0  0  0  0  0
    9.2051    6.9101   23.4604 C   0  0  0  0  0  0  0  0  0  0  0  0
   11.9646    6.0299   21.4251 C   0  0  0  0  0  0  0  0  0  0  0  0
  1  5  1  0
  1 13  1  0
  2 20  2  0
  2 28  1  0
  2 29  1  0
  3 19  4  0
  3 25  4  0
  4 23  4  0
  4 27  1  0
  4 30  4  0
  5 17  1  0
  6  8  1  0
  6 29  1  0
  7 24  4  0
  7 26  4  0
  8 28  1  0
  9 13  2  0
 10 18  1  0
 10 21  4  0
 10 30  4  0
 11 17  2  0
 12 18  1  0
 13 15  1  0
 14 24  1  0
 15 25  1  0
 16 28  2  0
 17 20  1  0
 19 24  4  0
 20 23  1  0
 21 22  4  0
 22 23  4  0
 25 26  4  0
 27 29  2  0
M  END
$$$$

 Created by Python create_sdf_string function

 30 33  0  0  0  0  0  0  0  0999 V2000
    8.3036    9.8571   18.4133 C   0  0  0  0  0  0  0  0  0  0  0  0
    8.3694    7.6612   22.6703 C   0  0  0  0  0  0  0  0  0  0  0  0
    8.4143    6.6863   16.2273 C   0  0  0  0  0  0  0  0  0  0  0  0
   10.7581    6.5674   21.7636 C   0  0  0  0  0  0  0  0  0  0  0  0
    8.4452    8.7960   19.2958 O   0  0  0  0  0  0  0  0  0  0  0  0
    8.7122    6.7842   24.8569 C   0  0  0  0  0  0  0  0  0  0  0  0
   10.3400    6.1726   14.3081 C   0  0  0  0  0  0  0  0  0  0  0  0
    7.4297    7.5873   24.8962 C   0  0  0  0  0  0  0  0  0  0  0  0
    8.1566   10.0536   16.0516 O   0  0  0  0  0  0  0  0  0  0  0  0
   12.4989    6.2074   20.1776 C   0  0  0  0  0  0  0  0  0  0  0  0
    6.9192    9.1053   20.9073 O   0  0  0  0  0  0  0  0  0  0  0  0
   14.3979    6.0729   18.7784 C   0  0  0  0  0  0  0  0  0  0  0  0
    8.6811    9.5354   16.9998 C   0  0  0  0  0  0  0  0  0  0  0  0
    9.2512    4.2713   13.7653 O   0  0  0  0  0  0  0  0  0  0  0  0
    9.6495    8.6317   16.8332 N   0  0  0  0  0  0  0  0  0  0  0  0
    6.2934    8.6988   23.1988 O   0  0  0  0  0  0  0  0  0  0  0  0
    7.9806    8.6543   20.5437 C   0  0  0  0  0  0  0  0  0  0  0  0
   13.7270    5.7144   19.8610 O   0  0  0  0  0  0  0  0  0  0  0  0
    8.3351    5.5235   15.4478 C   0  0  0  0  0  0  0  0  0  0  0  0
    8.7700    7.8434   21.3915 C   0  0  0  0  0  0  0  0  0  0  0  0
   11.7856    6.8851   19.2401 C   0  0  0  0  0  0  0  0  0  0  0  0
   10.5281    7.4276   19.5649 C   0  0  0  0  0  0  0  0  0  0  0  0
   10.0256    7.2907   20.8484 C   0  0  0  0  0  0  0  0  0  0  0  0
    9.3113    5.3049   14.4911 C   0  0  0  0  0  0  0  0  0  0  0  0
    9.4607    7.5646   16.0139 C   0  0  0  0  0  0  0  0  0  0  0  0
   10.4192    7.3157   15.0955 C   0  0  0  0  0  0  0  0  0  0  0  0
   10.2489    6.4227   23.0218 N   0  0  0  0  0  0  0  0  0  0  0  0
    7.2472    8.0746   23.5050 C   0  0  0  0  0  0  0  0  0  0  0  0
    9.2051    6.9101   23.4604 C   0  0  0  0  0  0  0  0  0  0  0  0
   11.9646    6.0299   21.4251 C   0  0  0  0  0  0  0  0  0  0  0  0
  1  5  1  0
  1 13  1  0
  2 20  2  0
  2 28  1  0
  2 29  1  0
  3 19  4  0
  3 25  4  0
  4 23  4  0
  4 27  1  0
  4 30  4  0
  5 17  1  0
  6  8  1  0
  6 29  1  0
  7 24  4  0
  7 26  4  0
  8 28  1  0
  9 13  2  0
 10 18  1  0
 10 21  4  0
 10 30  4  0
 11 17  2  0
 12 18  1  0
 13 15  1  0
 14 24  1  0
 15 25  1  0
 16 28  2  0
 17 20  1  0
 19 24  4  0
 20 23  1  0
 21 22  4  0
 22 23  4  0
 25 26  4  0
 27 29  2  0
M  END
$$$$

 Created by Python create_sdf_string function

 30 33  0  0  0  0  0  0  0  0999 V2000
    8.3036    9.8571   18.4133 C   0  0  0  0  0  0  0  0  0  0  0  0
    8.3694    7.6612   22.6703 C   0  0  0  0  0  0  0  0  0  0  0  0
    8.4143    6.6863   16.2273 C   0  0  0  0  0  0  0  0  0  0  0  0
   10.7581    6.5674   21.7636 C   0  0  0  0  0  0  0  0  0  0  0  0
    8.4452    8.7960   19.2958 O   0  0  0  0  0  0  0  0  0  0  0  0
    8.7122    6.7842   24.8569 C   0  0  0  0  0  0  0  0  0  0  0  0
   10.3400    6.1726   14.3081 C   0  0  0  0  0  0  0  0  0  0  0  0
    7.4297    7.5873   24.8962 C   0  0  0  0  0  0  0  0  0  0  0  0
    8.1566   10.0536   16.0516 O   0  0  0  0  0  0  0  0  0  0  0  0
   12.4989    6.2074   20.1776 C   0  0  0  0  0  0  0  0  0  0  0  0
    6.9192    9.1053   20.9073 O   0  0  0  0  0  0  0  0  0  0  0  0
   14.3979    6.0729   18.7784 C   0  0  0  0  0  0  0  0  0  0  0  0
    8.6811    9.5354   16.9998 C   0  0  0  0  0  0  0  0  0  0  0  0
    9.2512    4.2713   13.7653 O   0  0  0  0  0  0  0  0  0  0  0  0
    9.6495    8.6317   16.8332 N   0  0  0  0  0  0  0  0  0  0  0  0
    6.2934    8.6988   23.1988 O   0  0  0  0  0  0  0  0  0  0  0  0
    7.9806    8.6543   20.5437 C   0  0  0  0  0  0  0  0  0  0  0  0
   13.7270    5.7144   19.8610 O   0  0  0  0  0  0  0  0  0  0  0  0
    8.3351    5.5235   15.4478 C   0  0  0  0  0  0  0  0  0  0  0  0
    8.7700    7.8434   21.3915 C   0  0  0  0  0  0  0  0  0  0  0  0
   11.7856    6.8851   19.2401 C   0  0  0  0  0  0  0  0  0  0  0  0
   10.5281    7.4276   19.5649 C   0  0  0  0  0  0  0  0  0  0  0  0
   10.0256    7.2907   20.8484 C   0  0  0  0  0  0  0  0  0  0  0  0
    9.3113    5.3049   14.4911 C   0  0  0  0  0  0  0  0  0  0  0  0
    9.4607    7.5646   16.0139 C   0  0  0  0  0  0  0  0  0  0  0  0
   10.4192    7.3157   15.0955 C   0  0  0  0  0  0  0  0  0  0  0  0
   10.2489    6.4227   23.0218 N   0  0  0  0  0  0  0  0  0  0  0  0
    7.2472    8.0746   23.5050 C   0  0  0  0  0  0  0  0  0  0  0  0
    9.2051    6.9101   23.4604 C   0  0  0  0  0  0  0  0  0  0  0  0
   11.9646    6.0299   21.4251 C   0  0  0  0  0  0  0  0  0  0  0  0
  1  5  1  0
  1 13  1  0
  2 20  2  0
  2 28  1  0
  2 29  1  0
  3 19  4  0
  3 25  4  0
  4 23  4  0
  4 27  1  0
  4 30  4  0
  5 17  1  0
  6  8  1  0
  6 29  1  0
  7 24  4  0
  7 26  4  0
  8 28  1  0
  9 13  2  0
 10 18  1  0
 10 21  4  0
 10 30  4  0
 11 17  2  0
 12 18  1  0
 13 15  1  0
 14 24  1  0
 15 25  1  0
 16 28  2  0
 17 20  1  0
 19 24  4  0
 20 23  1  0
 21 22  4  0
 22 23  4  0
 25 26  4  0
 27 29  2  0
M  END
$$$$

 Created by Python create_sdf_string function

 30 33  0  0  0  0  0  0  0  0999 V2000
    8.3036    9.8571   18.4133 C   0  0  0  0  0  0  0  0  0  0  0  0
    8.3694    7.6612   22.6703 C   0  0  0  0  0  0  0  0  0  0  0  0
    8.4143    6.6863   16.2273 C   0  0  0  0  0  0  0  0  0  0  0  0
   10.7581    6.5674   21.7636 C   0  0  0  0  0  0  0  0  0  0  0  0
    8.4452    8.7960   19.2958 O   0  0  0  0  0  0  0  0  0  0  0  0
    8.7122    6.7842   24.8569 C   0  0  0  0  0  0  0  0  0  0  0  0
   10.3400    6.1726   14.3081 C   0  0  0  0  0  0  0  0  0  0  0  0
    7.4297    7.5873   24.8962 C   0  0  0  0  0  0  0  0  0  0  0  0
    8.1566   10.0536   16.0516 O   0  0  0  0  0  0  0  0  0  0  0  0
   12.4989    6.2074   20.1776 C   0  0  0  0  0  0  0  0  0  0  0  0
    6.9192    9.1053   20.9073 O   0  0  0  0  0  0  0  0  0  0  0  0
   14.3979    6.0729   18.7784 C   0  0  0  0  0  0  0  0  0  0  0  0
    8.6811    9.5354   16.9998 C   0  0  0  0  0  0  0  0  0  0  0  0
    9.2512    4.2713   13.7653 O   0  0  0  0  0  0  0  0  0  0  0  0
    9.6495    8.6317   16.8332 N   0  0  0  0  0  0  0  0  0  0  0  0
    6.2934    8.6988   23.1988 O   0  0  0  0  0  0  0  0  0  0  0  0
    7.9806    8.6543   20.5437 C   0  0  0  0  0  0  0  0  0  0  0  0
   13.7270    5.7144   19.8610 O   0  0  0  0  0  0  0  0  0  0  0  0
    8.3351    5.5235   15.4478 C   0  0  0  0  0  0  0  0  0  0  0  0
    8.7700    7.8434   21.3915 C   0  0  0  0  0  0  0  0  0  0  0  0
   11.7856    6.8851   19.2401 C   0  0  0  0  0  0  0  0  0  0  0  0
   10.5281    7.4276   19.5649 C   0  0  0  0  0  0  0  0  0  0  0  0
   10.0256    7.2907   20.8484 C   0  0  0  0  0  0  0  0  0  0  0  0
    9.3113    5.3049   14.4911 C   0  0  0  0  0  0  0  0  0  0  0  0
    9.4607    7.5646   16.0139 C   0  0  0  0  0  0  0  0  0  0  0  0
   10.4192    7.3157   15.0955 C   0  0  0  0  0  0  0  0  0  0  0  0
   10.2489    6.4227   23.0218 N   0  0  0  0  0  0  0  0  0  0  0  0
    7.2472    8.0746   23.5050 C   0  0  0  0  0  0  0  0  0  0  0  0
    9.2051    6.9101   23.4604 C   0  0  0  0  0  0  0  0  0  0  0  0
   11.9646    6.0299   21.4251 C   0  0  0  0  0  0  0  0  0  0  0  0
  1  5  1  0
  1 13  1  0
  2 20  2  0
  2 28  1  0
  2 29  1  0
  3 19  4  0
  3 25  4  0
  4 23  4  0
  4 27  1  0
  4 30  4  0
  5 17  1  0
  6  8  1  0
  6 29  1  0
  7 24  4  0
  7 26  4  0
  8 28  1  0
  9 13  2  0
 10 18  1  0
 10 21  4  0
 10 30  4  0
 11 17  2  0
 12 18  1  0
 13 15  1  0
 14 24  1  0
 15 25  1  0
 16 28  2  0
 17 20  1  0
 19 24  4  0
 20 23  1  0
 21 22  4  0
 22 23  4  0
 25 26  4  0
 27 29  2  0
M  END
$$$$

 Created by Python create_sdf_string function

 30 33  0  0  0  0  0  0  0  0999 V2000
    8.3036    9.8571   18.4133 C   0  0  0  0  0  0  0  0  0  0  0  0
    8.3694    7.6612   22.6703 C   0  0  0  0  0  0  0  0  0  0  0  0
    8.4143    6.6863   16.2273 C   0  0  0  0  0  0  0  0  0  0  0  0
   10.7581    6.5674   21.7636 C   0  0  0  0  0  0  0  0  0  0  0  0
    8.4452    8.7960   19.2958 O   0  0  0  0  0  0  0  0  0  0  0  0
    8.7122    6.7842   24.8569 C   0  0  0  0  0  0  0  0  0  0  0  0
   10.3400    6.1726   14.3081 C   0  0  0  0  0  0  0  0  0  0  0  0
    7.4297    7.5873   24.8962 C   0  0  0  0  0  0  0  0  0  0  0  0
    8.1566   10.0536   16.0516 O   0  0  0  0  0  0  0  0  0  0  0  0
   12.4989    6.2074   20.1776 C   0  0  0  0  0  0  0  0  0  0  0  0
    6.9192    9.1053   20.9073 O   0  0  0  0  0  0  0  0  0  0  0  0
   14.3979    6.0729   18.7784 C   0  0  0  0  0  0  0  0  0  0  0  0
    8.6811    9.5354   16.9998 C   0  0  0  0  0  0  0  0  0  0  0  0
    9.2512    4.2713   13.7653 O   0  0  0  0  0  0  0  0  0  0  0  0
    9.6495    8.6317   16.8332 N   0  0  0  0  0  0  0  0  0  0  0  0
    6.2934    8.6988   23.1988 O   0  0  0  0  0  0  0  0  0  0  0  0
    7.9806    8.6543   20.5437 C   0  0  0  0  0  0  0  0  0  0  0  0
   13.7270    5.7144   19.8610 O   0  0  0  0  0  0  0  0  0  0  0  0
    8.3351    5.5235   15.4478 C   0  0  0  0  0  0  0  0  0  0  0  0
    8.7700    7.8434   21.3915 C   0  0  0  0  0  0  0  0  0  0  0  0
   11.7856    6.8851   19.2401 C   0  0  0  0  0  0  0  0  0  0  0  0
   10.5281    7.4276   19.5649 C   0  0  0  0  0  0  0  0  0  0  0  0
   10.0256    7.2907   20.8484 C   0  0  0  0  0  0  0  0  0  0  0  0
    9.3113    5.3049   14.4911 C   0  0  0  0  0  0  0  0  0  0  0  0
    9.4607    7.5646   16.0139 C   0  0  0  0  0  0  0  0  0  0  0  0
   10.4192    7.3157   15.0955 C   0  0  0  0  0  0  0  0  0  0  0  0
   10.2489    6.4227   23.0218 N   0  0  0  0  0  0  0  0  0  0  0  0
    7.2472    8.0746   23.5050 C   0  0  0  0  0  0  0  0  0  0  0  0
    9.2051    6.9101   23.4604 C   0  0  0  0  0  0  0  0  0  0  0  0
   11.9646    6.0299   21.4251 C   0  0  0  0  0  0  0  0  0  0  0  0
  1  5  1  0
  1 13  1  0
  2 20  2  0
  2 28  1  0
  2 29  1  0
  3 19  4  0
  3 25  4  0
  4 23  4  0
  4 27  1  0
  4 30  4  0
  5 17  1  0
  6  8  1  0
  6 29  1  0
  7 24  4  0
  7 26  4  0
  8 28  1  0
  9 13  2  0
 10 18  1  0
 10 21  4  0
 10 30  4  0
 11 17  2  0
 12 18  1  0
 13 15  1  0
 14 24  1  0
 15 25  1  0
 16 28  2  0
 17 20  1  0
 19 24  4  0
 20 23  1  0
 21 22  4  0
 22 23  4  0
 25 26  4  0
 27 29  2  0
M  END
$$$$

 Created by Python create_sdf_string function

 30 33  0  0  0  0  0  0  0  0999 V2000
    8.3036    9.8571   18.4133 C   0  0  0  0  0  0  0  0  0  0  0  0
    8.3694    7.6612   22.6703 C   0  0  0  0  0  0  0  0  0  0  0  0
    8.4143    6.6863   16.2273 C   0  0  0  0  0  0  0  0  0  0  0  0
   10.7581    6.5674   21.7636 C   0  0  0  0  0  0  0  0  0  0  0  0
    8.4452    8.7960   19.2958 O   0  0  0  0  0  0  0  0  0  0  0  0
    8.7122    6.7842   24.8569 C   0  0  0  0  0  0  0  0  0  0  0  0
   10.3400    6.1726   14.3081 C   0  0  0  0  0  0  0  0  0  0  0  0
    7.4297    7.5873   24.8962 C   0  0  0  0  0  0  0  0  0  0  0  0
    8.1566   10.0536   16.0516 O   0  0  0  0  0  0  0  0  0  0  0  0
   12.4989    6.2074   20.1776 C   0  0  0  0  0  0  0  0  0  0  0  0
    6.9192    9.1053   20.9073 O   0  0  0  0  0  0  0  0  0  0  0  0
   14.3979    6.0729   18.7784 C   0  0  0  0  0  0  0  0  0  0  0  0
    8.6811    9.5354   16.9998 C   0  0  0  0  0  0  0  0  0  0  0  0
    9.2512    4.2713   13.7653 O   0  0  0  0  0  0  0  0  0  0  0  0
    9.6495    8.6317   16.8332 N   0  0  0  0  0  0  0  0  0  0  0  0
    6.2934    8.6988   23.1988 O   0  0  0  0  0  0  0  0  0  0  0  0
    7.9806    8.6543   20.5437 C   0  0  0  0  0  0  0  0  0  0  0  0
   13.7270    5.7144   19.8610 O   0  0  0  0  0  0  0  0  0  0  0  0
    8.3351    5.5235   15.4478 C   0  0  0  0  0  0  0  0  0  0  0  0
    8.7700    7.8434   21.3915 C   0  0  0  0  0  0  0  0  0  0  0  0
   11.7856    6.8851   19.2401 C   0  0  0  0  0  0  0  0  0  0  0  0
   10.5281    7.4276   19.5649 C   0  0  0  0  0  0  0  0  0  0  0  0
   10.0256    7.2907   20.8484 C   0  0  0  0  0  0  0  0  0  0  0  0
    9.3113    5.3049   14.4911 C   0  0  0  0  0  0  0  0  0  0  0  0
    9.4607    7.5646   16.0139 C   0  0  0  0  0  0  0  0  0  0  0  0
   10.4192    7.3157   15.0955 C   0  0  0  0  0  0  0  0  0  0  0  0
   10.2489    6.4227   23.0218 N   0  0  0  0  0  0  0  0  0  0  0  0
    7.2472    8.0746   23.5050 C   0  0  0  0  0  0  0  0  0  0  0  0
    9.2051    6.9101   23.4604 C   0  0  0  0  0  0  0  0  0  0  0  0
   11.9646    6.0299   21.4251 C   0  0  0  0  0  0  0  0  0  0  0  0
  1  5  1  0
  1 13  1  0
  2 20  2  0
  2 28  1  0
  2 29  1  0
  3 19  4  0
  3 25  4  0
  4 23  4  0
  4 27  1  0
  4 30  4  0
  5 17  1  0
  6  8  1  0
  6 29  1  0
  7 24  4  0
  7 26  4  0
  8 28  1  0
  9 13  2  0
 10 18  1  0
 10 21  4  0
 10 30  4  0
 11 17  2  0
 12 18  1  0
 13 15  1  0
 14 24  1  0
 15 25  1  0
 16 28  2  0
 17 20  1  0
 19 24  4  0
 20 23  1  0
 21 22  4  0
 22 23  4  0
 25 26  4  0
 27 29  2  0
M  END
$$$$

 Created by Python create_sdf_string function

 30 33  0  0  0  0  0  0  0  0999 V2000
    8.3036    9.8571   18.4133 C   0  0  0  0  0  0  0  0  0  0  0  0
    8.3694    7.6612   22.6703 C   0  0  0  0  0  0  0  0  0  0  0  0
    8.4143    6.6863   16.2273 C   0  0  0  0  0  0  0  0  0  0  0  0
   10.7581    6.5674   21.7636 C   0  0  0  0  0  0  0  0  0  0  0  0
    8.4452    8.7960   19.2958 O   0  0  0  0  0  0  0  0  0  0  0  0
    8.7122    6.7842   24.8569 C   0  0  0  0  0  0  0  0  0  0  0  0
   10.3400    6.1726   14.3081 C   0  0  0  0  0  0  0  0  0  0  0  0
    7.4297    7.5873   24.8962 C   0  0  0  0  0  0  0  0  0  0  0  0
    8.1566   10.0536   16.0516 O   0  0  0  0  0  0  0  0  0  0  0  0
   12.4989    6.2074   20.1776 C   0  0  0  0  0  0  0  0  0  0  0  0
    6.9192    9.1053   20.9073 O   0  0  0  0  0  0  0  0  0  0  0  0
   14.3979    6.0729   18.7784 C   0  0  0  0  0  0  0  0  0  0  0  0
    8.6811    9.5354   16.9998 C   0  0  0  0  0  0  0  0  0  0  0  0
    9.2512    4.2713   13.7653 O   0  0  0  0  0  0  0  0  0  0  0  0
    9.6495    8.6317   16.8332 N   0  0  0  0  0  0  0  0  0  0  0  0
    6.2934    8.6988   23.1988 O   0  0  0  0  0  0  0  0  0  0  0  0
    7.9806    8.6543   20.5437 C   0  0  0  0  0  0  0  0  0  0  0  0
   13.7270    5.7144   19.8610 O   0  0  0  0  0  0  0  0  0  0  0  0
    8.3351    5.5235   15.4478 C   0  0  0  0  0  0  0  0  0  0  0  0
    8.7700    7.8434   21.3915 C   0  0  0  0  0  0  0  0  0  0  0  0
   11.7856    6.8851   19.2401 C   0  0  0  0  0  0  0  0  0  0  0  0
   10.5281    7.4276   19.5649 C   0  0  0  0  0  0  0  0  0  0  0  0
   10.0256    7.2907   20.8484 C   0  0  0  0  0  0  0  0  0  0  0  0
    9.3113    5.3049   14.4911 C   0  0  0  0  0  0  0  0  0  0  0  0
    9.4607    7.5646   16.0139 C   0  0  0  0  0  0  0  0  0  0  0  0
   10.4192    7.3157   15.0955 C   0  0  0  0  0  0  0  0  0  0  0  0
   10.2489    6.4227   23.0218 N   0  0  0  0  0  0  0  0  0  0  0  0
    7.2472    8.0746   23.5050 C   0  0  0  0  0  0  0  0  0  0  0  0
    9.2051    6.9101   23.4604 C   0  0  0  0  0  0  0  0  0  0  0  0
   11.9646    6.0299   21.4251 C   0  0  0  0  0  0  0  0  0  0  0  0
  1  5  1  0
  1 13  1  0
  2 20  2  0
  2 28  1  0
  2 29  1  0
  3 19  4  0
  3 25  4  0
  4 23  4  0
  4 27  1  0
  4 30  4  0
  5 17  1  0
  6  8  1  0
  6 29  1  0
  7 24  4  0
  7 26  4  0
  8 28  1  0
  9 13  2  0
 10 18  1  0
 10 21  4  0
 10 30  4  0
 11 17  2  0
 12 18  1  0
 13 15  1  0
 14 24  1  0
 15 25  1  0
 16 28  2  0
 17 20  1  0
 19 24  4  0
 20 23  1  0
 21 22  4  0
 22 23  4  0
 25 26  4  0
 27 29  2  0
M  END
$$$$

 Created by Python create_sdf_string function

 30 33  0  0  0  0  0  0  0  0999 V2000
    8.3036    9.8571   18.4133 C   0  0  0  0  0  0  0  0  0  0  0  0
    8.3694    7.6612   22.6703 C   0  0  0  0  0  0  0  0  0  0  0  0
    8.4143    6.6863   16.2273 C   0  0  0  0  0  0  0  0  0  0  0  0
   10.7581    6.5674   21.7636 C   0  0  0  0  0  0  0  0  0  0  0  0
    8.4452    8.7960   19.2958 O   0  0  0  0  0  0  0  0  0  0  0  0
    8.7122    6.7842   24.8569 C   0  0  0  0  0  0  0  0  0  0  0  0
   10.3400    6.1726   14.3081 C   0  0  0  0  0  0  0  0  0  0  0  0
    7.4297    7.5873   24.8962 C   0  0  0  0  0  0  0  0  0  0  0  0
    8.1566   10.0536   16.0516 O   0  0  0  0  0  0  0  0  0  0  0  0
   12.4989    6.2074   20.1776 C   0  0  0  0  0  0  0  0  0  0  0  0
    6.9192    9.1053   20.9073 O   0  0  0  0  0  0  0  0  0  0  0  0
   14.3979    6.0729   18.7784 C   0  0  0  0  0  0  0  0  0  0  0  0
    8.6811    9.5354   16.9998 C   0  0  0  0  0  0  0  0  0  0  0  0
    9.2512    4.2713   13.7653 O   0  0  0  0  0  0  0  0  0  0  0  0
    9.6495    8.6317   16.8332 N   0  0  0  0  0  0  0  0  0  0  0  0
    6.2934    8.6988   23.1988 O   0  0  0  0  0  0  0  0  0  0  0  0
    7.9806    8.6543   20.5437 C   0  0  0  0  0  0  0  0  0  0  0  0
   13.7270    5.7144   19.8610 O   0  0  0  0  0  0  0  0  0  0  0  0
    8.3351    5.5235   15.4478 C   0  0  0  0  0  0  0  0  0  0  0  0
    8.7700    7.8434   21.3915 C   0  0  0  0  0  0  0  0  0  0  0  0
   11.7856    6.8851   19.2401 C   0  0  0  0  0  0  0  0  0  0  0  0
   10.5281    7.4276   19.5649 C   0  0  0  0  0  0  0  0  0  0  0  0
   10.0256    7.2907   20.8484 C   0  0  0  0  0  0  0  0  0  0  0  0
    9.3113    5.3049   14.4911 C   0  0  0  0  0  0  0  0  0  0  0  0
    9.4607    7.5646   16.0139 C   0  0  0  0  0  0  0  0  0  0  0  0
   10.4192    7.3157   15.0955 C   0  0  0  0  0  0  0  0  0  0  0  0
   10.2489    6.4227   23.0218 N   0  0  0  0  0  0  0  0  0  0  0  0
    7.2472    8.0746   23.5050 C   0  0  0  0  0  0  0  0  0  0  0  0
    9.2051    6.9101   23.4604 C   0  0  0  0  0  0  0  0  0  0  0  0
   11.9646    6.0299   21.4251 C   0  0  0  0  0  0  0  0  0  0  0  0
  1  5  1  0
  1 13  1  0
  2 20  2  0
  2 28  1  0
  2 29  1  0
  3 19  4  0
  3 25  4  0
  4 23  4  0
  4 27  1  0
  4 30  4  0
  5 17  1  0
  6  8  1  0
  6 29  1  0
  7 24  4  0
  7 26  4  0
  8 28  1  0
  9 13  2  0
 10 18  1  0
 10 21  4  0
 10 30  4  0
 11 17  2  0
 12 18  1  0
 13 15  1  0
 14 24  1  0
 15 25  1  0
 16 28  2  0
 17 20  1  0
 19 24  4  0
 20 23  1  0
 21 22  4  0
 22 23  4  0
 25 26  4  0
 27 29  2  0
M  END
$$$$

 Created by Python create_sdf_string function

 30 33  0  0  0  0  0  0  0  0999 V2000
    8.3036    9.8571   18.4133 C   0  0  0  0  0  0  0  0  0  0  0  0
    8.3694    7.6612   22.6703 C   0  0  0  0  0  0  0  0  0  0  0  0
    8.4143    6.6863   16.2273 C   0  0  0  0  0  0  0  0  0  0  0  0
   10.7581    6.5674   21.7636 C   0  0  0  0  0  0  0  0  0  0  0  0
    8.4452    8.7960   19.2958 O   0  0  0  0  0  0  0  0  0  0  0  0
    8.7122    6.7842   24.8569 C   0  0  0  0  0  0  0  0  0  0  0  0
   10.3400    6.1726   14.3081 C   0  0  0  0  0  0  0  0  0  0  0  0
    7.4297    7.5873   24.8962 C   0  0  0  0  0  0  0  0  0  0  0  0
    8.1566   10.0536   16.0516 O   0  0  0  0  0  0  0  0  0  0  0  0
   12.4989    6.2074   20.1776 C   0  0  0  0  0  0  0  0  0  0  0  0
    6.9192    9.1053   20.9073 O   0  0  0  0  0  0  0  0  0  0  0  0
   14.3979    6.0729   18.7784 C   0  0  0  0  0  0  0  0  0  0  0  0
    8.6811    9.5354   16.9998 C   0  0  0  0  0  0  0  0  0  0  0  0
    9.2512    4.2713   13.7653 O   0  0  0  0  0  0  0  0  0  0  0  0
    9.6495    8.6317   16.8332 N   0  0  0  0  0  0  0  0  0  0  0  0
    6.2934    8.6988   23.1988 O   0  0  0  0  0  0  0  0  0  0  0  0
    7.9806    8.6543   20.5437 C   0  0  0  0  0  0  0  0  0  0  0  0
   13.7270    5.7144   19.8610 O   0  0  0  0  0  0  0  0  0  0  0  0
    8.3351    5.5235   15.4478 C   0  0  0  0  0  0  0  0  0  0  0  0
    8.7700    7.8434   21.3915 C   0  0  0  0  0  0  0  0  0  0  0  0
   11.7856    6.8851   19.2401 C   0  0  0  0  0  0  0  0  0  0  0  0
   10.5281    7.4276   19.5649 C   0  0  0  0  0  0  0  0  0  0  0  0
   10.0256    7.2907   20.8484 C   0  0  0  0  0  0  0  0  0  0  0  0
    9.3113    5.3049   14.4911 C   0  0  0  0  0  0  0  0  0  0  0  0
    9.4607    7.5646   16.0139 C   0  0  0  0  0  0  0  0  0  0  0  0
   10.4192    7.3157   15.0955 C   0  0  0  0  0  0  0  0  0  0  0  0
   10.2489    6.4227   23.0218 N   0  0  0  0  0  0  0  0  0  0  0  0
    7.2472    8.0746   23.5050 C   0  0  0  0  0  0  0  0  0  0  0  0
    9.2051    6.9101   23.4604 C   0  0  0  0  0  0  0  0  0  0  0  0
   11.9646    6.0299   21.4251 C   0  0  0  0  0  0  0  0  0  0  0  0
  1  5  1  0
  1 13  1  0
  2 20  2  0
  2 28  1  0
  2 29  1  0
  3 19  4  0
  3 25  4  0
  4 23  4  0
  4 27  1  0
  4 30  4  0
  5 17  1  0
  6  8  1  0
  6 29  1  0
  7 24  4  0
  7 26  4  0
  8 28  1  0
  9 13  2  0
 10 18  1  0
 10 21  4  0
 10 30  4  0
 11 17  2  0
 12 18  1  0
 13 15  1  0
 14 24  1  0
 15 25  1  0
 16 28  2  0
 17 20  1  0
 19 24  4  0
 20 23  1  0
 21 22  4  0
 22 23  4  0
 25 26  4  0
 27 29  2  0
M  END
$$$$

 Created by Python create_sdf_string function

 30 33  0  0  0  0  0  0  0  0999 V2000
    8.3036    9.8571   18.4133 C   0  0  0  0  0  0  0  0  0  0  0  0
    8.3694    7.6612   22.6703 C   0  0  0  0  0  0  0  0  0  0  0  0
    8.4143    6.6863   16.2273 C   0  0  0  0  0  0  0  0  0  0  0  0
   10.7581    6.5674   21.7636 C   0  0  0  0  0  0  0  0  0  0  0  0
    8.4452    8.7960   19.2958 O   0  0  0  0  0  0  0  0  0  0  0  0
    8.7122    6.7842   24.8569 C   0  0  0  0  0  0  0  0  0  0  0  0
   10.3400    6.1726   14.3081 C   0  0  0  0  0  0  0  0  0  0  0  0
    7.4297    7.5873   24.8962 C   0  0  0  0  0  0  0  0  0  0  0  0
    8.1566   10.0536   16.0516 O   0  0  0  0  0  0  0  0  0  0  0  0
   12.4989    6.2074   20.1776 C   0  0  0  0  0  0  0  0  0  0  0  0
    6.9192    9.1053   20.9073 O   0  0  0  0  0  0  0  0  0  0  0  0
   14.3979    6.0729   18.7784 C   0  0  0  0  0  0  0  0  0  0  0  0
    8.6811    9.5354   16.9998 C   0  0  0  0  0  0  0  0  0  0  0  0
    9.2512    4.2713   13.7653 O   0  0  0  0  0  0  0  0  0  0  0  0
    9.6495    8.6317   16.8332 N   0  0  0  0  0  0  0  0  0  0  0  0
    6.2934    8.6988   23.1988 O   0  0  0  0  0  0  0  0  0  0  0  0
    7.9806    8.6543   20.5437 C   0  0  0  0  0  0  0  0  0  0  0  0
   13.7270    5.7144   19.8610 O   0  0  0  0  0  0  0  0  0  0  0  0
    8.3351    5.5235   15.4478 C   0  0  0  0  0  0  0  0  0  0  0  0
    8.7700    7.8434   21.3915 C   0  0  0  0  0  0  0  0  0  0  0  0
   11.7856    6.8851   19.2401 C   0  0  0  0  0  0  0  0  0  0  0  0
   10.5281    7.4276   19.5649 C   0  0  0  0  0  0  0  0  0  0  0  0
   10.0256    7.2907   20.8484 C   0  0  0  0  0  0  0  0  0  0  0  0
    9.3113    5.3049   14.4911 C   0  0  0  0  0  0  0  0  0  0  0  0
    9.4607    7.5646   16.0139 C   0  0  0  0  0  0  0  0  0  0  0  0
   10.4192    7.3157   15.0955 C   0  0  0  0  0  0  0  0  0  0  0  0
   10.2489    6.4227   23.0218 N   0  0  0  0  0  0  0  0  0  0  0  0
    7.2472    8.0746   23.5050 C   0  0  0  0  0  0  0  0  0  0  0  0
    9.2051    6.9101   23.4604 C   0  0  0  0  0  0  0  0  0  0  0  0
   11.9646    6.0299   21.4251 C   0  0  0  0  0  0  0  0  0  0  0  0
  1  5  1  0
  1 13  1  0
  2 20  2  0
  2 28  1  0
  2 29  1  0
  3 19  4  0
  3 25  4  0
  4 23  4  0
  4 27  1  0
  4 30  4  0
  5 17  1  0
  6  8  1  0
  6 29  1  0
  7 24  4  0
  7 26  4  0
  8 28  1  0
  9 13  2  0
 10 18  1  0
 10 21  4  0
 10 30  4  0
 11 17  2  0
 12 18  1  0
 13 15  1  0
 14 24  1  0
 15 25  1  0
 16 28  2  0
 17 20  1  0
 19 24  4  0
 20 23  1  0
 21 22  4  0
 22 23  4  0
 25 26  4  0
 27 29  2  0
M  END
$$$$

 Created by Python create_sdf_string function

 30 33  0  0  0  0  0  0  0  0999 V2000
    8.3036    9.8571   18.4133 C   0  0  0  0  0  0  0  0  0  0  0  0
    8.3694    7.6612   22.6703 C   0  0  0  0  0  0  0  0  0  0  0  0
    8.4143    6.6863   16.2273 C   0  0  0  0  0  0  0  0  0  0  0  0
   10.7581    6.5674   21.7636 C   0  0  0  0  0  0  0  0  0  0  0  0
    8.4452    8.7960   19.2958 O   0  0  0  0  0  0  0  0  0  0  0  0
    8.7122    6.7842   24.8569 C   0  0  0  0  0  0  0  0  0  0  0  0
   10.3400    6.1726   14.3081 C   0  0  0  0  0  0  0  0  0  0  0  0
    7.4297    7.5873   24.8962 C   0  0  0  0  0  0  0  0  0  0  0  0
    8.1566   10.0536   16.0516 O   0  0  0  0  0  0  0  0  0  0  0  0
   12.4989    6.2074   20.1776 C   0  0  0  0  0  0  0  0  0  0  0  0
    6.9192    9.1053   20.9073 O   0  0  0  0  0  0  0  0  0  0  0  0
   14.3979    6.0729   18.7784 C   0  0  0  0  0  0  0  0  0  0  0  0
    8.6811    9.5354   16.9998 C   0  0  0  0  0  0  0  0  0  0  0  0
    9.2512    4.2713   13.7653 O   0  0  0  0  0  0  0  0  0  0  0  0
    9.6495    8.6317   16.8332 N   0  0  0  0  0  0  0  0  0  0  0  0
    6.2934    8.6988   23.1988 O   0  0  0  0  0  0  0  0  0  0  0  0
    7.9806    8.6543   20.5437 C   0  0  0  0  0  0  0  0  0  0  0  0
   13.7270    5.7144   19.8610 O   0  0  0  0  0  0  0  0  0  0  0  0
    8.3351    5.5235   15.4478 C   0  0  0  0  0  0  0  0  0  0  0  0
    8.7700    7.8434   21.3915 C   0  0  0  0  0  0  0  0  0  0  0  0
   11.7856    6.8851   19.2401 C   0  0  0  0  0  0  0  0  0  0  0  0
   10.5281    7.4276   19.5649 C   0  0  0  0  0  0  0  0  0  0  0  0
   10.0256    7.2907   20.8484 C   0  0  0  0  0  0  0  0  0  0  0  0
    9.3113    5.3049   14.4911 C   0  0  0  0  0  0  0  0  0  0  0  0
    9.4607    7.5646   16.0139 C   0  0  0  0  0  0  0  0  0  0  0  0
   10.4192    7.3157   15.0955 C   0  0  0  0  0  0  0  0  0  0  0  0
   10.2489    6.4227   23.0218 N   0  0  0  0  0  0  0  0  0  0  0  0
    7.2472    8.0746   23.5050 C   0  0  0  0  0  0  0  0  0  0  0  0
    9.2051    6.9101   23.4604 C   0  0  0  0  0  0  0  0  0  0  0  0
   11.9646    6.0299   21.4251 C   0  0  0  0  0  0  0  0  0  0  0  0
  1  5  1  0
  1 13  1  0
  2 20  2  0
  2 28  1  0
  2 29  1  0
  3 19  4  0
  3 25  4  0
  4 23  4  0
  4 27  1  0
  4 30  4  0
  5 17  1  0
  6  8  1  0
  6 29  1  0
  7 24  4  0
  7 26  4  0
  8 28  1  0
  9 13  2  0
 10 18  1  0
 10 21  4  0
 10 30  4  0
 11 17  2  0
 12 18  1  0
 13 15  1  0
 14 24  1  0
 15 25  1  0
 16 28  2  0
 17 20  1  0
 19 24  4  0
 20 23  1  0
 21 22  4  0
 22 23  4  0
 25 26  4  0
 27 29  2  0
M  END
$$$$

 Created by Python create_sdf_string function

 30 33  0  0  0  0  0  0  0  0999 V2000
    8.3036    9.8571   18.4133 C   0  0  0  0  0  0  0  0  0  0  0  0
    8.3694    7.6612   22.6703 C   0  0  0  0  0  0  0  0  0  0  0  0
    8.4143    6.6863   16.2273 C   0  0  0  0  0  0  0  0  0  0  0  0
   10.7581    6.5674   21.7636 C   0  0  0  0  0  0  0  0  0  0  0  0
    8.4452    8.7960   19.2958 O   0  0  0  0  0  0  0  0  0  0  0  0
    8.7122    6.7842   24.8569 C   0  0  0  0  0  0  0  0  0  0  0  0
   10.3400    6.1726   14.3081 C   0  0  0  0  0  0  0  0  0  0  0  0
    7.4297    7.5873   24.8962 C   0  0  0  0  0  0  0  0  0  0  0  0
    8.1566   10.0536   16.0516 O   0  0  0  0  0  0  0  0  0  0  0  0
   12.4989    6.2074   20.1776 C   0  0  0  0  0  0  0  0  0  0  0  0
    6.9192    9.1053   20.9073 O   0  0  0  0  0  0  0  0  0  0  0  0
   14.3979    6.0729   18.7784 C   0  0  0  0  0  0  0  0  0  0  0  0
    8.6811    9.5354   16.9998 C   0  0  0  0  0  0  0  0  0  0  0  0
    9.2512    4.2713   13.7653 O   0  0  0  0  0  0  0  0  0  0  0  0
    9.6495    8.6317   16.8332 N   0  0  0  0  0  0  0  0  0  0  0  0
    6.2934    8.6988   23.1988 O   0  0  0  0  0  0  0  0  0  0  0  0
    7.9806    8.6543   20.5437 C   0  0  0  0  0  0  0  0  0  0  0  0
   13.7270    5.7144   19.8610 O   0  0  0  0  0  0  0  0  0  0  0  0
    8.3351    5.5235   15.4478 C   0  0  0  0  0  0  0  0  0  0  0  0
    8.7700    7.8434   21.3915 C   0  0  0  0  0  0  0  0  0  0  0  0
   11.7856    6.8851   19.2401 C   0  0  0  0  0  0  0  0  0  0  0  0
   10.5281    7.4276   19.5649 C   0  0  0  0  0  0  0  0  0  0  0  0
   10.0256    7.2907   20.8484 C   0  0  0  0  0  0  0  0  0  0  0  0
    9.3113    5.3049   14.4911 C   0  0  0  0  0  0  0  0  0  0  0  0
    9.4607    7.5646   16.0139 C   0  0  0  0  0  0  0  0  0  0  0  0
   10.4192    7.3157   15.0955 C   0  0  0  0  0  0  0  0  0  0  0  0
   10.2489    6.4227   23.0218 N   0  0  0  0  0  0  0  0  0  0  0  0
    7.2472    8.0746   23.5050 C   0  0  0  0  0  0  0  0  0  0  0  0
    9.2051    6.9101   23.4604 C   0  0  0  0  0  0  0  0  0  0  0  0
   11.9646    6.0299   21.4251 C   0  0  0  0  0  0  0  0  0  0  0  0
  1  5  1  0
  1 13  1  0
  2 20  2  0
  2 28  1  0
  2 29  1  0
  3 19  4  0
  3 25  4  0
  4 23  4  0
  4 27  1  0
  4 30  4  0
  5 17  1  0
  6  8  1  0
  6 29  1  0
  7 24  4  0
  7 26  4  0
  8 28  1  0
  9 13  2  0
 10 18  1  0
 10 21  4  0
 10 30  4  0
 11 17  2  0
 12 18  1  0
 13 15  1  0
 14 24  1  0
 15 25  1  0
 16 28  2  0
 17 20  1  0
 19 24  4  0
 20 23  1  0
 21 22  4  0
 22 23  4  0
 25 26  4  0
 27 29  2  0
M  END
$$$$

 Created by Python create_sdf_string function

 30 33  0  0  0  0  0  0  0  0999 V2000
    8.3036    9.8571   18.4133 C   0  0  0  0  0  0  0  0  0  0  0  0
    8.3694    7.6612   22.6703 C   0  0  0  0  0  0  0  0  0  0  0  0
    8.4143    6.6863   16.2273 C   0  0  0  0  0  0  0  0  0  0  0  0
   10.7581    6.5674   21.7636 C   0  0  0  0  0  0  0  0  0  0  0  0
    8.4452    8.7960   19.2958 O   0  0  0  0  0  0  0  0  0  0  0  0
    8.7122    6.7842   24.8569 C   0  0  0  0  0  0  0  0  0  0  0  0
   10.3400    6.1726   14.3081 C   0  0  0  0  0  0  0  0  0  0  0  0
    7.4297    7.5873   24.8962 C   0  0  0  0  0  0  0  0  0  0  0  0
    8.1566   10.0536   16.0516 O   0  0  0  0  0  0  0  0  0  0  0  0
   12.4989    6.2074   20.1776 C   0  0  0  0  0  0  0  0  0  0  0  0
    6.9192    9.1053   20.9073 O   0  0  0  0  0  0  0  0  0  0  0  0
   14.3979    6.0729   18.7784 C   0  0  0  0  0  0  0  0  0  0  0  0
    8.6811    9.5354   16.9998 C   0  0  0  0  0  0  0  0  0  0  0  0
    9.2512    4.2713   13.7653 O   0  0  0  0  0  0  0  0  0  0  0  0
    9.6495    8.6317   16.8332 N   0  0  0  0  0  0  0  0  0  0  0  0
    6.2934    8.6988   23.1988 O   0  0  0  0  0  0  0  0  0  0  0  0
    7.9806    8.6543   20.5437 C   0  0  0  0  0  0  0  0  0  0  0  0
   13.7270    5.7144   19.8610 O   0  0  0  0  0  0  0  0  0  0  0  0
    8.3351    5.5235   15.4478 C   0  0  0  0  0  0  0  0  0  0  0  0
    8.7700    7.8434   21.3915 C   0  0  0  0  0  0  0  0  0  0  0  0
   11.7856    6.8851   19.2401 C   0  0  0  0  0  0  0  0  0  0  0  0
   10.5281    7.4276   19.5649 C   0  0  0  0  0  0  0  0  0  0  0  0
   10.0256    7.2907   20.8484 C   0  0  0  0  0  0  0  0  0  0  0  0
    9.3113    5.3049   14.4911 C   0  0  0  0  0  0  0  0  0  0  0  0
    9.4607    7.5646   16.0139 C   0  0  0  0  0  0  0  0  0  0  0  0
   10.4192    7.3157   15.0955 C   0  0  0  0  0  0  0  0  0  0  0  0
   10.2489    6.4227   23.0218 N   0  0  0  0  0  0  0  0  0  0  0  0
    7.2472    8.0746   23.5050 C   0  0  0  0  0  0  0  0  0  0  0  0
    9.2051    6.9101   23.4604 C   0  0  0  0  0  0  0  0  0  0  0  0
   11.9646    6.0299   21.4251 C   0  0  0  0  0  0  0  0  0  0  0  0
  1  5  1  0
  1 13  1  0
  2 20  2  0
  2 28  1  0
  2 29  1  0
  3 19  4  0
  3 25  4  0
  4 23  4  0
  4 27  1  0
  4 30  4  0
  5 17  1  0
  6  8  1  0
  6 29  1  0
  7 24  4  0
  7 26  4  0
  8 28  1  0
  9 13  2  0
 10 18  1  0
 10 21  4  0
 10 30  4  0
 11 17  2  0
 12 18  1  0
 13 15  1  0
 14 24  1  0
 15 25  1  0
 16 28  2  0
 17 20  1  0
 19 24  4  0
 20 23  1  0
 21 22  4  0
 22 23  4  0
 25 26  4  0
 27 29  2  0
M  END
$$$$

 Created by Python create_sdf_string function

 30 33  0  0  0  0  0  0  0  0999 V2000
    8.3036    9.8571   18.4133 C   0  0  0  0  0  0  0  0  0  0  0  0
    8.3694    7.6612   22.6703 C   0  0  0  0  0  0  0  0  0  0  0  0
    8.4143    6.6863   16.2273 C   0  0  0  0  0  0  0  0  0  0  0  0
   10.7581    6.5674   21.7636 C   0  0  0  0  0  0  0  0  0  0  0  0
    8.4452    8.7960   19.2958 O   0  0  0  0  0  0  0  0  0  0  0  0
    8.7122    6.7842   24.8569 C   0  0  0  0  0  0  0  0  0  0  0  0
   10.3400    6.1726   14.3081 C   0  0  0  0  0  0  0  0  0  0  0  0
    7.4297    7.5873   24.8962 C   0  0  0  0  0  0  0  0  0  0  0  0
    8.1566   10.0536   16.0516 O   0  0  0  0  0  0  0  0  0  0  0  0
   12.4989    6.2074   20.1776 C   0  0  0  0  0  0  0  0  0  0  0  0
    6.9192    9.1053   20.9073 O   0  0  0  0  0  0  0  0  0  0  0  0
   14.3979    6.0729   18.7784 C   0  0  0  0  0  0  0  0  0  0  0  0
    8.6811    9.5354   16.9998 C   0  0  0  0  0  0  0  0  0  0  0  0
    9.2512    4.2713   13.7653 O   0  0  0  0  0  0  0  0  0  0  0  0
    9.6495    8.6317   16.8332 N   0  0  0  0  0  0  0  0  0  0  0  0
    6.2934    8.6988   23.1988 O   0  0  0  0  0  0  0  0  0  0  0  0
    7.9806    8.6543   20.5437 C   0  0  0  0  0  0  0  0  0  0  0  0
   13.7270    5.7144   19.8610 O   0  0  0  0  0  0  0  0  0  0  0  0
    8.3351    5.5235   15.4478 C   0  0  0  0  0  0  0  0  0  0  0  0
    8.7700    7.8434   21.3915 C   0  0  0  0  0  0  0  0  0  0  0  0
   11.7856    6.8851   19.2401 C   0  0  0  0  0  0  0  0  0  0  0  0
   10.5281    7.4276   19.5649 C   0  0  0  0  0  0  0  0  0  0  0  0
   10.0256    7.2907   20.8484 C   0  0  0  0  0  0  0  0  0  0  0  0
    9.3113    5.3049   14.4911 C   0  0  0  0  0  0  0  0  0  0  0  0
    9.4607    7.5646   16.0139 C   0  0  0  0  0  0  0  0  0  0  0  0
   10.4192    7.3157   15.0955 C   0  0  0  0  0  0  0  0  0  0  0  0
   10.2489    6.4227   23.0218 N   0  0  0  0  0  0  0  0  0  0  0  0
    7.2472    8.0746   23.5050 C   0  0  0  0  0  0  0  0  0  0  0  0
    9.2051    6.9101   23.4604 C   0  0  0  0  0  0  0  0  0  0  0  0
   11.9646    6.0299   21.4251 C   0  0  0  0  0  0  0  0  0  0  0  0
  1  5  1  0
  1 13  1  0
  2 20  2  0
  2 28  1  0
  2 29  1  0
  3 19  4  0
  3 25  4  0
  4 23  4  0
  4 27  1  0
  4 30  4  0
  5 17  1  0
  6  8  1  0
  6 29  1  0
  7 24  4  0
  7 26  4  0
  8 28  1  0
  9 13  2  0
 10 18  1  0
 10 21  4  0
 10 30  4  0
 11 17  2  0
 12 18  1  0
 13 15  1  0
 14 24  1  0
 15 25  1  0
 16 28  2  0
 17 20  1  0
 19 24  4  0
 20 23  1  0
 21 22  4  0
 22 23  4  0
 25 26  4  0
 27 29  2  0
M  END
$$$$

 Created by Python create_sdf_string function

 30 33  0  0  0  0  0  0  0  0999 V2000
    8.3036    9.8571   18.4133 C   0  0  0  0  0  0  0  0  0  0  0  0
    8.3694    7.6612   22.6703 C   0  0  0  0  0  0  0  0  0  0  0  0
    8.4143    6.6863   16.2273 C   0  0  0  0  0  0  0  0  0  0  0  0
   10.7581    6.5674   21.7636 C   0  0  0  0  0  0  0  0  0  0  0  0
    8.4452    8.7960   19.2958 O   0  0  0  0  0  0  0  0  0  0  0  0
    8.7122    6.7842   24.8569 C   0  0  0  0  0  0  0  0  0  0  0  0
   10.3400    6.1726   14.3081 C   0  0  0  0  0  0  0  0  0  0  0  0
    7.4297    7.5873   24.8962 C   0  0  0  0  0  0  0  0  0  0  0  0
    8.1566   10.0536   16.0516 O   0  0  0  0  0  0  0  0  0  0  0  0
   12.4989    6.2074   20.1776 C   0  0  0  0  0  0  0  0  0  0  0  0
    6.9192    9.1053   20.9073 O   0  0  0  0  0  0  0  0  0  0  0  0
   14.3979    6.0729   18.7784 C   0  0  0  0  0  0  0  0  0  0  0  0
    8.6811    9.5354   16.9998 C   0  0  0  0  0  0  0  0  0  0  0  0
    9.2512    4.2713   13.7653 O   0  0  0  0  0  0  0  0  0  0  0  0
    9.6495    8.6317   16.8332 N   0  0  0  0  0  0  0  0  0  0  0  0
    6.2934    8.6988   23.1988 O   0  0  0  0  0  0  0  0  0  0  0  0
    7.9806    8.6543   20.5437 C   0  0  0  0  0  0  0  0  0  0  0  0
   13.7270    5.7144   19.8610 O   0  0  0  0  0  0  0  0  0  0  0  0
    8.3351    5.5235   15.4478 C   0  0  0  0  0  0  0  0  0  0  0  0
    8.7700    7.8434   21.3915 C   0  0  0  0  0  0  0  0  0  0  0  0
   11.7856    6.8851   19.2401 C   0  0  0  0  0  0  0  0  0  0  0  0
   10.5281    7.4276   19.5649 C   0  0  0  0  0  0  0  0  0  0  0  0
   10.0256    7.2907   20.8484 C   0  0  0  0  0  0  0  0  0  0  0  0
    9.3113    5.3049   14.4911 C   0  0  0  0  0  0  0  0  0  0  0  0
    9.4607    7.5646   16.0139 C   0  0  0  0  0  0  0  0  0  0  0  0
   10.4192    7.3157   15.0955 C   0  0  0  0  0  0  0  0  0  0  0  0
   10.2489    6.4227   23.0218 N   0  0  0  0  0  0  0  0  0  0  0  0
    7.2472    8.0746   23.5050 C   0  0  0  0  0  0  0  0  0  0  0  0
    9.2051    6.9101   23.4604 C   0  0  0  0  0  0  0  0  0  0  0  0
   11.9646    6.0299   21.4251 C   0  0  0  0  0  0  0  0  0  0  0  0
  1  5  1  0
  1 13  1  0
  2 20  2  0
  2 28  1  0
  2 29  1  0
  3 19  4  0
  3 25  4  0
  4 23  4  0
  4 27  1  0
  4 30  4  0
  5 17  1  0
  6  8  1  0
  6 29  1  0
  7 24  4  0
  7 26  4  0
  8 28  1  0
  9 13  2  0
 10 18  1  0
 10 21  4  0
 10 30  4  0
 11 17  2  0
 12 18  1  0
 13 15  1  0
 14 24  1  0
 15 25  1  0
 16 28  2  0
 17 20  1  0
 19 24  4  0
 20 23  1  0
 21 22  4  0
 22 23  4  0
 25 26  4  0
 27 29  2  0
M  END
$$$$

 Created by Python create_sdf_string function

 30 33  0  0  0  0  0  0  0  0999 V2000
    8.3036    9.8571   18.4133 C   0  0  0  0  0  0  0  0  0  0  0  0
    8.3694    7.6612   22.6703 C   0  0  0  0  0  0  0  0  0  0  0  0
    8.4143    6.6863   16.2273 C   0  0  0  0  0  0  0  0  0  0  0  0
   10.7581    6.5674   21.7636 C   0  0  0  0  0  0  0  0  0  0  0  0
    8.4452    8.7960   19.2958 O   0  0  0  0  0  0  0  0  0  0  0  0
    8.7122    6.7842   24.8569 C   0  0  0  0  0  0  0  0  0  0  0  0
   10.3400    6.1726   14.3081 C   0  0  0  0  0  0  0  0  0  0  0  0
    7.4297    7.5873   24.8962 C   0  0  0  0  0  0  0  0  0  0  0  0
    8.1566   10.0536   16.0516 O   0  0  0  0  0  0  0  0  0  0  0  0
   12.4989    6.2074   20.1776 C   0  0  0  0  0  0  0  0  0  0  0  0
    6.9192    9.1053   20.9073 O   0  0  0  0  0  0  0  0  0  0  0  0
   14.3979    6.0729   18.7784 C   0  0  0  0  0  0  0  0  0  0  0  0
    8.6811    9.5354   16.9998 C   0  0  0  0  0  0  0  0  0  0  0  0
    9.2512    4.2713   13.7653 O   0  0  0  0  0  0  0  0  0  0  0  0
    9.6495    8.6317   16.8332 N   0  0  0  0  0  0  0  0  0  0  0  0
    6.2934    8.6988   23.1988 O   0  0  0  0  0  0  0  0  0  0  0  0
    7.9806    8.6543   20.5437 C   0  0  0  0  0  0  0  0  0  0  0  0
   13.7270    5.7144   19.8610 O   0  0  0  0  0  0  0  0  0  0  0  0
    8.3351    5.5235   15.4478 C   0  0  0  0  0  0  0  0  0  0  0  0
    8.7700    7.8434   21.3915 C   0  0  0  0  0  0  0  0  0  0  0  0
   11.7856    6.8851   19.2401 C   0  0  0  0  0  0  0  0  0  0  0  0
   10.5281    7.4276   19.5649 C   0  0  0  0  0  0  0  0  0  0  0  0
   10.0256    7.2907   20.8484 C   0  0  0  0  0  0  0  0  0  0  0  0
    9.3113    5.3049   14.4911 C   0  0  0  0  0  0  0  0  0  0  0  0
    9.4607    7.5646   16.0139 C   0  0  0  0  0  0  0  0  0  0  0  0
   10.4192    7.3157   15.0955 C   0  0  0  0  0  0  0  0  0  0  0  0
   10.2489    6.4227   23.0218 N   0  0  0  0  0  0  0  0  0  0  0  0
    7.2472    8.0746   23.5050 C   0  0  0  0  0  0  0  0  0  0  0  0
    9.2051    6.9101   23.4604 C   0  0  0  0  0  0  0  0  0  0  0  0
   11.9646    6.0299   21.4251 C   0  0  0  0  0  0  0  0  0  0  0  0
  1  5  1  0
  1 13  1  0
  2 20  2  0
  2 28  1  0
  2 29  1  0
  3 19  4  0
  3 25  4  0
  4 23  4  0
  4 27  1  0
  4 30  4  0
  5 17  1  0
  6  8  1  0
  6 29  1  0
  7 24  4  0
  7 26  4  0
  8 28  1  0
  9 13  2  0
 10 18  1  0
 10 21  4  0
 10 30  4  0
 11 17  2  0
 12 18  1  0
 13 15  1  0
 14 24  1  0
 15 25  1  0
 16 28  2  0
 17 20  1  0
 19 24  4  0
 20 23  1  0
 21 22  4  0
 22 23  4  0
 25 26  4  0
 27 29  2  0
M  END
$$$$

 Created by Python create_sdf_string function

 30 33  0  0  0  0  0  0  0  0999 V2000
    8.3036    9.8571   18.4133 C   0  0  0  0  0  0  0  0  0  0  0  0
    8.3694    7.6612   22.6703 C   0  0  0  0  0  0  0  0  0  0  0  0
    8.4143    6.6863   16.2273 C   0  0  0  0  0  0  0  0  0  0  0  0
   10.7581    6.5674   21.7636 C   0  0  0  0  0  0  0  0  0  0  0  0
    8.4452    8.7960   19.2958 O   0  0  0  0  0  0  0  0  0  0  0  0
    8.7122    6.7842   24.8569 C   0  0  0  0  0  0  0  0  0  0  0  0
   10.3400    6.1726   14.3081 C   0  0  0  0  0  0  0  0  0  0  0  0
    7.4297    7.5873   24.8962 C   0  0  0  0  0  0  0  0  0  0  0  0
    8.1566   10.0536   16.0516 O   0  0  0  0  0  0  0  0  0  0  0  0
   12.4989    6.2074   20.1776 C   0  0  0  0  0  0  0  0  0  0  0  0
    6.9192    9.1053   20.9073 O   0  0  0  0  0  0  0  0  0  0  0  0
   14.3979    6.0729   18.7784 C   0  0  0  0  0  0  0  0  0  0  0  0
    8.6811    9.5354   16.9998 C   0  0  0  0  0  0  0  0  0  0  0  0
    9.2512    4.2713   13.7653 O   0  0  0  0  0  0  0  0  0  0  0  0
    9.6495    8.6317   16.8332 N   0  0  0  0  0  0  0  0  0  0  0  0
    6.2934    8.6988   23.1988 O   0  0  0  0  0  0  0  0  0  0  0  0
    7.9806    8.6543   20.5437 C   0  0  0  0  0  0  0  0  0  0  0  0
   13.7270    5.7144   19.8610 O   0  0  0  0  0  0  0  0  0  0  0  0
    8.3351    5.5235   15.4478 C   0  0  0  0  0  0  0  0  0  0  0  0
    8.7700    7.8434   21.3915 C   0  0  0  0  0  0  0  0  0  0  0  0
   11.7856    6.8851   19.2401 C   0  0  0  0  0  0  0  0  0  0  0  0
   10.5281    7.4276   19.5649 C   0  0  0  0  0  0  0  0  0  0  0  0
   10.0256    7.2907   20.8484 C   0  0  0  0  0  0  0  0  0  0  0  0
    9.3113    5.3049   14.4911 C   0  0  0  0  0  0  0  0  0  0  0  0
    9.4607    7.5646   16.0139 C   0  0  0  0  0  0  0  0  0  0  0  0
   10.4192    7.3157   15.0955 C   0  0  0  0  0  0  0  0  0  0  0  0
   10.2489    6.4227   23.0218 N   0  0  0  0  0  0  0  0  0  0  0  0
    7.2472    8.0746   23.5050 C   0  0  0  0  0  0  0  0  0  0  0  0
    9.2051    6.9101   23.4604 C   0  0  0  0  0  0  0  0  0  0  0  0
   11.9646    6.0299   21.4251 C   0  0  0  0  0  0  0  0  0  0  0  0
  1  5  1  0
  1 13  1  0
  2 20  2  0
  2 28  1  0
  2 29  1  0
  3 19  4  0
  3 25  4  0
  4 23  4  0
  4 27  1  0
  4 30  4  0
  5 17  1  0
  6  8  1  0
  6 29  1  0
  7 24  4  0
  7 26  4  0
  8 28  1  0
  9 13  2  0
 10 18  1  0
 10 21  4  0
 10 30  4  0
 11 17  2  0
 12 18  1  0
 13 15  1  0
 14 24  1  0
 15 25  1  0
 16 28  2  0
 17 20  1  0
 19 24  4  0
 20 23  1  0
 21 22  4  0
 22 23  4  0
 25 26  4  0
 27 29  2  0
M  END
$$$$

 Created by Python create_sdf_string function

 30 33  0  0  0  0  0  0  0  0999 V2000
    8.3036    9.8571   18.4133 C   0  0  0  0  0  0  0  0  0  0  0  0
    8.3694    7.6612   22.6703 C   0  0  0  0  0  0  0  0  0  0  0  0
    8.4143    6.6863   16.2273 C   0  0  0  0  0  0  0  0  0  0  0  0
   10.7581    6.5674   21.7636 C   0  0  0  0  0  0  0  0  0  0  0  0
    8.4452    8.7960   19.2958 O   0  0  0  0  0  0  0  0  0  0  0  0
    8.7122    6.7842   24.8569 C   0  0  0  0  0  0  0  0  0  0  0  0
   10.3400    6.1726   14.3081 C   0  0  0  0  0  0  0  0  0  0  0  0
    7.4297    7.5873   24.8962 C   0  0  0  0  0  0  0  0  0  0  0  0
    8.1566   10.0536   16.0516 O   0  0  0  0  0  0  0  0  0  0  0  0
   12.4989    6.2074   20.1776 C   0  0  0  0  0  0  0  0  0  0  0  0
    6.9192    9.1053   20.9073 O   0  0  0  0  0  0  0  0  0  0  0  0
   14.3979    6.0729   18.7784 C   0  0  0  0  0  0  0  0  0  0  0  0
    8.6811    9.5354   16.9998 C   0  0  0  0  0  0  0  0  0  0  0  0
    9.2512    4.2713   13.7653 O   0  0  0  0  0  0  0  0  0  0  0  0
    9.6495    8.6317   16.8332 N   0  0  0  0  0  0  0  0  0  0  0  0
    6.2934    8.6988   23.1988 O   0  0  0  0  0  0  0  0  0  0  0  0
    7.9806    8.6543   20.5437 C   0  0  0  0  0  0  0  0  0  0  0  0
   13.7270    5.7144   19.8610 O   0  0  0  0  0  0  0  0  0  0  0  0
    8.3351    5.5235   15.4478 C   0  0  0  0  0  0  0  0  0  0  0  0
    8.7700    7.8434   21.3915 C   0  0  0  0  0  0  0  0  0  0  0  0
   11.7856    6.8851   19.2401 C   0  0  0  0  0  0  0  0  0  0  0  0
   10.5281    7.4276   19.5649 C   0  0  0  0  0  0  0  0  0  0  0  0
   10.0256    7.2907   20.8484 C   0  0  0  0  0  0  0  0  0  0  0  0
    9.3113    5.3049   14.4911 C   0  0  0  0  0  0  0  0  0  0  0  0
    9.4607    7.5646   16.0139 C   0  0  0  0  0  0  0  0  0  0  0  0
   10.4192    7.3157   15.0955 C   0  0  0  0  0  0  0  0  0  0  0  0
   10.2489    6.4227   23.0218 N   0  0  0  0  0  0  0  0  0  0  0  0
    7.2472    8.0746   23.5050 C   0  0  0  0  0  0  0  0  0  0  0  0
    9.2051    6.9101   23.4604 C   0  0  0  0  0  0  0  0  0  0  0  0
   11.9646    6.0299   21.4251 C   0  0  0  0  0  0  0  0  0  0  0  0
  1  5  1  0
  1 13  1  0
  2 20  2  0
  2 28  1  0
  2 29  1  0
  3 19  4  0
  3 25  4  0
  4 23  4  0
  4 27  1  0
  4 30  4  0
  5 17  1  0
  6  8  1  0
  6 29  1  0
  7 24  4  0
  7 26  4  0
  8 28  1  0
  9 13  2  0
 10 18  1  0
 10 21  4  0
 10 30  4  0
 11 17  2  0
 12 18  1  0
 13 15  1  0
 14 24  1  0
 15 25  1  0
 16 28  2  0
 17 20  1  0
 19 24  4  0
 20 23  1  0
 21 22  4  0
 22 23  4  0
 25 26  4  0
 27 29  2  0
M  END
$$$$

 Created by Python create_sdf_string function

 30 33  0  0  0  0  0  0  0  0999 V2000
    8.3036    9.8571   18.4133 C   0  0  0  0  0  0  0  0  0  0  0  0
    8.3694    7.6612   22.6703 C   0  0  0  0  0  0  0  0  0  0  0  0
    8.4143    6.6863   16.2273 C   0  0  0  0  0  0  0  0  0  0  0  0
   10.7581    6.5674   21.7636 C   0  0  0  0  0  0  0  0  0  0  0  0
    8.4452    8.7960   19.2958 O   0  0  0  0  0  0  0  0  0  0  0  0
    8.7122    6.7842   24.8569 C   0  0  0  0  0  0  0  0  0  0  0  0
   10.3400    6.1726   14.3081 C   0  0  0  0  0  0  0  0  0  0  0  0
    7.4297    7.5873   24.8962 C   0  0  0  0  0  0  0  0  0  0  0  0
    8.1566   10.0536   16.0516 O   0  0  0  0  0  0  0  0  0  0  0  0
   12.4989    6.2074   20.1776 C   0  0  0  0  0  0  0  0  0  0  0  0
    6.9192    9.1053   20.9073 O   0  0  0  0  0  0  0  0  0  0  0  0
   14.3979    6.0729   18.7784 C   0  0  0  0  0  0  0  0  0  0  0  0
    8.6811    9.5354   16.9998 C   0  0  0  0  0  0  0  0  0  0  0  0
    9.2512    4.2713   13.7653 O   0  0  0  0  0  0  0  0  0  0  0  0
    9.6495    8.6317   16.8332 N   0  0  0  0  0  0  0  0  0  0  0  0
    6.2934    8.6988   23.1988 O   0  0  0  0  0  0  0  0  0  0  0  0
    7.9806    8.6543   20.5437 C   0  0  0  0  0  0  0  0  0  0  0  0
   13.7270    5.7144   19.8610 O   0  0  0  0  0  0  0  0  0  0  0  0
    8.3351    5.5235   15.4478 C   0  0  0  0  0  0  0  0  0  0  0  0
    8.7700    7.8434   21.3915 C   0  0  0  0  0  0  0  0  0  0  0  0
   11.7856    6.8851   19.2401 C   0  0  0  0  0  0  0  0  0  0  0  0
   10.5281    7.4276   19.5649 C   0  0  0  0  0  0  0  0  0  0  0  0
   10.0256    7.2907   20.8484 C   0  0  0  0  0  0  0  0  0  0  0  0
    9.3113    5.3049   14.4911 C   0  0  0  0  0  0  0  0  0  0  0  0
    9.4607    7.5646   16.0139 C   0  0  0  0  0  0  0  0  0  0  0  0
   10.4192    7.3157   15.0955 C   0  0  0  0  0  0  0  0  0  0  0  0
   10.2489    6.4227   23.0218 N   0  0  0  0  0  0  0  0  0  0  0  0
    7.2472    8.0746   23.5050 C   0  0  0  0  0  0  0  0  0  0  0  0
    9.2051    6.9101   23.4604 C   0  0  0  0  0  0  0  0  0  0  0  0
   11.9646    6.0299   21.4251 C   0  0  0  0  0  0  0  0  0  0  0  0
  1  5  1  0
  1 13  1  0
  2 20  2  0
  2 28  1  0
  2 29  1  0
  3 19  4  0
  3 25  4  0
  4 23  4  0
  4 27  1  0
  4 30  4  0
  5 17  1  0
  6  8  1  0
  6 29  1  0
  7 24  4  0
  7 26  4  0
  8 28  1  0
  9 13  2  0
 10 18  1  0
 10 21  4  0
 10 30  4  0
 11 17  2  0
 12 18  1  0
 13 15  1  0
 14 24  1  0
 15 25  1  0
 16 28  2  0
 17 20  1  0
 19 24  4  0
 20 23  1  0
 21 22  4  0
 22 23  4  0
 25 26  4  0
 27 29  2  0
M  END
$$$$

 Created by Python create_sdf_string function

 30 33  0  0  0  0  0  0  0  0999 V2000
    8.3036    9.8571   18.4133 C   0  0  0  0  0  0  0  0  0  0  0  0
    8.3694    7.6612   22.6703 C   0  0  0  0  0  0  0  0  0  0  0  0
    8.4143    6.6863   16.2273 C   0  0  0  0  0  0  0  0  0  0  0  0
   10.7581    6.5674   21.7636 C   0  0  0  0  0  0  0  0  0  0  0  0
    8.4452    8.7960   19.2958 O   0  0  0  0  0  0  0  0  0  0  0  0
    8.7122    6.7842   24.8569 C   0  0  0  0  0  0  0  0  0  0  0  0
   10.3400    6.1726   14.3081 C   0  0  0  0  0  0  0  0  0  0  0  0
    7.4297    7.5873   24.8962 C   0  0  0  0  0  0  0  0  0  0  0  0
    8.1566   10.0536   16.0516 O   0  0  0  0  0  0  0  0  0  0  0  0
   12.4989    6.2074   20.1776 C   0  0  0  0  0  0  0  0  0  0  0  0
    6.9192    9.1053   20.9073 O   0  0  0  0  0  0  0  0  0  0  0  0
   14.3979    6.0729   18.7784 C   0  0  0  0  0  0  0  0  0  0  0  0
    8.6811    9.5354   16.9998 C   0  0  0  0  0  0  0  0  0  0  0  0
    9.2512    4.2713   13.7653 O   0  0  0  0  0  0  0  0  0  0  0  0
    9.6495    8.6317   16.8332 N   0  0  0  0  0  0  0  0  0  0  0  0
    6.2934    8.6988   23.1988 O   0  0  0  0  0  0  0  0  0  0  0  0
    7.9806    8.6543   20.5437 C   0  0  0  0  0  0  0  0  0  0  0  0
   13.7270    5.7144   19.8610 O   0  0  0  0  0  0  0  0  0  0  0  0
    8.3351    5.5235   15.4478 C   0  0  0  0  0  0  0  0  0  0  0  0
    8.7700    7.8434   21.3915 C   0  0  0  0  0  0  0  0  0  0  0  0
   11.7856    6.8851   19.2401 C   0  0  0  0  0  0  0  0  0  0  0  0
   10.5281    7.4276   19.5649 C   0  0  0  0  0  0  0  0  0  0  0  0
   10.0256    7.2907   20.8484 C   0  0  0  0  0  0  0  0  0  0  0  0
    9.3113    5.3049   14.4911 C   0  0  0  0  0  0  0  0  0  0  0  0
    9.4607    7.5646   16.0139 C   0  0  0  0  0  0  0  0  0  0  0  0
   10.4192    7.3157   15.0955 C   0  0  0  0  0  0  0  0  0  0  0  0
   10.2489    6.4227   23.0218 N   0  0  0  0  0  0  0  0  0  0  0  0
    7.2472    8.0746   23.5050 C   0  0  0  0  0  0  0  0  0  0  0  0
    9.2051    6.9101   23.4604 C   0  0  0  0  0  0  0  0  0  0  0  0
   11.9646    6.0299   21.4251 C   0  0  0  0  0  0  0  0  0  0  0  0
  1  5  1  0
  1 13  1  0
  2 20  2  0
  2 28  1  0
  2 29  1  0
  3 19  4  0
  3 25  4  0
  4 23  4  0
  4 27  1  0
  4 30  4  0
  5 17  1  0
  6  8  1  0
  6 29  1  0
  7 24  4  0
  7 26  4  0
  8 28  1  0
  9 13  2  0
 10 18  1  0
 10 21  4  0
 10 30  4  0
 11 17  2  0
 12 18  1  0
 13 15  1  0
 14 24  1  0
 15 25  1  0
 16 28  2  0
 17 20  1  0
 19 24  4  0
 20 23  1  0
 21 22  4  0
 22 23  4  0
 25 26  4  0
 27 29  2  0
M  END
$$$$

 Created by Python create_sdf_string function

 30 33  0  0  0  0  0  0  0  0999 V2000
    8.3036    9.8571   18.4133 C   0  0  0  0  0  0  0  0  0  0  0  0
    8.3694    7.6612   22.6703 C   0  0  0  0  0  0  0  0  0  0  0  0
    8.4143    6.6863   16.2273 C   0  0  0  0  0  0  0  0  0  0  0  0
   10.7581    6.5674   21.7636 C   0  0  0  0  0  0  0  0  0  0  0  0
    8.4452    8.7960   19.2958 O   0  0  0  0  0  0  0  0  0  0  0  0
    8.7122    6.7842   24.8569 C   0  0  0  0  0  0  0  0  0  0  0  0
   10.3400    6.1726   14.3081 C   0  0  0  0  0  0  0  0  0  0  0  0
    7.4297    7.5873   24.8962 C   0  0  0  0  0  0  0  0  0  0  0  0
    8.1566   10.0536   16.0516 O   0  0  0  0  0  0  0  0  0  0  0  0
   12.4989    6.2074   20.1776 C   0  0  0  0  0  0  0  0  0  0  0  0
    6.9192    9.1053   20.9073 O   0  0  0  0  0  0  0  0  0  0  0  0
   14.3979    6.0729   18.7784 C   0  0  0  0  0  0  0  0  0  0  0  0
    8.6811    9.5354   16.9998 C   0  0  0  0  0  0  0  0  0  0  0  0
    9.2512    4.2713   13.7653 O   0  0  0  0  0  0  0  0  0  0  0  0
    9.6495    8.6317   16.8332 N   0  0  0  0  0  0  0  0  0  0  0  0
    6.2934    8.6988   23.1988 O   0  0  0  0  0  0  0  0  0  0  0  0
    7.9806    8.6543   20.5437 C   0  0  0  0  0  0  0  0  0  0  0  0
   13.7270    5.7144   19.8610 O   0  0  0  0  0  0  0  0  0  0  0  0
    8.3351    5.5235   15.4478 C   0  0  0  0  0  0  0  0  0  0  0  0
    8.7700    7.8434   21.3915 C   0  0  0  0  0  0  0  0  0  0  0  0
   11.7856    6.8851   19.2401 C   0  0  0  0  0  0  0  0  0  0  0  0
   10.5281    7.4276   19.5649 C   0  0  0  0  0  0  0  0  0  0  0  0
   10.0256    7.2907   20.8484 C   0  0  0  0  0  0  0  0  0  0  0  0
    9.3113    5.3049   14.4911 C   0  0  0  0  0  0  0  0  0  0  0  0
    9.4607    7.5646   16.0139 C   0  0  0  0  0  0  0  0  0  0  0  0
   10.4192    7.3157   15.0955 C   0  0  0  0  0  0  0  0  0  0  0  0
   10.2489    6.4227   23.0218 N   0  0  0  0  0  0  0  0  0  0  0  0
    7.2472    8.0746   23.5050 C   0  0  0  0  0  0  0  0  0  0  0  0
    9.2051    6.9101   23.4604 C   0  0  0  0  0  0  0  0  0  0  0  0
   11.9646    6.0299   21.4251 C   0  0  0  0  0  0  0  0  0  0  0  0
  1  5  1  0
  1 13  1  0
  2 20  2  0
  2 28  1  0
  2 29  1  0
  3 19  4  0
  3 25  4  0
  4 23  4  0
  4 27  1  0
  4 30  4  0
  5 17  1  0
  6  8  1  0
  6 29  1  0
  7 24  4  0
  7 26  4  0
  8 28  1  0
  9 13  2  0
 10 18  1  0
 10 21  4  0
 10 30  4  0
 11 17  2  0
 12 18  1  0
 13 15  1  0
 14 24  1  0
 15 25  1  0
 16 28  2  0
 17 20  1  0
 19 24  4  0
 20 23  1  0
 21 22  4  0
 22 23  4  0
 25 26  4  0
 27 29  2  0
M  END
$$$$

 Created by Python create_sdf_string function

 30 33  0  0  0  0  0  0  0  0999 V2000
    8.3036    9.8571   18.4133 C   0  0  0  0  0  0  0  0  0  0  0  0
    8.3694    7.6612   22.6703 C   0  0  0  0  0  0  0  0  0  0  0  0
    8.4143    6.6863   16.2273 C   0  0  0  0  0  0  0  0  0  0  0  0
   10.7581    6.5674   21.7636 C   0  0  0  0  0  0  0  0  0  0  0  0
    8.4452    8.7960   19.2958 O   0  0  0  0  0  0  0  0  0  0  0  0
    8.7122    6.7842   24.8569 C   0  0  0  0  0  0  0  0  0  0  0  0
   10.3400    6.1726   14.3081 C   0  0  0  0  0  0  0  0  0  0  0  0
    7.4297    7.5873   24.8962 C   0  0  0  0  0  0  0  0  0  0  0  0
    8.1566   10.0536   16.0516 O   0  0  0  0  0  0  0  0  0  0  0  0
   12.4989    6.2074   20.1776 C   0  0  0  0  0  0  0  0  0  0  0  0
    6.9192    9.1053   20.9073 O   0  0  0  0  0  0  0  0  0  0  0  0
   14.3979    6.0729   18.7784 C   0  0  0  0  0  0  0  0  0  0  0  0
    8.6811    9.5354   16.9998 C   0  0  0  0  0  0  0  0  0  0  0  0
    9.2512    4.2713   13.7653 O   0  0  0  0  0  0  0  0  0  0  0  0
    9.6495    8.6317   16.8332 N   0  0  0  0  0  0  0  0  0  0  0  0
    6.2934    8.6988   23.1988 O   0  0  0  0  0  0  0  0  0  0  0  0
    7.9806    8.6543   20.5437 C   0  0  0  0  0  0  0  0  0  0  0  0
   13.7270    5.7144   19.8610 O   0  0  0  0  0  0  0  0  0  0  0  0
    8.3351    5.5235   15.4478 C   0  0  0  0  0  0  0  0  0  0  0  0
    8.7700    7.8434   21.3915 C   0  0  0  0  0  0  0  0  0  0  0  0
   11.7856    6.8851   19.2401 C   0  0  0  0  0  0  0  0  0  0  0  0
   10.5281    7.4276   19.5649 C   0  0  0  0  0  0  0  0  0  0  0  0
   10.0256    7.2907   20.8484 C   0  0  0  0  0  0  0  0  0  0  0  0
    9.3113    5.3049   14.4911 C   0  0  0  0  0  0  0  0  0  0  0  0
    9.4607    7.5646   16.0139 C   0  0  0  0  0  0  0  0  0  0  0  0
   10.4192    7.3157   15.0955 C   0  0  0  0  0  0  0  0  0  0  0  0
   10.2489    6.4227   23.0218 N   0  0  0  0  0  0  0  0  0  0  0  0
    7.2472    8.0746   23.5050 C   0  0  0  0  0  0  0  0  0  0  0  0
    9.2051    6.9101   23.4604 C   0  0  0  0  0  0  0  0  0  0  0  0
   11.9646    6.0299   21.4251 C   0  0  0  0  0  0  0  0  0  0  0  0
  1  5  1  0
  1 13  1  0
  2 20  2  0
  2 28  1  0
  2 29  1  0
  3 19  4  0
  3 25  4  0
  4 23  4  0
  4 27  1  0
  4 30  4  0
  5 17  1  0
  6  8  1  0
  6 29  1  0
  7 24  4  0
  7 26  4  0
  8 28  1  0
  9 13  2  0
 10 18  1  0
 10 21  4  0
 10 30  4  0
 11 17  2  0
 12 18  1  0
 13 15  1  0
 14 24  1  0
 15 25  1  0
 16 28  2  0
 17 20  1  0
 19 24  4  0
 20 23  1  0
 21 22  4  0
 22 23  4  0
 25 26  4  0
 27 29  2  0
M  END
$$$$

 Created by Python create_sdf_string function

 30 33  0  0  0  0  0  0  0  0999 V2000
    8.3036    9.8571   18.4133 C   0  0  0  0  0  0  0  0  0  0  0  0
    8.3694    7.6612   22.6703 C   0  0  0  0  0  0  0  0  0  0  0  0
    8.4143    6.6863   16.2273 C   0  0  0  0  0  0  0  0  0  0  0  0
   10.7581    6.5674   21.7636 C   0  0  0  0  0  0  0  0  0  0  0  0
    8.4452    8.7960   19.2958 O   0  0  0  0  0  0  0  0  0  0  0  0
    8.7122    6.7842   24.8569 C   0  0  0  0  0  0  0  0  0  0  0  0
   10.3400    6.1726   14.3081 C   0  0  0  0  0  0  0  0  0  0  0  0
    7.4297    7.5873   24.8962 C   0  0  0  0  0  0  0  0  0  0  0  0
    8.1566   10.0536   16.0516 O   0  0  0  0  0  0  0  0  0  0  0  0
   12.4989    6.2074   20.1776 C   0  0  0  0  0  0  0  0  0  0  0  0
    6.9192    9.1053   20.9073 O   0  0  0  0  0  0  0  0  0  0  0  0
   14.3979    6.0729   18.7784 C   0  0  0  0  0  0  0  0  0  0  0  0
    8.6811    9.5354   16.9998 C   0  0  0  0  0  0  0  0  0  0  0  0
    9.2512    4.2713   13.7653 O   0  0  0  0  0  0  0  0  0  0  0  0
    9.6495    8.6317   16.8332 N   0  0  0  0  0  0  0  0  0  0  0  0
    6.2934    8.6988   23.1988 O   0  0  0  0  0  0  0  0  0  0  0  0
    7.9806    8.6543   20.5437 C   0  0  0  0  0  0  0  0  0  0  0  0
   13.7270    5.7144   19.8610 O   0  0  0  0  0  0  0  0  0  0  0  0
    8.3351    5.5235   15.4478 C   0  0  0  0  0  0  0  0  0  0  0  0
    8.7700    7.8434   21.3915 C   0  0  0  0  0  0  0  0  0  0  0  0
   11.7856    6.8851   19.2401 C   0  0  0  0  0  0  0  0  0  0  0  0
   10.5281    7.4276   19.5649 C   0  0  0  0  0  0  0  0  0  0  0  0
   10.0256    7.2907   20.8484 C   0  0  0  0  0  0  0  0  0  0  0  0
    9.3113    5.3049   14.4911 C   0  0  0  0  0  0  0  0  0  0  0  0
    9.4607    7.5646   16.0139 C   0  0  0  0  0  0  0  0  0  0  0  0
   10.4192    7.3157   15.0955 C   0  0  0  0  0  0  0  0  0  0  0  0
   10.2489    6.4227   23.0218 N   0  0  0  0  0  0  0  0  0  0  0  0
    7.2472    8.0746   23.5050 C   0  0  0  0  0  0  0  0  0  0  0  0
    9.2051    6.9101   23.4604 C   0  0  0  0  0  0  0  0  0  0  0  0
   11.9646    6.0299   21.4251 C   0  0  0  0  0  0  0  0  0  0  0  0
  1  5  1  0
  1 13  1  0
  2 20  2  0
  2 28  1  0
  2 29  1  0
  3 19  4  0
  3 25  4  0
  4 23  4  0
  4 27  1  0
  4 30  4  0
  5 17  1  0
  6  8  1  0
  6 29  1  0
  7 24  4  0
  7 26  4  0
  8 28  1  0
  9 13  2  0
 10 18  1  0
 10 21  4  0
 10 30  4  0
 11 17  2  0
 12 18  1  0
 13 15  1  0
 14 24  1  0
 15 25  1  0
 16 28  2  0
 17 20  1  0
 19 24  4  0
 20 23  1  0
 21 22  4  0
 22 23  4  0
 25 26  4  0
 27 29  2  0
M  END
$$$$

 Created by Python create_sdf_string function

 30 33  0  0  0  0  0  0  0  0999 V2000
    8.3036    9.8571   18.4133 C   0  0  0  0  0  0  0  0  0  0  0  0
    8.3694    7.6612   22.6703 C   0  0  0  0  0  0  0  0  0  0  0  0
    8.4143    6.6863   16.2273 C   0  0  0  0  0  0  0  0  0  0  0  0
   10.7581    6.5674   21.7636 C   0  0  0  0  0  0  0  0  0  0  0  0
    8.4452    8.7960   19.2958 O   0  0  0  0  0  0  0  0  0  0  0  0
    8.7122    6.7842   24.8569 C   0  0  0  0  0  0  0  0  0  0  0  0
   10.3400    6.1726   14.3081 C   0  0  0  0  0  0  0  0  0  0  0  0
    7.4297    7.5873   24.8962 C   0  0  0  0  0  0  0  0  0  0  0  0
    8.1566   10.0536   16.0516 O   0  0  0  0  0  0  0  0  0  0  0  0
   12.4989    6.2074   20.1776 C   0  0  0  0  0  0  0  0  0  0  0  0
    6.9192    9.1053   20.9073 O   0  0  0  0  0  0  0  0  0  0  0  0
   14.3979    6.0729   18.7784 C   0  0  0  0  0  0  0  0  0  0  0  0
    8.6811    9.5354   16.9998 C   0  0  0  0  0  0  0  0  0  0  0  0
    9.2512    4.2713   13.7653 O   0  0  0  0  0  0  0  0  0  0  0  0
    9.6495    8.6317   16.8332 N   0  0  0  0  0  0  0  0  0  0  0  0
    6.2934    8.6988   23.1988 O   0  0  0  0  0  0  0  0  0  0  0  0
    7.9806    8.6543   20.5437 C   0  0  0  0  0  0  0  0  0  0  0  0
   13.7270    5.7144   19.8610 O   0  0  0  0  0  0  0  0  0  0  0  0
    8.3351    5.5235   15.4478 C   0  0  0  0  0  0  0  0  0  0  0  0
    8.7700    7.8434   21.3915 C   0  0  0  0  0  0  0  0  0  0  0  0
   11.7856    6.8851   19.2401 C   0  0  0  0  0  0  0  0  0  0  0  0
   10.5281    7.4276   19.5649 C   0  0  0  0  0  0  0  0  0  0  0  0
   10.0256    7.2907   20.8484 C   0  0  0  0  0  0  0  0  0  0  0  0
    9.3113    5.3049   14.4911 C   0  0  0  0  0  0  0  0  0  0  0  0
    9.4607    7.5646   16.0139 C   0  0  0  0  0  0  0  0  0  0  0  0
   10.4192    7.3157   15.0955 C   0  0  0  0  0  0  0  0  0  0  0  0
   10.2489    6.4227   23.0218 N   0  0  0  0  0  0  0  0  0  0  0  0
    7.2472    8.0746   23.5050 C   0  0  0  0  0  0  0  0  0  0  0  0
    9.2051    6.9101   23.4604 C   0  0  0  0  0  0  0  0  0  0  0  0
   11.9646    6.0299   21.4251 C   0  0  0  0  0  0  0  0  0  0  0  0
  1  5  1  0
  1 13  1  0
  2 20  2  0
  2 28  1  0
  2 29  1  0
  3 19  4  0
  3 25  4  0
  4 23  4  0
  4 27  1  0
  4 30  4  0
  5 17  1  0
  6  8  1  0
  6 29  1  0
  7 24  4  0
  7 26  4  0
  8 28  1  0
  9 13  2  0
 10 18  1  0
 10 21  4  0
 10 30  4  0
 11 17  2  0
 12 18  1  0
 13 15  1  0
 14 24  1  0
 15 25  1  0
 16 28  2  0
 17 20  1  0
 19 24  4  0
 20 23  1  0
 21 22  4  0
 22 23  4  0
 25 26  4  0
 27 29  2  0
M  END
$$$$

 Created by Python create_sdf_string function

 30 33  0  0  0  0  0  0  0  0999 V2000
    8.3036    9.8571   18.4133 C   0  0  0  0  0  0  0  0  0  0  0  0
    8.3694    7.6612   22.6703 C   0  0  0  0  0  0  0  0  0  0  0  0
    8.4143    6.6863   16.2273 C   0  0  0  0  0  0  0  0  0  0  0  0
   10.7581    6.5674   21.7636 C   0  0  0  0  0  0  0  0  0  0  0  0
    8.4452    8.7960   19.2958 O   0  0  0  0  0  0  0  0  0  0  0  0
    8.7122    6.7842   24.8569 C   0  0  0  0  0  0  0  0  0  0  0  0
   10.3400    6.1726   14.3081 C   0  0  0  0  0  0  0  0  0  0  0  0
    7.4297    7.5873   24.8962 C   0  0  0  0  0  0  0  0  0  0  0  0
    8.1566   10.0536   16.0516 O   0  0  0  0  0  0  0  0  0  0  0  0
   12.4989    6.2074   20.1776 C   0  0  0  0  0  0  0  0  0  0  0  0
    6.9192    9.1053   20.9073 O   0  0  0  0  0  0  0  0  0  0  0  0
   14.3979    6.0729   18.7784 C   0  0  0  0  0  0  0  0  0  0  0  0
    8.6811    9.5354   16.9998 C   0  0  0  0  0  0  0  0  0  0  0  0
    9.2512    4.2713   13.7653 O   0  0  0  0  0  0  0  0  0  0  0  0
    9.6495    8.6317   16.8332 N   0  0  0  0  0  0  0  0  0  0  0  0
    6.2934    8.6988   23.1988 O   0  0  0  0  0  0  0  0  0  0  0  0
    7.9806    8.6543   20.5437 C   0  0  0  0  0  0  0  0  0  0  0  0
   13.7270    5.7144   19.8610 O   0  0  0  0  0  0  0  0  0  0  0  0
    8.3351    5.5235   15.4478 C   0  0  0  0  0  0  0  0  0  0  0  0
    8.7700    7.8434   21.3915 C   0  0  0  0  0  0  0  0  0  0  0  0
   11.7856    6.8851   19.2401 C   0  0  0  0  0  0  0  0  0  0  0  0
   10.5281    7.4276   19.5649 C   0  0  0  0  0  0  0  0  0  0  0  0
   10.0256    7.2907   20.8484 C   0  0  0  0  0  0  0  0  0  0  0  0
    9.3113    5.3049   14.4911 C   0  0  0  0  0  0  0  0  0  0  0  0
    9.4607    7.5646   16.0139 C   0  0  0  0  0  0  0  0  0  0  0  0
   10.4192    7.3157   15.0955 C   0  0  0  0  0  0  0  0  0  0  0  0
   10.2489    6.4227   23.0218 N   0  0  0  0  0  0  0  0  0  0  0  0
    7.2472    8.0746   23.5050 C   0  0  0  0  0  0  0  0  0  0  0  0
    9.2051    6.9101   23.4604 C   0  0  0  0  0  0  0  0  0  0  0  0
   11.9646    6.0299   21.4251 C   0  0  0  0  0  0  0  0  0  0  0  0
  1  5  1  0
  1 13  1  0
  2 20  2  0
  2 28  1  0
  2 29  1  0
  3 19  4  0
  3 25  4  0
  4 23  4  0
  4 27  1  0
  4 30  4  0
  5 17  1  0
  6  8  1  0
  6 29  1  0
  7 24  4  0
  7 26  4  0
  8 28  1  0
  9 13  2  0
 10 18  1  0
 10 21  4  0
 10 30  4  0
 11 17  2  0
 12 18  1  0
 13 15  1  0
 14 24  1  0
 15 25  1  0
 16 28  2  0
 17 20  1  0
 19 24  4  0
 20 23  1  0
 21 22  4  0
 22 23  4  0
 25 26  4  0
 27 29  2  0
M  END
$$$$

 Created by Python create_sdf_string function

 30 33  0  0  0  0  0  0  0  0999 V2000
    8.3036    9.8571   18.4133 C   0  0  0  0  0  0  0  0  0  0  0  0
    8.3694    7.6612   22.6703 C   0  0  0  0  0  0  0  0  0  0  0  0
    8.4143    6.6863   16.2273 C   0  0  0  0  0  0  0  0  0  0  0  0
   10.7581    6.5674   21.7636 C   0  0  0  0  0  0  0  0  0  0  0  0
    8.4452    8.7960   19.2958 O   0  0  0  0  0  0  0  0  0  0  0  0
    8.7122    6.7842   24.8569 C   0  0  0  0  0  0  0  0  0  0  0  0
   10.3400    6.1726   14.3081 C   0  0  0  0  0  0  0  0  0  0  0  0
    7.4297    7.5873   24.8962 C   0  0  0  0  0  0  0  0  0  0  0  0
    8.1566   10.0536   16.0516 O   0  0  0  0  0  0  0  0  0  0  0  0
   12.4989    6.2074   20.1776 C   0  0  0  0  0  0  0  0  0  0  0  0
    6.9192    9.1053   20.9073 O   0  0  0  0  0  0  0  0  0  0  0  0
   14.3979    6.0729   18.7784 C   0  0  0  0  0  0  0  0  0  0  0  0
    8.6811    9.5354   16.9998 C   0  0  0  0  0  0  0  0  0  0  0  0
    9.2512    4.2713   13.7653 O   0  0  0  0  0  0  0  0  0  0  0  0
    9.6495    8.6317   16.8332 N   0  0  0  0  0  0  0  0  0  0  0  0
    6.2934    8.6988   23.1988 O   0  0  0  0  0  0  0  0  0  0  0  0
    7.9806    8.6543   20.5437 C   0  0  0  0  0  0  0  0  0  0  0  0
   13.7270    5.7144   19.8610 O   0  0  0  0  0  0  0  0  0  0  0  0
    8.3351    5.5235   15.4478 C   0  0  0  0  0  0  0  0  0  0  0  0
    8.7700    7.8434   21.3915 C   0  0  0  0  0  0  0  0  0  0  0  0
   11.7856    6.8851   19.2401 C   0  0  0  0  0  0  0  0  0  0  0  0
   10.5281    7.4276   19.5649 C   0  0  0  0  0  0  0  0  0  0  0  0
   10.0256    7.2907   20.8484 C   0  0  0  0  0  0  0  0  0  0  0  0
    9.3113    5.3049   14.4911 C   0  0  0  0  0  0  0  0  0  0  0  0
    9.4607    7.5646   16.0139 C   0  0  0  0  0  0  0  0  0  0  0  0
   10.4192    7.3157   15.0955 C   0  0  0  0  0  0  0  0  0  0  0  0
   10.2489    6.4227   23.0218 N   0  0  0  0  0  0  0  0  0  0  0  0
    7.2472    8.0746   23.5050 C   0  0  0  0  0  0  0  0  0  0  0  0
    9.2051    6.9101   23.4604 C   0  0  0  0  0  0  0  0  0  0  0  0
   11.9646    6.0299   21.4251 C   0  0  0  0  0  0  0  0  0  0  0  0
  1  5  1  0
  1 13  1  0
  2 20  2  0
  2 28  1  0
  2 29  1  0
  3 19  4  0
  3 25  4  0
  4 23  4  0
  4 27  1  0
  4 30  4  0
  5 17  1  0
  6  8  1  0
  6 29  1  0
  7 24  4  0
  7 26  4  0
  8 28  1  0
  9 13  2  0
 10 18  1  0
 10 21  4  0
 10 30  4  0
 11 17  2  0
 12 18  1  0
 13 15  1  0
 14 24  1  0
 15 25  1  0
 16 28  2  0
 17 20  1  0
 19 24  4  0
 20 23  1  0
 21 22  4  0
 22 23  4  0
 25 26  4  0
 27 29  2  0
M  END
$$$$

 Created by Python create_sdf_string function

 30 33  0  0  0  0  0  0  0  0999 V2000
    8.3036    9.8571   18.4133 C   0  0  0  0  0  0  0  0  0  0  0  0
    8.3694    7.6612   22.6703 C   0  0  0  0  0  0  0  0  0  0  0  0
    8.4143    6.6863   16.2273 C   0  0  0  0  0  0  0  0  0  0  0  0
   10.7581    6.5674   21.7636 C   0  0  0  0  0  0  0  0  0  0  0  0
    8.4452    8.7960   19.2958 O   0  0  0  0  0  0  0  0  0  0  0  0
    8.7122    6.7842   24.8569 C   0  0  0  0  0  0  0  0  0  0  0  0
   10.3400    6.1726   14.3081 C   0  0  0  0  0  0  0  0  0  0  0  0
    7.4297    7.5873   24.8962 C   0  0  0  0  0  0  0  0  0  0  0  0
    8.1566   10.0536   16.0516 O   0  0  0  0  0  0  0  0  0  0  0  0
   12.4989    6.2074   20.1776 C   0  0  0  0  0  0  0  0  0  0  0  0
    6.9192    9.1053   20.9073 O   0  0  0  0  0  0  0  0  0  0  0  0
   14.3979    6.0729   18.7784 C   0  0  0  0  0  0  0  0  0  0  0  0
    8.6811    9.5354   16.9998 C   0  0  0  0  0  0  0  0  0  0  0  0
    9.2512    4.2713   13.7653 O   0  0  0  0  0  0  0  0  0  0  0  0
    9.6495    8.6317   16.8332 N   0  0  0  0  0  0  0  0  0  0  0  0
    6.2934    8.6988   23.1988 O   0  0  0  0  0  0  0  0  0  0  0  0
    7.9806    8.6543   20.5437 C   0  0  0  0  0  0  0  0  0  0  0  0
   13.7270    5.7144   19.8610 O   0  0  0  0  0  0  0  0  0  0  0  0
    8.3351    5.5235   15.4478 C   0  0  0  0  0  0  0  0  0  0  0  0
    8.7700    7.8434   21.3915 C   0  0  0  0  0  0  0  0  0  0  0  0
   11.7856    6.8851   19.2401 C   0  0  0  0  0  0  0  0  0  0  0  0
   10.5281    7.4276   19.5649 C   0  0  0  0  0  0  0  0  0  0  0  0
   10.0256    7.2907   20.8484 C   0  0  0  0  0  0  0  0  0  0  0  0
    9.3113    5.3049   14.4911 C   0  0  0  0  0  0  0  0  0  0  0  0
    9.4607    7.5646   16.0139 C   0  0  0  0  0  0  0  0  0  0  0  0
   10.4192    7.3157   15.0955 C   0  0  0  0  0  0  0  0  0  0  0  0
   10.2489    6.4227   23.0218 N   0  0  0  0  0  0  0  0  0  0  0  0
    7.2472    8.0746   23.5050 C   0  0  0  0  0  0  0  0  0  0  0  0
    9.2051    6.9101   23.4604 C   0  0  0  0  0  0  0  0  0  0  0  0
   11.9646    6.0299   21.4251 C   0  0  0  0  0  0  0  0  0  0  0  0
  1  5  1  0
  1 13  1  0
  2 20  2  0
  2 28  1  0
  2 29  1  0
  3 19  4  0
  3 25  4  0
  4 23  4  0
  4 27  1  0
  4 30  4  0
  5 17  1  0
  6  8  1  0
  6 29  1  0
  7 24  4  0
  7 26  4  0
  8 28  1  0
  9 13  2  0
 10 18  1  0
 10 21  4  0
 10 30  4  0
 11 17  2  0
 12 18  1  0
 13 15  1  0
 14 24  1  0
 15 25  1  0
 16 28  2  0
 17 20  1  0
 19 24  4  0
 20 23  1  0
 21 22  4  0
 22 23  4  0
 25 26  4  0
 27 29  2  0
M  END
$$$$

 Created by Python create_sdf_string function

 30 33  0  0  0  0  0  0  0  0999 V2000
    8.3036    9.8571   18.4133 C   0  0  0  0  0  0  0  0  0  0  0  0
    8.3694    7.6612   22.6703 C   0  0  0  0  0  0  0  0  0  0  0  0
    8.4143    6.6863   16.2273 C   0  0  0  0  0  0  0  0  0  0  0  0
   10.7581    6.5674   21.7636 C   0  0  0  0  0  0  0  0  0  0  0  0
    8.4452    8.7960   19.2958 O   0  0  0  0  0  0  0  0  0  0  0  0
    8.7122    6.7842   24.8569 C   0  0  0  0  0  0  0  0  0  0  0  0
   10.3400    6.1726   14.3081 C   0  0  0  0  0  0  0  0  0  0  0  0
    7.4297    7.5873   24.8962 C   0  0  0  0  0  0  0  0  0  0  0  0
    8.1566   10.0536   16.0516 O   0  0  0  0  0  0  0  0  0  0  0  0
   12.4989    6.2074   20.1776 C   0  0  0  0  0  0  0  0  0  0  0  0
    6.9192    9.1053   20.9073 O   0  0  0  0  0  0  0  0  0  0  0  0
   14.3979    6.0729   18.7784 C   0  0  0  0  0  0  0  0  0  0  0  0
    8.6811    9.5354   16.9998 C   0  0  0  0  0  0  0  0  0  0  0  0
    9.2512    4.2713   13.7653 O   0  0  0  0  0  0  0  0  0  0  0  0
    9.6495    8.6317   16.8332 N   0  0  0  0  0  0  0  0  0  0  0  0
    6.2934    8.6988   23.1988 O   0  0  0  0  0  0  0  0  0  0  0  0
    7.9806    8.6543   20.5437 C   0  0  0  0  0  0  0  0  0  0  0  0
   13.7270    5.7144   19.8610 O   0  0  0  0  0  0  0  0  0  0  0  0
    8.3351    5.5235   15.4478 C   0  0  0  0  0  0  0  0  0  0  0  0
    8.7700    7.8434   21.3915 C   0  0  0  0  0  0  0  0  0  0  0  0
   11.7856    6.8851   19.2401 C   0  0  0  0  0  0  0  0  0  0  0  0
   10.5281    7.4276   19.5649 C   0  0  0  0  0  0  0  0  0  0  0  0
   10.0256    7.2907   20.8484 C   0  0  0  0  0  0  0  0  0  0  0  0
    9.3113    5.3049   14.4911 C   0  0  0  0  0  0  0  0  0  0  0  0
    9.4607    7.5646   16.0139 C   0  0  0  0  0  0  0  0  0  0  0  0
   10.4192    7.3157   15.0955 C   0  0  0  0  0  0  0  0  0  0  0  0
   10.2489    6.4227   23.0218 N   0  0  0  0  0  0  0  0  0  0  0  0
    7.2472    8.0746   23.5050 C   0  0  0  0  0  0  0  0  0  0  0  0
    9.2051    6.9101   23.4604 C   0  0  0  0  0  0  0  0  0  0  0  0
   11.9646    6.0299   21.4251 C   0  0  0  0  0  0  0  0  0  0  0  0
  1  5  1  0
  1 13  1  0
  2 20  2  0
  2 28  1  0
  2 29  1  0
  3 19  4  0
  3 25  4  0
  4 23  4  0
  4 27  1  0
  4 30  4  0
  5 17  1  0
  6  8  1  0
  6 29  1  0
  7 24  4  0
  7 26  4  0
  8 28  1  0
  9 13  2  0
 10 18  1  0
 10 21  4  0
 10 30  4  0
 11 17  2  0
 12 18  1  0
 13 15  1  0
 14 24  1  0
 15 25  1  0
 16 28  2  0
 17 20  1  0
 19 24  4  0
 20 23  1  0
 21 22  4  0
 22 23  4  0
 25 26  4  0
 27 29  2  0
M  END
$$$$

 Created by Python create_sdf_string function

 30 33  0  0  0  0  0  0  0  0999 V2000
    8.3036    9.8571   18.4133 C   0  0  0  0  0  0  0  0  0  0  0  0
    8.3694    7.6612   22.6703 C   0  0  0  0  0  0  0  0  0  0  0  0
    8.4143    6.6863   16.2273 C   0  0  0  0  0  0  0  0  0  0  0  0
   10.7581    6.5674   21.7636 C   0  0  0  0  0  0  0  0  0  0  0  0
    8.4452    8.7960   19.2958 O   0  0  0  0  0  0  0  0  0  0  0  0
    8.7122    6.7842   24.8569 C   0  0  0  0  0  0  0  0  0  0  0  0
   10.3400    6.1726   14.3081 C   0  0  0  0  0  0  0  0  0  0  0  0
    7.4297    7.5873   24.8962 C   0  0  0  0  0  0  0  0  0  0  0  0
    8.1566   10.0536   16.0516 O   0  0  0  0  0  0  0  0  0  0  0  0
   12.4989    6.2074   20.1776 C   0  0  0  0  0  0  0  0  0  0  0  0
    6.9192    9.1053   20.9073 O   0  0  0  0  0  0  0  0  0  0  0  0
   14.3979    6.0729   18.7784 C   0  0  0  0  0  0  0  0  0  0  0  0
    8.6811    9.5354   16.9998 C   0  0  0  0  0  0  0  0  0  0  0  0
    9.2512    4.2713   13.7653 O   0  0  0  0  0  0  0  0  0  0  0  0
    9.6495    8.6317   16.8332 N   0  0  0  0  0  0  0  0  0  0  0  0
    6.2934    8.6988   23.1988 O   0  0  0  0  0  0  0  0  0  0  0  0
    7.9806    8.6543   20.5437 C   0  0  0  0  0  0  0  0  0  0  0  0
   13.7270    5.7144   19.8610 O   0  0  0  0  0  0  0  0  0  0  0  0
    8.3351    5.5235   15.4478 C   0  0  0  0  0  0  0  0  0  0  0  0
    8.7700    7.8434   21.3915 C   0  0  0  0  0  0  0  0  0  0  0  0
   11.7856    6.8851   19.2401 C   0  0  0  0  0  0  0  0  0  0  0  0
   10.5281    7.4276   19.5649 C   0  0  0  0  0  0  0  0  0  0  0  0
   10.0256    7.2907   20.8484 C   0  0  0  0  0  0  0  0  0  0  0  0
    9.3113    5.3049   14.4911 C   0  0  0  0  0  0  0  0  0  0  0  0
    9.4607    7.5646   16.0139 C   0  0  0  0  0  0  0  0  0  0  0  0
   10.4192    7.3157   15.0955 C   0  0  0  0  0  0  0  0  0  0  0  0
   10.2489    6.4227   23.0218 N   0  0  0  0  0  0  0  0  0  0  0  0
    7.2472    8.0746   23.5050 C   0  0  0  0  0  0  0  0  0  0  0  0
    9.2051    6.9101   23.4604 C   0  0  0  0  0  0  0  0  0  0  0  0
   11.9646    6.0299   21.4251 C   0  0  0  0  0  0  0  0  0  0  0  0
  1  5  1  0
  1 13  1  0
  2 20  2  0
  2 28  1  0
  2 29  1  0
  3 19  4  0
  3 25  4  0
  4 23  4  0
  4 27  1  0
  4 30  4  0
  5 17  1  0
  6  8  1  0
  6 29  1  0
  7 24  4  0
  7 26  4  0
  8 28  1  0
  9 13  2  0
 10 18  1  0
 10 21  4  0
 10 30  4  0
 11 17  2  0
 12 18  1  0
 13 15  1  0
 14 24  1  0
 15 25  1  0
 16 28  2  0
 17 20  1  0
 19 24  4  0
 20 23  1  0
 21 22  4  0
 22 23  4  0
 25 26  4  0
 27 29  2  0
M  END
$$$$

 Created by Python create_sdf_string function

 30 33  0  0  0  0  0  0  0  0999 V2000
    8.3036    9.8571   18.4133 C   0  0  0  0  0  0  0  0  0  0  0  0
    8.3694    7.6612   22.6703 C   0  0  0  0  0  0  0  0  0  0  0  0
    8.4143    6.6863   16.2273 C   0  0  0  0  0  0  0  0  0  0  0  0
   10.7581    6.5674   21.7636 C   0  0  0  0  0  0  0  0  0  0  0  0
    8.4452    8.7960   19.2958 O   0  0  0  0  0  0  0  0  0  0  0  0
    8.7122    6.7842   24.8569 C   0  0  0  0  0  0  0  0  0  0  0  0
   10.3400    6.1726   14.3081 C   0  0  0  0  0  0  0  0  0  0  0  0
    7.4297    7.5873   24.8962 C   0  0  0  0  0  0  0  0  0  0  0  0
    8.1566   10.0536   16.0516 O   0  0  0  0  0  0  0  0  0  0  0  0
   12.4989    6.2074   20.1776 C   0  0  0  0  0  0  0  0  0  0  0  0
    6.9192    9.1053   20.9073 O   0  0  0  0  0  0  0  0  0  0  0  0
   14.3979    6.0729   18.7784 C   0  0  0  0  0  0  0  0  0  0  0  0
    8.6811    9.5354   16.9998 C   0  0  0  0  0  0  0  0  0  0  0  0
    9.2512    4.2713   13.7653 O   0  0  0  0  0  0  0  0  0  0  0  0
    9.6495    8.6317   16.8332 N   0  0  0  0  0  0  0  0  0  0  0  0
    6.2934    8.6988   23.1988 O   0  0  0  0  0  0  0  0  0  0  0  0
    7.9806    8.6543   20.5437 C   0  0  0  0  0  0  0  0  0  0  0  0
   13.7270    5.7144   19.8610 O   0  0  0  0  0  0  0  0  0  0  0  0
    8.3351    5.5235   15.4478 C   0  0  0  0  0  0  0  0  0  0  0  0
    8.7700    7.8434   21.3915 C   0  0  0  0  0  0  0  0  0  0  0  0
   11.7856    6.8851   19.2401 C   0  0  0  0  0  0  0  0  0  0  0  0
   10.5281    7.4276   19.5649 C   0  0  0  0  0  0  0  0  0  0  0  0
   10.0256    7.2907   20.8484 C   0  0  0  0  0  0  0  0  0  0  0  0
    9.3113    5.3049   14.4911 C   0  0  0  0  0  0  0  0  0  0  0  0
    9.4607    7.5646   16.0139 C   0  0  0  0  0  0  0  0  0  0  0  0
   10.4192    7.3157   15.0955 C   0  0  0  0  0  0  0  0  0  0  0  0
   10.2489    6.4227   23.0218 N   0  0  0  0  0  0  0  0  0  0  0  0
    7.2472    8.0746   23.5050 C   0  0  0  0  0  0  0  0  0  0  0  0
    9.2051    6.9101   23.4604 C   0  0  0  0  0  0  0  0  0  0  0  0
   11.9646    6.0299   21.4251 C   0  0  0  0  0  0  0  0  0  0  0  0
  1  5  1  0
  1 13  1  0
  2 20  2  0
  2 28  1  0
  2 29  1  0
  3 19  4  0
  3 25  4  0
  4 23  4  0
  4 27  1  0
  4 30  4  0
  5 17  1  0
  6  8  1  0
  6 29  1  0
  7 24  4  0
  7 26  4  0
  8 28  1  0
  9 13  2  0
 10 18  1  0
 10 21  4  0
 10 30  4  0
 11 17  2  0
 12 18  1  0
 13 15  1  0
 14 24  1  0
 15 25  1  0
 16 28  2  0
 17 20  1  0
 19 24  4  0
 20 23  1  0
 21 22  4  0
 22 23  4  0
 25 26  4  0
 27 29  2  0
M  END
$$$$

 Created by Python create_sdf_string function

 30 33  0  0  0  0  0  0  0  0999 V2000
    8.3036    9.8571   18.4133 C   0  0  0  0  0  0  0  0  0  0  0  0
    8.3694    7.6612   22.6703 C   0  0  0  0  0  0  0  0  0  0  0  0
    8.4143    6.6863   16.2273 C   0  0  0  0  0  0  0  0  0  0  0  0
   10.7581    6.5674   21.7636 C   0  0  0  0  0  0  0  0  0  0  0  0
    8.4452    8.7960   19.2958 O   0  0  0  0  0  0  0  0  0  0  0  0
    8.7122    6.7842   24.8569 C   0  0  0  0  0  0  0  0  0  0  0  0
   10.3400    6.1726   14.3081 C   0  0  0  0  0  0  0  0  0  0  0  0
    7.4297    7.5873   24.8962 C   0  0  0  0  0  0  0  0  0  0  0  0
    8.1566   10.0536   16.0516 O   0  0  0  0  0  0  0  0  0  0  0  0
   12.4989    6.2074   20.1776 C   0  0  0  0  0  0  0  0  0  0  0  0
    6.9192    9.1053   20.9073 O   0  0  0  0  0  0  0  0  0  0  0  0
   14.3979    6.0729   18.7784 C   0  0  0  0  0  0  0  0  0  0  0  0
    8.6811    9.5354   16.9998 C   0  0  0  0  0  0  0  0  0  0  0  0
    9.2512    4.2713   13.7653 O   0  0  0  0  0  0  0  0  0  0  0  0
    9.6495    8.6317   16.8332 N   0  0  0  0  0  0  0  0  0  0  0  0
    6.2934    8.6988   23.1988 O   0  0  0  0  0  0  0  0  0  0  0  0
    7.9806    8.6543   20.5437 C   0  0  0  0  0  0  0  0  0  0  0  0
   13.7270    5.7144   19.8610 O   0  0  0  0  0  0  0  0  0  0  0  0
    8.3351    5.5235   15.4478 C   0  0  0  0  0  0  0  0  0  0  0  0
    8.7700    7.8434   21.3915 C   0  0  0  0  0  0  0  0  0  0  0  0
   11.7856    6.8851   19.2401 C   0  0  0  0  0  0  0  0  0  0  0  0
   10.5281    7.4276   19.5649 C   0  0  0  0  0  0  0  0  0  0  0  0
   10.0256    7.2907   20.8484 C   0  0  0  0  0  0  0  0  0  0  0  0
    9.3113    5.3049   14.4911 C   0  0  0  0  0  0  0  0  0  0  0  0
    9.4607    7.5646   16.0139 C   0  0  0  0  0  0  0  0  0  0  0  0
   10.4192    7.3157   15.0955 C   0  0  0  0  0  0  0  0  0  0  0  0
   10.2489    6.4227   23.0218 N   0  0  0  0  0  0  0  0  0  0  0  0
    7.2472    8.0746   23.5050 C   0  0  0  0  0  0  0  0  0  0  0  0
    9.2051    6.9101   23.4604 C   0  0  0  0  0  0  0  0  0  0  0  0
   11.9646    6.0299   21.4251 C   0  0  0  0  0  0  0  0  0  0  0  0
  1  5  1  0
  1 13  1  0
  2 20  2  0
  2 28  1  0
  2 29  1  0
  3 19  4  0
  3 25  4  0
  4 23  4  0
  4 27  1  0
  4 30  4  0
  5 17  1  0
  6  8  1  0
  6 29  1  0
  7 24  4  0
  7 26  4  0
  8 28  1  0
  9 13  2  0
 10 18  1  0
 10 21  4  0
 10 30  4  0
 11 17  2  0
 12 18  1  0
 13 15  1  0
 14 24  1  0
 15 25  1  0
 16 28  2  0
 17 20  1  0
 19 24  4  0
 20 23  1  0
 21 22  4  0
 22 23  4  0
 25 26  4  0
 27 29  2  0
M  END
$$$$

 Created by Python create_sdf_string function

 30 33  0  0  0  0  0  0  0  0999 V2000
    8.3036    9.8571   18.4133 C   0  0  0  0  0  0  0  0  0  0  0  0
    8.3694    7.6612   22.6703 C   0  0  0  0  0  0  0  0  0  0  0  0
    8.4143    6.6863   16.2273 C   0  0  0  0  0  0  0  0  0  0  0  0
   10.7581    6.5674   21.7636 C   0  0  0  0  0  0  0  0  0  0  0  0
    8.4452    8.7960   19.2958 O   0  0  0  0  0  0  0  0  0  0  0  0
    8.7122    6.7842   24.8569 C   0  0  0  0  0  0  0  0  0  0  0  0
   10.3400    6.1726   14.3081 C   0  0  0  0  0  0  0  0  0  0  0  0
    7.4297    7.5873   24.8962 C   0  0  0  0  0  0  0  0  0  0  0  0
    8.1566   10.0536   16.0516 O   0  0  0  0  0  0  0  0  0  0  0  0
   12.4989    6.2074   20.1776 C   0  0  0  0  0  0  0  0  0  0  0  0
    6.9192    9.1053   20.9073 O   0  0  0  0  0  0  0  0  0  0  0  0
   14.3979    6.0729   18.7784 C   0  0  0  0  0  0  0  0  0  0  0  0
    8.6811    9.5354   16.9998 C   0  0  0  0  0  0  0  0  0  0  0  0
    9.2512    4.2713   13.7653 O   0  0  0  0  0  0  0  0  0  0  0  0
    9.6495    8.6317   16.8332 N   0  0  0  0  0  0  0  0  0  0  0  0
    6.2934    8.6988   23.1988 O   0  0  0  0  0  0  0  0  0  0  0  0
    7.9806    8.6543   20.5437 C   0  0  0  0  0  0  0  0  0  0  0  0
   13.7270    5.7144   19.8610 O   0  0  0  0  0  0  0  0  0  0  0  0
    8.3351    5.5235   15.4478 C   0  0  0  0  0  0  0  0  0  0  0  0
    8.7700    7.8434   21.3915 C   0  0  0  0  0  0  0  0  0  0  0  0
   11.7856    6.8851   19.2401 C   0  0  0  0  0  0  0  0  0  0  0  0
   10.5281    7.4276   19.5649 C   0  0  0  0  0  0  0  0  0  0  0  0
   10.0256    7.2907   20.8484 C   0  0  0  0  0  0  0  0  0  0  0  0
    9.3113    5.3049   14.4911 C   0  0  0  0  0  0  0  0  0  0  0  0
    9.4607    7.5646   16.0139 C   0  0  0  0  0  0  0  0  0  0  0  0
   10.4192    7.3157   15.0955 C   0  0  0  0  0  0  0  0  0  0  0  0
   10.2489    6.4227   23.0218 N   0  0  0  0  0  0  0  0  0  0  0  0
    7.2472    8.0746   23.5050 C   0  0  0  0  0  0  0  0  0  0  0  0
    9.2051    6.9101   23.4604 C   0  0  0  0  0  0  0  0  0  0  0  0
   11.9646    6.0299   21.4251 C   0  0  0  0  0  0  0  0  0  0  0  0
  1  5  1  0
  1 13  1  0
  2 20  2  0
  2 28  1  0
  2 29  1  0
  3 19  4  0
  3 25  4  0
  4 23  4  0
  4 27  1  0
  4 30  4  0
  5 17  1  0
  6  8  1  0
  6 29  1  0
  7 24  4  0
  7 26  4  0
  8 28  1  0
  9 13  2  0
 10 18  1  0
 10 21  4  0
 10 30  4  0
 11 17  2  0
 12 18  1  0
 13 15  1  0
 14 24  1  0
 15 25  1  0
 16 28  2  0
 17 20  1  0
 19 24  4  0
 20 23  1  0
 21 22  4  0
 22 23  4  0
 25 26  4  0
 27 29  2  0
M  END
$$$$

 Created by Python create_sdf_string function

 30 33  0  0  0  0  0  0  0  0999 V2000
    8.3036    9.8571   18.4133 C   0  0  0  0  0  0  0  0  0  0  0  0
    8.3694    7.6612   22.6703 C   0  0  0  0  0  0  0  0  0  0  0  0
    8.4143    6.6863   16.2273 C   0  0  0  0  0  0  0  0  0  0  0  0
   10.7581    6.5674   21.7636 C   0  0  0  0  0  0  0  0  0  0  0  0
    8.4452    8.7960   19.2958 O   0  0  0  0  0  0  0  0  0  0  0  0
    8.7122    6.7842   24.8569 C   0  0  0  0  0  0  0  0  0  0  0  0
   10.3400    6.1726   14.3081 C   0  0  0  0  0  0  0  0  0  0  0  0
    7.4297    7.5873   24.8962 C   0  0  0  0  0  0  0  0  0  0  0  0
    8.1566   10.0536   16.0516 O   0  0  0  0  0  0  0  0  0  0  0  0
   12.4989    6.2074   20.1776 C   0  0  0  0  0  0  0  0  0  0  0  0
    6.9192    9.1053   20.9073 O   0  0  0  0  0  0  0  0  0  0  0  0
   14.3979    6.0729   18.7784 C   0  0  0  0  0  0  0  0  0  0  0  0
    8.6811    9.5354   16.9998 C   0  0  0  0  0  0  0  0  0  0  0  0
    9.2512    4.2713   13.7653 O   0  0  0  0  0  0  0  0  0  0  0  0
    9.6495    8.6317   16.8332 N   0  0  0  0  0  0  0  0  0  0  0  0
    6.2934    8.6988   23.1988 O   0  0  0  0  0  0  0  0  0  0  0  0
    7.9806    8.6543   20.5437 C   0  0  0  0  0  0  0  0  0  0  0  0
   13.7270    5.7144   19.8610 O   0  0  0  0  0  0  0  0  0  0  0  0
    8.3351    5.5235   15.4478 C   0  0  0  0  0  0  0  0  0  0  0  0
    8.7700    7.8434   21.3915 C   0  0  0  0  0  0  0  0  0  0  0  0
   11.7856    6.8851   19.2401 C   0  0  0  0  0  0  0  0  0  0  0  0
   10.5281    7.4276   19.5649 C   0  0  0  0  0  0  0  0  0  0  0  0
   10.0256    7.2907   20.8484 C   0  0  0  0  0  0  0  0  0  0  0  0
    9.3113    5.3049   14.4911 C   0  0  0  0  0  0  0  0  0  0  0  0
    9.4607    7.5646   16.0139 C   0  0  0  0  0  0  0  0  0  0  0  0
   10.4192    7.3157   15.0955 C   0  0  0  0  0  0  0  0  0  0  0  0
   10.2489    6.4227   23.0218 N   0  0  0  0  0  0  0  0  0  0  0  0
    7.2472    8.0746   23.5050 C   0  0  0  0  0  0  0  0  0  0  0  0
    9.2051    6.9101   23.4604 C   0  0  0  0  0  0  0  0  0  0  0  0
   11.9646    6.0299   21.4251 C   0  0  0  0  0  0  0  0  0  0  0  0
  1  5  1  0
  1 13  1  0
  2 20  2  0
  2 28  1  0
  2 29  1  0
  3 19  4  0
  3 25  4  0
  4 23  4  0
  4 27  1  0
  4 30  4  0
  5 17  1  0
  6  8  1  0
  6 29  1  0
  7 24  4  0
  7 26  4  0
  8 28  1  0
  9 13  2  0
 10 18  1  0
 10 21  4  0
 10 30  4  0
 11 17  2  0
 12 18  1  0
 13 15  1  0
 14 24  1  0
 15 25  1  0
 16 28  2  0
 17 20  1  0
 19 24  4  0
 20 23  1  0
 21 22  4  0
 22 23  4  0
 25 26  4  0
 27 29  2  0
M  END
$$$$

 Created by Python create_sdf_string function

 30 33  0  0  0  0  0  0  0  0999 V2000
    8.3036    9.8571   18.4133 C   0  0  0  0  0  0  0  0  0  0  0  0
    8.3694    7.6612   22.6703 C   0  0  0  0  0  0  0  0  0  0  0  0
    8.4143    6.6863   16.2273 C   0  0  0  0  0  0  0  0  0  0  0  0
   10.7581    6.5674   21.7636 C   0  0  0  0  0  0  0  0  0  0  0  0
    8.4452    8.7960   19.2958 O   0  0  0  0  0  0  0  0  0  0  0  0
    8.7122    6.7842   24.8569 C   0  0  0  0  0  0  0  0  0  0  0  0
   10.3400    6.1726   14.3081 C   0  0  0  0  0  0  0  0  0  0  0  0
    7.4297    7.5873   24.8962 C   0  0  0  0  0  0  0  0  0  0  0  0
    8.1566   10.0536   16.0516 O   0  0  0  0  0  0  0  0  0  0  0  0
   12.4989    6.2074   20.1776 C   0  0  0  0  0  0  0  0  0  0  0  0
    6.9192    9.1053   20.9073 O   0  0  0  0  0  0  0  0  0  0  0  0
   14.3979    6.0729   18.7784 C   0  0  0  0  0  0  0  0  0  0  0  0
    8.6811    9.5354   16.9998 C   0  0  0  0  0  0  0  0  0  0  0  0
    9.2512    4.2713   13.7653 O   0  0  0  0  0  0  0  0  0  0  0  0
    9.6495    8.6317   16.8332 N   0  0  0  0  0  0  0  0  0  0  0  0
    6.2934    8.6988   23.1988 O   0  0  0  0  0  0  0  0  0  0  0  0
    7.9806    8.6543   20.5437 C   0  0  0  0  0  0  0  0  0  0  0  0
   13.7270    5.7144   19.8610 O   0  0  0  0  0  0  0  0  0  0  0  0
    8.3351    5.5235   15.4478 C   0  0  0  0  0  0  0  0  0  0  0  0
    8.7700    7.8434   21.3915 C   0  0  0  0  0  0  0  0  0  0  0  0
   11.7856    6.8851   19.2401 C   0  0  0  0  0  0  0  0  0  0  0  0
   10.5281    7.4276   19.5649 C   0  0  0  0  0  0  0  0  0  0  0  0
   10.0256    7.2907   20.8484 C   0  0  0  0  0  0  0  0  0  0  0  0
    9.3113    5.3049   14.4911 C   0  0  0  0  0  0  0  0  0  0  0  0
    9.4607    7.5646   16.0139 C   0  0  0  0  0  0  0  0  0  0  0  0
   10.4192    7.3157   15.0955 C   0  0  0  0  0  0  0  0  0  0  0  0
   10.2489    6.4227   23.0218 N   0  0  0  0  0  0  0  0  0  0  0  0
    7.2472    8.0746   23.5050 C   0  0  0  0  0  0  0  0  0  0  0  0
    9.2051    6.9101   23.4604 C   0  0  0  0  0  0  0  0  0  0  0  0
   11.9646    6.0299   21.4251 C   0  0  0  0  0  0  0  0  0  0  0  0
  1  5  1  0
  1 13  1  0
  2 20  2  0
  2 28  1  0
  2 29  1  0
  3 19  4  0
  3 25  4  0
  4 23  4  0
  4 27  1  0
  4 30  4  0
  5 17  1  0
  6  8  1  0
  6 29  1  0
  7 24  4  0
  7 26  4  0
  8 28  1  0
  9 13  2  0
 10 18  1  0
 10 21  4  0
 10 30  4  0
 11 17  2  0
 12 18  1  0
 13 15  1  0
 14 24  1  0
 15 25  1  0
 16 28  2  0
 17 20  1  0
 19 24  4  0
 20 23  1  0
 21 22  4  0
 22 23  4  0
 25 26  4  0
 27 29  2  0
M  END
$$$$

 Created by Python create_sdf_string function

 30 33  0  0  0  0  0  0  0  0999 V2000
    8.3036    9.8571   18.4133 C   0  0  0  0  0  0  0  0  0  0  0  0
    8.3694    7.6612   22.6703 C   0  0  0  0  0  0  0  0  0  0  0  0
    8.4143    6.6863   16.2273 C   0  0  0  0  0  0  0  0  0  0  0  0
   10.7581    6.5674   21.7636 C   0  0  0  0  0  0  0  0  0  0  0  0
    8.4452    8.7960   19.2958 O   0  0  0  0  0  0  0  0  0  0  0  0
    8.7122    6.7842   24.8569 C   0  0  0  0  0  0  0  0  0  0  0  0
   10.3400    6.1726   14.3081 C   0  0  0  0  0  0  0  0  0  0  0  0
    7.4297    7.5873   24.8962 C   0  0  0  0  0  0  0  0  0  0  0  0
    8.1566   10.0536   16.0516 O   0  0  0  0  0  0  0  0  0  0  0  0
   12.4989    6.2074   20.1776 C   0  0  0  0  0  0  0  0  0  0  0  0
    6.9192    9.1053   20.9073 O   0  0  0  0  0  0  0  0  0  0  0  0
   14.3979    6.0729   18.7784 C   0  0  0  0  0  0  0  0  0  0  0  0
    8.6811    9.5354   16.9998 C   0  0  0  0  0  0  0  0  0  0  0  0
    9.2512    4.2713   13.7653 O   0  0  0  0  0  0  0  0  0  0  0  0
    9.6495    8.6317   16.8332 N   0  0  0  0  0  0  0  0  0  0  0  0
    6.2934    8.6988   23.1988 O   0  0  0  0  0  0  0  0  0  0  0  0
    7.9806    8.6543   20.5437 C   0  0  0  0  0  0  0  0  0  0  0  0
   13.7270    5.7144   19.8610 O   0  0  0  0  0  0  0  0  0  0  0  0
    8.3351    5.5235   15.4478 C   0  0  0  0  0  0  0  0  0  0  0  0
    8.7700    7.8434   21.3915 C   0  0  0  0  0  0  0  0  0  0  0  0
   11.7856    6.8851   19.2401 C   0  0  0  0  0  0  0  0  0  0  0  0
   10.5281    7.4276   19.5649 C   0  0  0  0  0  0  0  0  0  0  0  0
   10.0256    7.2907   20.8484 C   0  0  0  0  0  0  0  0  0  0  0  0
    9.3113    5.3049   14.4911 C   0  0  0  0  0  0  0  0  0  0  0  0
    9.4607    7.5646   16.0139 C   0  0  0  0  0  0  0  0  0  0  0  0
   10.4192    7.3157   15.0955 C   0  0  0  0  0  0  0  0  0  0  0  0
   10.2489    6.4227   23.0218 N   0  0  0  0  0  0  0  0  0  0  0  0
    7.2472    8.0746   23.5050 C   0  0  0  0  0  0  0  0  0  0  0  0
    9.2051    6.9101   23.4604 C   0  0  0  0  0  0  0  0  0  0  0  0
   11.9646    6.0299   21.4251 C   0  0  0  0  0  0  0  0  0  0  0  0
  1  5  1  0
  1 13  1  0
  2 20  2  0
  2 28  1  0
  2 29  1  0
  3 19  4  0
  3 25  4  0
  4 23  4  0
  4 27  1  0
  4 30  4  0
  5 17  1  0
  6  8  1  0
  6 29  1  0
  7 24  4  0
  7 26  4  0
  8 28  1  0
  9 13  2  0
 10 18  1  0
 10 21  4  0
 10 30  4  0
 11 17  2  0
 12 18  1  0
 13 15  1  0
 14 24  1  0
 15 25  1  0
 16 28  2  0
 17 20  1  0
 19 24  4  0
 20 23  1  0
 21 22  4  0
 22 23  4  0
 25 26  4  0
 27 29  2  0
M  END
$$$$

 Created by Python create_sdf_string function

 30 33  0  0  0  0  0  0  0  0999 V2000
    8.3036    9.8571   18.4133 C   0  0  0  0  0  0  0  0  0  0  0  0
    8.3694    7.6612   22.6703 C   0  0  0  0  0  0  0  0  0  0  0  0
    8.4143    6.6863   16.2273 C   0  0  0  0  0  0  0  0  0  0  0  0
   10.7581    6.5674   21.7636 C   0  0  0  0  0  0  0  0  0  0  0  0
    8.4452    8.7960   19.2958 O   0  0  0  0  0  0  0  0  0  0  0  0
    8.7122    6.7842   24.8569 C   0  0  0  0  0  0  0  0  0  0  0  0
   10.3400    6.1726   14.3081 C   0  0  0  0  0  0  0  0  0  0  0  0
    7.4297    7.5873   24.8962 C   0  0  0  0  0  0  0  0  0  0  0  0
    8.1566   10.0536   16.0516 O   0  0  0  0  0  0  0  0  0  0  0  0
   12.4989    6.2074   20.1776 C   0  0  0  0  0  0  0  0  0  0  0  0
    6.9192    9.1053   20.9073 O   0  0  0  0  0  0  0  0  0  0  0  0
   14.3979    6.0729   18.7784 C   0  0  0  0  0  0  0  0  0  0  0  0
    8.6811    9.5354   16.9998 C   0  0  0  0  0  0  0  0  0  0  0  0
    9.2512    4.2713   13.7653 O   0  0  0  0  0  0  0  0  0  0  0  0
    9.6495    8.6317   16.8332 N   0  0  0  0  0  0  0  0  0  0  0  0
    6.2934    8.6988   23.1988 O   0  0  0  0  0  0  0  0  0  0  0  0
    7.9806    8.6543   20.5437 C   0  0  0  0  0  0  0  0  0  0  0  0
   13.7270    5.7144   19.8610 O   0  0  0  0  0  0  0  0  0  0  0  0
    8.3351    5.5235   15.4478 C   0  0  0  0  0  0  0  0  0  0  0  0
    8.7700    7.8434   21.3915 C   0  0  0  0  0  0  0  0  0  0  0  0
   11.7856    6.8851   19.2401 C   0  0  0  0  0  0  0  0  0  0  0  0
   10.5281    7.4276   19.5649 C   0  0  0  0  0  0  0  0  0  0  0  0
   10.0256    7.2907   20.8484 C   0  0  0  0  0  0  0  0  0  0  0  0
    9.3113    5.3049   14.4911 C   0  0  0  0  0  0  0  0  0  0  0  0
    9.4607    7.5646   16.0139 C   0  0  0  0  0  0  0  0  0  0  0  0
   10.4192    7.3157   15.0955 C   0  0  0  0  0  0  0  0  0  0  0  0
   10.2489    6.4227   23.0218 N   0  0  0  0  0  0  0  0  0  0  0  0
    7.2472    8.0746   23.5050 C   0  0  0  0  0  0  0  0  0  0  0  0
    9.2051    6.9101   23.4604 C   0  0  0  0  0  0  0  0  0  0  0  0
   11.9646    6.0299   21.4251 C   0  0  0  0  0  0  0  0  0  0  0  0
  1  5  1  0
  1 13  1  0
  2 20  2  0
  2 28  1  0
  2 29  1  0
  3 19  4  0
  3 25  4  0
  4 23  4  0
  4 27  1  0
  4 30  4  0
  5 17  1  0
  6  8  1  0
  6 29  1  0
  7 24  4  0
  7 26  4  0
  8 28  1  0
  9 13  2  0
 10 18  1  0
 10 21  4  0
 10 30  4  0
 11 17  2  0
 12 18  1  0
 13 15  1  0
 14 24  1  0
 15 25  1  0
 16 28  2  0
 17 20  1  0
 19 24  4  0
 20 23  1  0
 21 22  4  0
 22 23  4  0
 25 26  4  0
 27 29  2  0
M  END
$$$$

 Created by Python create_sdf_string function

 30 33  0  0  0  0  0  0  0  0999 V2000
    8.3036    9.8571   18.4133 C   0  0  0  0  0  0  0  0  0  0  0  0
    8.3694    7.6612   22.6703 C   0  0  0  0  0  0  0  0  0  0  0  0
    8.4143    6.6863   16.2273 C   0  0  0  0  0  0  0  0  0  0  0  0
   10.7581    6.5674   21.7636 C   0  0  0  0  0  0  0  0  0  0  0  0
    8.4452    8.7960   19.2958 O   0  0  0  0  0  0  0  0  0  0  0  0
    8.7122    6.7842   24.8569 C   0  0  0  0  0  0  0  0  0  0  0  0
   10.3400    6.1726   14.3081 C   0  0  0  0  0  0  0  0  0  0  0  0
    7.4297    7.5873   24.8962 C   0  0  0  0  0  0  0  0  0  0  0  0
    8.1566   10.0536   16.0516 O   0  0  0  0  0  0  0  0  0  0  0  0
   12.4989    6.2074   20.1776 C   0  0  0  0  0  0  0  0  0  0  0  0
    6.9192    9.1053   20.9073 O   0  0  0  0  0  0  0  0  0  0  0  0
   14.3979    6.0729   18.7784 C   0  0  0  0  0  0  0  0  0  0  0  0
    8.6811    9.5354   16.9998 C   0  0  0  0  0  0  0  0  0  0  0  0
    9.2512    4.2713   13.7653 O   0  0  0  0  0  0  0  0  0  0  0  0
    9.6495    8.6317   16.8332 N   0  0  0  0  0  0  0  0  0  0  0  0
    6.2934    8.6988   23.1988 O   0  0  0  0  0  0  0  0  0  0  0  0
    7.9806    8.6543   20.5437 C   0  0  0  0  0  0  0  0  0  0  0  0
   13.7270    5.7144   19.8610 O   0  0  0  0  0  0  0  0  0  0  0  0
    8.3351    5.5235   15.4478 C   0  0  0  0  0  0  0  0  0  0  0  0
    8.7700    7.8434   21.3915 C   0  0  0  0  0  0  0  0  0  0  0  0
   11.7856    6.8851   19.2401 C   0  0  0  0  0  0  0  0  0  0  0  0
   10.5281    7.4276   19.5649 C   0  0  0  0  0  0  0  0  0  0  0  0
   10.0256    7.2907   20.8484 C   0  0  0  0  0  0  0  0  0  0  0  0
    9.3113    5.3049   14.4911 C   0  0  0  0  0  0  0  0  0  0  0  0
    9.4607    7.5646   16.0139 C   0  0  0  0  0  0  0  0  0  0  0  0
   10.4192    7.3157   15.0955 C   0  0  0  0  0  0  0  0  0  0  0  0
   10.2489    6.4227   23.0218 N   0  0  0  0  0  0  0  0  0  0  0  0
    7.2472    8.0746   23.5050 C   0  0  0  0  0  0  0  0  0  0  0  0
    9.2051    6.9101   23.4604 C   0  0  0  0  0  0  0  0  0  0  0  0
   11.9646    6.0299   21.4251 C   0  0  0  0  0  0  0  0  0  0  0  0
  1  5  1  0
  1 13  1  0
  2 20  2  0
  2 28  1  0
  2 29  1  0
  3 19  4  0
  3 25  4  0
  4 23  4  0
  4 27  1  0
  4 30  4  0
  5 17  1  0
  6  8  1  0
  6 29  1  0
  7 24  4  0
  7 26  4  0
  8 28  1  0
  9 13  2  0
 10 18  1  0
 10 21  4  0
 10 30  4  0
 11 17  2  0
 12 18  1  0
 13 15  1  0
 14 24  1  0
 15 25  1  0
 16 28  2  0
 17 20  1  0
 19 24  4  0
 20 23  1  0
 21 22  4  0
 22 23  4  0
 25 26  4  0
 27 29  2  0
M  END
$$$$

 Created by Python create_sdf_string function

 30 33  0  0  0  0  0  0  0  0999 V2000
    8.3036    9.8571   18.4133 C   0  0  0  0  0  0  0  0  0  0  0  0
    8.3694    7.6612   22.6703 C   0  0  0  0  0  0  0  0  0  0  0  0
    8.4143    6.6863   16.2273 C   0  0  0  0  0  0  0  0  0  0  0  0
   10.7581    6.5674   21.7636 C   0  0  0  0  0  0  0  0  0  0  0  0
    8.4452    8.7960   19.2958 O   0  0  0  0  0  0  0  0  0  0  0  0
    8.7122    6.7842   24.8569 C   0  0  0  0  0  0  0  0  0  0  0  0
   10.3400    6.1726   14.3081 C   0  0  0  0  0  0  0  0  0  0  0  0
    7.4297    7.5873   24.8962 C   0  0  0  0  0  0  0  0  0  0  0  0
    8.1566   10.0536   16.0516 O   0  0  0  0  0  0  0  0  0  0  0  0
   12.4989    6.2074   20.1776 C   0  0  0  0  0  0  0  0  0  0  0  0
    6.9192    9.1053   20.9073 O   0  0  0  0  0  0  0  0  0  0  0  0
   14.3979    6.0729   18.7784 C   0  0  0  0  0  0  0  0  0  0  0  0
    8.6811    9.5354   16.9998 C   0  0  0  0  0  0  0  0  0  0  0  0
    9.2512    4.2713   13.7653 O   0  0  0  0  0  0  0  0  0  0  0  0
    9.6495    8.6317   16.8332 N   0  0  0  0  0  0  0  0  0  0  0  0
    6.2934    8.6988   23.1988 O   0  0  0  0  0  0  0  0  0  0  0  0
    7.9806    8.6543   20.5437 C   0  0  0  0  0  0  0  0  0  0  0  0
   13.7270    5.7144   19.8610 O   0  0  0  0  0  0  0  0  0  0  0  0
    8.3351    5.5235   15.4478 C   0  0  0  0  0  0  0  0  0  0  0  0
    8.7700    7.8434   21.3915 C   0  0  0  0  0  0  0  0  0  0  0  0
   11.7856    6.8851   19.2401 C   0  0  0  0  0  0  0  0  0  0  0  0
   10.5281    7.4276   19.5649 C   0  0  0  0  0  0  0  0  0  0  0  0
   10.0256    7.2907   20.8484 C   0  0  0  0  0  0  0  0  0  0  0  0
    9.3113    5.3049   14.4911 C   0  0  0  0  0  0  0  0  0  0  0  0
    9.4607    7.5646   16.0139 C   0  0  0  0  0  0  0  0  0  0  0  0
   10.4192    7.3157   15.0955 C   0  0  0  0  0  0  0  0  0  0  0  0
   10.2489    6.4227   23.0218 N   0  0  0  0  0  0  0  0  0  0  0  0
    7.2472    8.0746   23.5050 C   0  0  0  0  0  0  0  0  0  0  0  0
    9.2051    6.9101   23.4604 C   0  0  0  0  0  0  0  0  0  0  0  0
   11.9646    6.0299   21.4251 C   0  0  0  0  0  0  0  0  0  0  0  0
  1  5  1  0
  1 13  1  0
  2 20  2  0
  2 28  1  0
  2 29  1  0
  3 19  4  0
  3 25  4  0
  4 23  4  0
  4 27  1  0
  4 30  4  0
  5 17  1  0
  6  8  1  0
  6 29  1  0
  7 24  4  0
  7 26  4  0
  8 28  1  0
  9 13  2  0
 10 18  1  0
 10 21  4  0
 10 30  4  0
 11 17  2  0
 12 18  1  0
 13 15  1  0
 14 24  1  0
 15 25  1  0
 16 28  2  0
 17 20  1  0
 19 24  4  0
 20 23  1  0
 21 22  4  0
 22 23  4  0
 25 26  4  0
 27 29  2  0
M  END
$$$$

 Created by Python create_sdf_string function

 30 33  0  0  0  0  0  0  0  0999 V2000
    8.3036    9.8571   18.4133 C   0  0  0  0  0  0  0  0  0  0  0  0
    8.3694    7.6612   22.6703 C   0  0  0  0  0  0  0  0  0  0  0  0
    8.4143    6.6863   16.2273 C   0  0  0  0  0  0  0  0  0  0  0  0
   10.7581    6.5674   21.7636 C   0  0  0  0  0  0  0  0  0  0  0  0
    8.4452    8.7960   19.2958 O   0  0  0  0  0  0  0  0  0  0  0  0
    8.7122    6.7842   24.8569 C   0  0  0  0  0  0  0  0  0  0  0  0
   10.3400    6.1726   14.3081 C   0  0  0  0  0  0  0  0  0  0  0  0
    7.4297    7.5873   24.8962 C   0  0  0  0  0  0  0  0  0  0  0  0
    8.1566   10.0536   16.0516 O   0  0  0  0  0  0  0  0  0  0  0  0
   12.4989    6.2074   20.1776 C   0  0  0  0  0  0  0  0  0  0  0  0
    6.9192    9.1053   20.9073 O   0  0  0  0  0  0  0  0  0  0  0  0
   14.3979    6.0729   18.7784 C   0  0  0  0  0  0  0  0  0  0  0  0
    8.6811    9.5354   16.9998 C   0  0  0  0  0  0  0  0  0  0  0  0
    9.2512    4.2713   13.7653 O   0  0  0  0  0  0  0  0  0  0  0  0
    9.6495    8.6317   16.8332 N   0  0  0  0  0  0  0  0  0  0  0  0
    6.2934    8.6988   23.1988 O   0  0  0  0  0  0  0  0  0  0  0  0
    7.9806    8.6543   20.5437 C   0  0  0  0  0  0  0  0  0  0  0  0
   13.7270    5.7144   19.8610 O   0  0  0  0  0  0  0  0  0  0  0  0
    8.3351    5.5235   15.4478 C   0  0  0  0  0  0  0  0  0  0  0  0
    8.7700    7.8434   21.3915 C   0  0  0  0  0  0  0  0  0  0  0  0
   11.7856    6.8851   19.2401 C   0  0  0  0  0  0  0  0  0  0  0  0
   10.5281    7.4276   19.5649 C   0  0  0  0  0  0  0  0  0  0  0  0
   10.0256    7.2907   20.8484 C   0  0  0  0  0  0  0  0  0  0  0  0
    9.3113    5.3049   14.4911 C   0  0  0  0  0  0  0  0  0  0  0  0
    9.4607    7.5646   16.0139 C   0  0  0  0  0  0  0  0  0  0  0  0
   10.4192    7.3157   15.0955 C   0  0  0  0  0  0  0  0  0  0  0  0
   10.2489    6.4227   23.0218 N   0  0  0  0  0  0  0  0  0  0  0  0
    7.2472    8.0746   23.5050 C   0  0  0  0  0  0  0  0  0  0  0  0
    9.2051    6.9101   23.4604 C   0  0  0  0  0  0  0  0  0  0  0  0
   11.9646    6.0299   21.4251 C   0  0  0  0  0  0  0  0  0  0  0  0
  1  5  1  0
  1 13  1  0
  2 20  2  0
  2 28  1  0
  2 29  1  0
  3 19  4  0
  3 25  4  0
  4 23  4  0
  4 27  1  0
  4 30  4  0
  5 17  1  0
  6  8  1  0
  6 29  1  0
  7 24  4  0
  7 26  4  0
  8 28  1  0
  9 13  2  0
 10 18  1  0
 10 21  4  0
 10 30  4  0
 11 17  2  0
 12 18  1  0
 13 15  1  0
 14 24  1  0
 15 25  1  0
 16 28  2  0
 17 20  1  0
 19 24  4  0
 20 23  1  0
 21 22  4  0
 22 23  4  0
 25 26  4  0
 27 29  2  0
M  END
$$$$

 Created by Python create_sdf_string function

 30 33  0  0  0  0  0  0  0  0999 V2000
    8.3036    9.8571   18.4133 C   0  0  0  0  0  0  0  0  0  0  0  0
    8.3694    7.6612   22.6703 C   0  0  0  0  0  0  0  0  0  0  0  0
    8.4143    6.6863   16.2273 C   0  0  0  0  0  0  0  0  0  0  0  0
   10.7581    6.5674   21.7636 C   0  0  0  0  0  0  0  0  0  0  0  0
    8.4452    8.7960   19.2958 O   0  0  0  0  0  0  0  0  0  0  0  0
    8.7122    6.7842   24.8569 C   0  0  0  0  0  0  0  0  0  0  0  0
   10.3400    6.1726   14.3081 C   0  0  0  0  0  0  0  0  0  0  0  0
    7.4297    7.5873   24.8962 C   0  0  0  0  0  0  0  0  0  0  0  0
    8.1566   10.0536   16.0516 O   0  0  0  0  0  0  0  0  0  0  0  0
   12.4989    6.2074   20.1776 C   0  0  0  0  0  0  0  0  0  0  0  0
    6.9192    9.1053   20.9073 O   0  0  0  0  0  0  0  0  0  0  0  0
   14.3979    6.0729   18.7784 C   0  0  0  0  0  0  0  0  0  0  0  0
    8.6811    9.5354   16.9998 C   0  0  0  0  0  0  0  0  0  0  0  0
    9.2512    4.2713   13.7653 O   0  0  0  0  0  0  0  0  0  0  0  0
    9.6495    8.6317   16.8332 N   0  0  0  0  0  0  0  0  0  0  0  0
    6.2934    8.6988   23.1988 O   0  0  0  0  0  0  0  0  0  0  0  0
    7.9806    8.6543   20.5437 C   0  0  0  0  0  0  0  0  0  0  0  0
   13.7270    5.7144   19.8610 O   0  0  0  0  0  0  0  0  0  0  0  0
    8.3351    5.5235   15.4478 C   0  0  0  0  0  0  0  0  0  0  0  0
    8.7700    7.8434   21.3915 C   0  0  0  0  0  0  0  0  0  0  0  0
   11.7856    6.8851   19.2401 C   0  0  0  0  0  0  0  0  0  0  0  0
   10.5281    7.4276   19.5649 C   0  0  0  0  0  0  0  0  0  0  0  0
   10.0256    7.2907   20.8484 C   0  0  0  0  0  0  0  0  0  0  0  0
    9.3113    5.3049   14.4911 C   0  0  0  0  0  0  0  0  0  0  0  0
    9.4607    7.5646   16.0139 C   0  0  0  0  0  0  0  0  0  0  0  0
   10.4192    7.3157   15.0955 C   0  0  0  0  0  0  0  0  0  0  0  0
   10.2489    6.4227   23.0218 N   0  0  0  0  0  0  0  0  0  0  0  0
    7.2472    8.0746   23.5050 C   0  0  0  0  0  0  0  0  0  0  0  0
    9.2051    6.9101   23.4604 C   0  0  0  0  0  0  0  0  0  0  0  0
   11.9646    6.0299   21.4251 C   0  0  0  0  0  0  0  0  0  0  0  0
  1  5  1  0
  1 13  1  0
  2 20  2  0
  2 28  1  0
  2 29  1  0
  3 19  4  0
  3 25  4  0
  4 23  4  0
  4 27  1  0
  4 30  4  0
  5 17  1  0
  6  8  1  0
  6 29  1  0
  7 24  4  0
  7 26  4  0
  8 28  1  0
  9 13  2  0
 10 18  1  0
 10 21  4  0
 10 30  4  0
 11 17  2  0
 12 18  1  0
 13 15  1  0
 14 24  1  0
 15 25  1  0
 16 28  2  0
 17 20  1  0
 19 24  4  0
 20 23  1  0
 21 22  4  0
 22 23  4  0
 25 26  4  0
 27 29  2  0
M  END
$$$$

 Created by Python create_sdf_string function

 30 33  0  0  0  0  0  0  0  0999 V2000
    8.3036    9.8571   18.4133 C   0  0  0  0  0  0  0  0  0  0  0  0
    8.3694    7.6612   22.6703 C   0  0  0  0  0  0  0  0  0  0  0  0
    8.4143    6.6863   16.2273 C   0  0  0  0  0  0  0  0  0  0  0  0
   10.7581    6.5674   21.7636 C   0  0  0  0  0  0  0  0  0  0  0  0
    8.4452    8.7960   19.2958 O   0  0  0  0  0  0  0  0  0  0  0  0
    8.7122    6.7842   24.8569 C   0  0  0  0  0  0  0  0  0  0  0  0
   10.3400    6.1726   14.3081 C   0  0  0  0  0  0  0  0  0  0  0  0
    7.4297    7.5873   24.8962 C   0  0  0  0  0  0  0  0  0  0  0  0
    8.1566   10.0536   16.0516 O   0  0  0  0  0  0  0  0  0  0  0  0
   12.4989    6.2074   20.1776 C   0  0  0  0  0  0  0  0  0  0  0  0
    6.9192    9.1053   20.9073 O   0  0  0  0  0  0  0  0  0  0  0  0
   14.3979    6.0729   18.7784 C   0  0  0  0  0  0  0  0  0  0  0  0
    8.6811    9.5354   16.9998 C   0  0  0  0  0  0  0  0  0  0  0  0
    9.2512    4.2713   13.7653 O   0  0  0  0  0  0  0  0  0  0  0  0
    9.6495    8.6317   16.8332 N   0  0  0  0  0  0  0  0  0  0  0  0
    6.2934    8.6988   23.1988 O   0  0  0  0  0  0  0  0  0  0  0  0
    7.9806    8.6543   20.5437 C   0  0  0  0  0  0  0  0  0  0  0  0
   13.7270    5.7144   19.8610 O   0  0  0  0  0  0  0  0  0  0  0  0
    8.3351    5.5235   15.4478 C   0  0  0  0  0  0  0  0  0  0  0  0
    8.7700    7.8434   21.3915 C   0  0  0  0  0  0  0  0  0  0  0  0
   11.7856    6.8851   19.2401 C   0  0  0  0  0  0  0  0  0  0  0  0
   10.5281    7.4276   19.5649 C   0  0  0  0  0  0  0  0  0  0  0  0
   10.0256    7.2907   20.8484 C   0  0  0  0  0  0  0  0  0  0  0  0
    9.3113    5.3049   14.4911 C   0  0  0  0  0  0  0  0  0  0  0  0
    9.4607    7.5646   16.0139 C   0  0  0  0  0  0  0  0  0  0  0  0
   10.4192    7.3157   15.0955 C   0  0  0  0  0  0  0  0  0  0  0  0
   10.2489    6.4227   23.0218 N   0  0  0  0  0  0  0  0  0  0  0  0
    7.2472    8.0746   23.5050 C   0  0  0  0  0  0  0  0  0  0  0  0
    9.2051    6.9101   23.4604 C   0  0  0  0  0  0  0  0  0  0  0  0
   11.9646    6.0299   21.4251 C   0  0  0  0  0  0  0  0  0  0  0  0
  1  5  1  0
  1 13  1  0
  2 20  2  0
  2 28  1  0
  2 29  1  0
  3 19  4  0
  3 25  4  0
  4 23  4  0
  4 27  1  0
  4 30  4  0
  5 17  1  0
  6  8  1  0
  6 29  1  0
  7 24  4  0
  7 26  4  0
  8 28  1  0
  9 13  2  0
 10 18  1  0
 10 21  4  0
 10 30  4  0
 11 17  2  0
 12 18  1  0
 13 15  1  0
 14 24  1  0
 15 25  1  0
 16 28  2  0
 17 20  1  0
 19 24  4  0
 20 23  1  0
 21 22  4  0
 22 23  4  0
 25 26  4  0
 27 29  2  0
M  END
$$$$

 Created by Python create_sdf_string function

 30 33  0  0  0  0  0  0  0  0999 V2000
    8.3036    9.8571   18.4133 C   0  0  0  0  0  0  0  0  0  0  0  0
    8.3694    7.6612   22.6703 C   0  0  0  0  0  0  0  0  0  0  0  0
    8.4143    6.6863   16.2273 C   0  0  0  0  0  0  0  0  0  0  0  0
   10.7581    6.5674   21.7636 C   0  0  0  0  0  0  0  0  0  0  0  0
    8.4452    8.7960   19.2958 O   0  0  0  0  0  0  0  0  0  0  0  0
    8.7122    6.7842   24.8569 C   0  0  0  0  0  0  0  0  0  0  0  0
   10.3400    6.1726   14.3081 C   0  0  0  0  0  0  0  0  0  0  0  0
    7.4297    7.5873   24.8962 C   0  0  0  0  0  0  0  0  0  0  0  0
    8.1566   10.0536   16.0516 O   0  0  0  0  0  0  0  0  0  0  0  0
   12.4989    6.2074   20.1776 C   0  0  0  0  0  0  0  0  0  0  0  0
    6.9192    9.1053   20.9073 O   0  0  0  0  0  0  0  0  0  0  0  0
   14.3979    6.0729   18.7784 C   0  0  0  0  0  0  0  0  0  0  0  0
    8.6811    9.5354   16.9998 C   0  0  0  0  0  0  0  0  0  0  0  0
    9.2512    4.2713   13.7653 O   0  0  0  0  0  0  0  0  0  0  0  0
    9.6495    8.6317   16.8332 N   0  0  0  0  0  0  0  0  0  0  0  0
    6.2934    8.6988   23.1988 O   0  0  0  0  0  0  0  0  0  0  0  0
    7.9806    8.6543   20.5437 C   0  0  0  0  0  0  0  0  0  0  0  0
   13.7270    5.7144   19.8610 O   0  0  0  0  0  0  0  0  0  0  0  0
    8.3351    5.5235   15.4478 C   0  0  0  0  0  0  0  0  0  0  0  0
    8.7700    7.8434   21.3915 C   0  0  0  0  0  0  0  0  0  0  0  0
   11.7856    6.8851   19.2401 C   0  0  0  0  0  0  0  0  0  0  0  0
   10.5281    7.4276   19.5649 C   0  0  0  0  0  0  0  0  0  0  0  0
   10.0256    7.2907   20.8484 C   0  0  0  0  0  0  0  0  0  0  0  0
    9.3113    5.3049   14.4911 C   0  0  0  0  0  0  0  0  0  0  0  0
    9.4607    7.5646   16.0139 C   0  0  0  0  0  0  0  0  0  0  0  0
   10.4192    7.3157   15.0955 C   0  0  0  0  0  0  0  0  0  0  0  0
   10.2489    6.4227   23.0218 N   0  0  0  0  0  0  0  0  0  0  0  0
    7.2472    8.0746   23.5050 C   0  0  0  0  0  0  0  0  0  0  0  0
    9.2051    6.9101   23.4604 C   0  0  0  0  0  0  0  0  0  0  0  0
   11.9646    6.0299   21.4251 C   0  0  0  0  0  0  0  0  0  0  0  0
  1  5  1  0
  1 13  1  0
  2 20  2  0
  2 28  1  0
  2 29  1  0
  3 19  4  0
  3 25  4  0
  4 23  4  0
  4 27  1  0
  4 30  4  0
  5 17  1  0
  6  8  1  0
  6 29  1  0
  7 24  4  0
  7 26  4  0
  8 28  1  0
  9 13  2  0
 10 18  1  0
 10 21  4  0
 10 30  4  0
 11 17  2  0
 12 18  1  0
 13 15  1  0
 14 24  1  0
 15 25  1  0
 16 28  2  0
 17 20  1  0
 19 24  4  0
 20 23  1  0
 21 22  4  0
 22 23  4  0
 25 26  4  0
 27 29  2  0
M  END
$$$$

 Created by Python create_sdf_string function

 30 33  0  0  0  0  0  0  0  0999 V2000
    8.3036    9.8571   18.4133 C   0  0  0  0  0  0  0  0  0  0  0  0
    8.3694    7.6612   22.6703 C   0  0  0  0  0  0  0  0  0  0  0  0
    8.4143    6.6863   16.2273 C   0  0  0  0  0  0  0  0  0  0  0  0
   10.7581    6.5674   21.7636 C   0  0  0  0  0  0  0  0  0  0  0  0
    8.4452    8.7960   19.2958 O   0  0  0  0  0  0  0  0  0  0  0  0
    8.7122    6.7842   24.8569 C   0  0  0  0  0  0  0  0  0  0  0  0
   10.3400    6.1726   14.3081 C   0  0  0  0  0  0  0  0  0  0  0  0
    7.4297    7.5873   24.8962 C   0  0  0  0  0  0  0  0  0  0  0  0
    8.1566   10.0536   16.0516 O   0  0  0  0  0  0  0  0  0  0  0  0
   12.4989    6.2074   20.1776 C   0  0  0  0  0  0  0  0  0  0  0  0
    6.9192    9.1053   20.9073 O   0  0  0  0  0  0  0  0  0  0  0  0
   14.3979    6.0729   18.7784 C   0  0  0  0  0  0  0  0  0  0  0  0
    8.6811    9.5354   16.9998 C   0  0  0  0  0  0  0  0  0  0  0  0
    9.2512    4.2713   13.7653 O   0  0  0  0  0  0  0  0  0  0  0  0
    9.6495    8.6317   16.8332 N   0  0  0  0  0  0  0  0  0  0  0  0
    6.2934    8.6988   23.1988 O   0  0  0  0  0  0  0  0  0  0  0  0
    7.9806    8.6543   20.5437 C   0  0  0  0  0  0  0  0  0  0  0  0
   13.7270    5.7144   19.8610 O   0  0  0  0  0  0  0  0  0  0  0  0
    8.3351    5.5235   15.4478 C   0  0  0  0  0  0  0  0  0  0  0  0
    8.7700    7.8434   21.3915 C   0  0  0  0  0  0  0  0  0  0  0  0
   11.7856    6.8851   19.2401 C   0  0  0  0  0  0  0  0  0  0  0  0
   10.5281    7.4276   19.5649 C   0  0  0  0  0  0  0  0  0  0  0  0
   10.0256    7.2907   20.8484 C   0  0  0  0  0  0  0  0  0  0  0  0
    9.3113    5.3049   14.4911 C   0  0  0  0  0  0  0  0  0  0  0  0
    9.4607    7.5646   16.0139 C   0  0  0  0  0  0  0  0  0  0  0  0
   10.4192    7.3157   15.0955 C   0  0  0  0  0  0  0  0  0  0  0  0
   10.2489    6.4227   23.0218 N   0  0  0  0  0  0  0  0  0  0  0  0
    7.2472    8.0746   23.5050 C   0  0  0  0  0  0  0  0  0  0  0  0
    9.2051    6.9101   23.4604 C   0  0  0  0  0  0  0  0  0  0  0  0
   11.9646    6.0299   21.4251 C   0  0  0  0  0  0  0  0  0  0  0  0
  1  5  1  0
  1 13  1  0
  2 20  2  0
  2 28  1  0
  2 29  1  0
  3 19  4  0
  3 25  4  0
  4 23  4  0
  4 27  1  0
  4 30  4  0
  5 17  1  0
  6  8  1  0
  6 29  1  0
  7 24  4  0
  7 26  4  0
  8 28  1  0
  9 13  2  0
 10 18  1  0
 10 21  4  0
 10 30  4  0
 11 17  2  0
 12 18  1  0
 13 15  1  0
 14 24  1  0
 15 25  1  0
 16 28  2  0
 17 20  1  0
 19 24  4  0
 20 23  1  0
 21 22  4  0
 22 23  4  0
 25 26  4  0
 27 29  2  0
M  END
$$$$

 Created by Python create_sdf_string function

 30 33  0  0  0  0  0  0  0  0999 V2000
    8.3036    9.8571   18.4133 C   0  0  0  0  0  0  0  0  0  0  0  0
    8.3694    7.6612   22.6703 C   0  0  0  0  0  0  0  0  0  0  0  0
    8.4143    6.6863   16.2273 C   0  0  0  0  0  0  0  0  0  0  0  0
   10.7581    6.5674   21.7636 C   0  0  0  0  0  0  0  0  0  0  0  0
    8.4452    8.7960   19.2958 O   0  0  0  0  0  0  0  0  0  0  0  0
    8.7122    6.7842   24.8569 C   0  0  0  0  0  0  0  0  0  0  0  0
   10.3400    6.1726   14.3081 C   0  0  0  0  0  0  0  0  0  0  0  0
    7.4297    7.5873   24.8962 C   0  0  0  0  0  0  0  0  0  0  0  0
    8.1566   10.0536   16.0516 O   0  0  0  0  0  0  0  0  0  0  0  0
   12.4989    6.2074   20.1776 C   0  0  0  0  0  0  0  0  0  0  0  0
    6.9192    9.1053   20.9073 O   0  0  0  0  0  0  0  0  0  0  0  0
   14.3979    6.0729   18.7784 C   0  0  0  0  0  0  0  0  0  0  0  0
    8.6811    9.5354   16.9998 C   0  0  0  0  0  0  0  0  0  0  0  0
    9.2512    4.2713   13.7653 O   0  0  0  0  0  0  0  0  0  0  0  0
    9.6495    8.6317   16.8332 N   0  0  0  0  0  0  0  0  0  0  0  0
    6.2934    8.6988   23.1988 O   0  0  0  0  0  0  0  0  0  0  0  0
    7.9806    8.6543   20.5437 C   0  0  0  0  0  0  0  0  0  0  0  0
   13.7270    5.7144   19.8610 O   0  0  0  0  0  0  0  0  0  0  0  0
    8.3351    5.5235   15.4478 C   0  0  0  0  0  0  0  0  0  0  0  0
    8.7700    7.8434   21.3915 C   0  0  0  0  0  0  0  0  0  0  0  0
   11.7856    6.8851   19.2401 C   0  0  0  0  0  0  0  0  0  0  0  0
   10.5281    7.4276   19.5649 C   0  0  0  0  0  0  0  0  0  0  0  0
   10.0256    7.2907   20.8484 C   0  0  0  0  0  0  0  0  0  0  0  0
    9.3113    5.3049   14.4911 C   0  0  0  0  0  0  0  0  0  0  0  0
    9.4607    7.5646   16.0139 C   0  0  0  0  0  0  0  0  0  0  0  0
   10.4192    7.3157   15.0955 C   0  0  0  0  0  0  0  0  0  0  0  0
   10.2489    6.4227   23.0218 N   0  0  0  0  0  0  0  0  0  0  0  0
    7.2472    8.0746   23.5050 C   0  0  0  0  0  0  0  0  0  0  0  0
    9.2051    6.9101   23.4604 C   0  0  0  0  0  0  0  0  0  0  0  0
   11.9646    6.0299   21.4251 C   0  0  0  0  0  0  0  0  0  0  0  0
  1  5  1  0
  1 13  1  0
  2 20  2  0
  2 28  1  0
  2 29  1  0
  3 19  4  0
  3 25  4  0
  4 23  4  0
  4 27  1  0
  4 30  4  0
  5 17  1  0
  6  8  1  0
  6 29  1  0
  7 24  4  0
  7 26  4  0
  8 28  1  0
  9 13  2  0
 10 18  1  0
 10 21  4  0
 10 30  4  0
 11 17  2  0
 12 18  1  0
 13 15  1  0
 14 24  1  0
 15 25  1  0
 16 28  2  0
 17 20  1  0
 19 24  4  0
 20 23  1  0
 21 22  4  0
 22 23  4  0
 25 26  4  0
 27 29  2  0
M  END
$$$$

 Created by Python create_sdf_string function

 30 33  0  0  0  0  0  0  0  0999 V2000
    8.3036    9.8571   18.4133 C   0  0  0  0  0  0  0  0  0  0  0  0
    8.3694    7.6612   22.6703 C   0  0  0  0  0  0  0  0  0  0  0  0
    8.4143    6.6863   16.2273 C   0  0  0  0  0  0  0  0  0  0  0  0
   10.7581    6.5674   21.7636 C   0  0  0  0  0  0  0  0  0  0  0  0
    8.4452    8.7960   19.2958 O   0  0  0  0  0  0  0  0  0  0  0  0
    8.7122    6.7842   24.8569 C   0  0  0  0  0  0  0  0  0  0  0  0
   10.3400    6.1726   14.3081 C   0  0  0  0  0  0  0  0  0  0  0  0
    7.4297    7.5873   24.8962 C   0  0  0  0  0  0  0  0  0  0  0  0
    8.1566   10.0536   16.0516 O   0  0  0  0  0  0  0  0  0  0  0  0
   12.4989    6.2074   20.1776 C   0  0  0  0  0  0  0  0  0  0  0  0
    6.9192    9.1053   20.9073 O   0  0  0  0  0  0  0  0  0  0  0  0
   14.3979    6.0729   18.7784 C   0  0  0  0  0  0  0  0  0  0  0  0
    8.6811    9.5354   16.9998 C   0  0  0  0  0  0  0  0  0  0  0  0
    9.2512    4.2713   13.7653 O   0  0  0  0  0  0  0  0  0  0  0  0
    9.6495    8.6317   16.8332 N   0  0  0  0  0  0  0  0  0  0  0  0
    6.2934    8.6988   23.1988 O   0  0  0  0  0  0  0  0  0  0  0  0
    7.9806    8.6543   20.5437 C   0  0  0  0  0  0  0  0  0  0  0  0
   13.7270    5.7144   19.8610 O   0  0  0  0  0  0  0  0  0  0  0  0
    8.3351    5.5235   15.4478 C   0  0  0  0  0  0  0  0  0  0  0  0
    8.7700    7.8434   21.3915 C   0  0  0  0  0  0  0  0  0  0  0  0
   11.7856    6.8851   19.2401 C   0  0  0  0  0  0  0  0  0  0  0  0
   10.5281    7.4276   19.5649 C   0  0  0  0  0  0  0  0  0  0  0  0
   10.0256    7.2907   20.8484 C   0  0  0  0  0  0  0  0  0  0  0  0
    9.3113    5.3049   14.4911 C   0  0  0  0  0  0  0  0  0  0  0  0
    9.4607    7.5646   16.0139 C   0  0  0  0  0  0  0  0  0  0  0  0
   10.4192    7.3157   15.0955 C   0  0  0  0  0  0  0  0  0  0  0  0
   10.2489    6.4227   23.0218 N   0  0  0  0  0  0  0  0  0  0  0  0
    7.2472    8.0746   23.5050 C   0  0  0  0  0  0  0  0  0  0  0  0
    9.2051    6.9101   23.4604 C   0  0  0  0  0  0  0  0  0  0  0  0
   11.9646    6.0299   21.4251 C   0  0  0  0  0  0  0  0  0  0  0  0
  1  5  1  0
  1 13  1  0
  2 20  2  0
  2 28  1  0
  2 29  1  0
  3 19  4  0
  3 25  4  0
  4 23  4  0
  4 27  1  0
  4 30  4  0
  5 17  1  0
  6  8  1  0
  6 29  1  0
  7 24  4  0
  7 26  4  0
  8 28  1  0
  9 13  2  0
 10 18  1  0
 10 21  4  0
 10 30  4  0
 11 17  2  0
 12 18  1  0
 13 15  1  0
 14 24  1  0
 15 25  1  0
 16 28  2  0
 17 20  1  0
 19 24  4  0
 20 23  1  0
 21 22  4  0
 22 23  4  0
 25 26  4  0
 27 29  2  0
M  END
$$$$

 Created by Python create_sdf_string function

 30 33  0  0  0  0  0  0  0  0999 V2000
    8.3036    9.8571   18.4133 C   0  0  0  0  0  0  0  0  0  0  0  0
    8.3694    7.6612   22.6703 C   0  0  0  0  0  0  0  0  0  0  0  0
    8.4143    6.6863   16.2273 C   0  0  0  0  0  0  0  0  0  0  0  0
   10.7581    6.5674   21.7636 C   0  0  0  0  0  0  0  0  0  0  0  0
    8.4452    8.7960   19.2958 O   0  0  0  0  0  0  0  0  0  0  0  0
    8.7122    6.7842   24.8569 C   0  0  0  0  0  0  0  0  0  0  0  0
   10.3400    6.1726   14.3081 C   0  0  0  0  0  0  0  0  0  0  0  0
    7.4297    7.5873   24.8962 C   0  0  0  0  0  0  0  0  0  0  0  0
    8.1566   10.0536   16.0516 O   0  0  0  0  0  0  0  0  0  0  0  0
   12.4989    6.2074   20.1776 C   0  0  0  0  0  0  0  0  0  0  0  0
    6.9192    9.1053   20.9073 O   0  0  0  0  0  0  0  0  0  0  0  0
   14.3979    6.0729   18.7784 C   0  0  0  0  0  0  0  0  0  0  0  0
    8.6811    9.5354   16.9998 C   0  0  0  0  0  0  0  0  0  0  0  0
    9.2512    4.2713   13.7653 O   0  0  0  0  0  0  0  0  0  0  0  0
    9.6495    8.6317   16.8332 N   0  0  0  0  0  0  0  0  0  0  0  0
    6.2934    8.6988   23.1988 O   0  0  0  0  0  0  0  0  0  0  0  0
    7.9806    8.6543   20.5437 C   0  0  0  0  0  0  0  0  0  0  0  0
   13.7270    5.7144   19.8610 O   0  0  0  0  0  0  0  0  0  0  0  0
    8.3351    5.5235   15.4478 C   0  0  0  0  0  0  0  0  0  0  0  0
    8.7700    7.8434   21.3915 C   0  0  0  0  0  0  0  0  0  0  0  0
   11.7856    6.8851   19.2401 C   0  0  0  0  0  0  0  0  0  0  0  0
   10.5281    7.4276   19.5649 C   0  0  0  0  0  0  0  0  0  0  0  0
   10.0256    7.2907   20.8484 C   0  0  0  0  0  0  0  0  0  0  0  0
    9.3113    5.3049   14.4911 C   0  0  0  0  0  0  0  0  0  0  0  0
    9.4607    7.5646   16.0139 C   0  0  0  0  0  0  0  0  0  0  0  0
   10.4192    7.3157   15.0955 C   0  0  0  0  0  0  0  0  0  0  0  0
   10.2489    6.4227   23.0218 N   0  0  0  0  0  0  0  0  0  0  0  0
    7.2472    8.0746   23.5050 C   0  0  0  0  0  0  0  0  0  0  0  0
    9.2051    6.9101   23.4604 C   0  0  0  0  0  0  0  0  0  0  0  0
   11.9646    6.0299   21.4251 C   0  0  0  0  0  0  0  0  0  0  0  0
  1  5  1  0
  1 13  1  0
  2 20  2  0
  2 28  1  0
  2 29  1  0
  3 19  4  0
  3 25  4  0
  4 23  4  0
  4 27  1  0
  4 30  4  0
  5 17  1  0
  6  8  1  0
  6 29  1  0
  7 24  4  0
  7 26  4  0
  8 28  1  0
  9 13  2  0
 10 18  1  0
 10 21  4  0
 10 30  4  0
 11 17  2  0
 12 18  1  0
 13 15  1  0
 14 24  1  0
 15 25  1  0
 16 28  2  0
 17 20  1  0
 19 24  4  0
 20 23  1  0
 21 22  4  0
 22 23  4  0
 25 26  4  0
 27 29  2  0
M  END
$$$$

 Created by Python create_sdf_string function

 30 33  0  0  0  0  0  0  0  0999 V2000
    8.3036    9.8571   18.4133 C   0  0  0  0  0  0  0  0  0  0  0  0
    8.3694    7.6612   22.6703 C   0  0  0  0  0  0  0  0  0  0  0  0
    8.4143    6.6863   16.2273 C   0  0  0  0  0  0  0  0  0  0  0  0
   10.7581    6.5674   21.7636 C   0  0  0  0  0  0  0  0  0  0  0  0
    8.4452    8.7960   19.2958 O   0  0  0  0  0  0  0  0  0  0  0  0
    8.7122    6.7842   24.8569 C   0  0  0  0  0  0  0  0  0  0  0  0
   10.3400    6.1726   14.3081 C   0  0  0  0  0  0  0  0  0  0  0  0
    7.4297    7.5873   24.8962 C   0  0  0  0  0  0  0  0  0  0  0  0
    8.1566   10.0536   16.0516 O   0  0  0  0  0  0  0  0  0  0  0  0
   12.4989    6.2074   20.1776 C   0  0  0  0  0  0  0  0  0  0  0  0
    6.9192    9.1053   20.9073 O   0  0  0  0  0  0  0  0  0  0  0  0
   14.3979    6.0729   18.7784 C   0  0  0  0  0  0  0  0  0  0  0  0
    8.6811    9.5354   16.9998 C   0  0  0  0  0  0  0  0  0  0  0  0
    9.2512    4.2713   13.7653 O   0  0  0  0  0  0  0  0  0  0  0  0
    9.6495    8.6317   16.8332 N   0  0  0  0  0  0  0  0  0  0  0  0
    6.2934    8.6988   23.1988 O   0  0  0  0  0  0  0  0  0  0  0  0
    7.9806    8.6543   20.5437 C   0  0  0  0  0  0  0  0  0  0  0  0
   13.7270    5.7144   19.8610 O   0  0  0  0  0  0  0  0  0  0  0  0
    8.3351    5.5235   15.4478 C   0  0  0  0  0  0  0  0  0  0  0  0
    8.7700    7.8434   21.3915 C   0  0  0  0  0  0  0  0  0  0  0  0
   11.7856    6.8851   19.2401 C   0  0  0  0  0  0  0  0  0  0  0  0
   10.5281    7.4276   19.5649 C   0  0  0  0  0  0  0  0  0  0  0  0
   10.0256    7.2907   20.8484 C   0  0  0  0  0  0  0  0  0  0  0  0
    9.3113    5.3049   14.4911 C   0  0  0  0  0  0  0  0  0  0  0  0
    9.4607    7.5646   16.0139 C   0  0  0  0  0  0  0  0  0  0  0  0
   10.4192    7.3157   15.0955 C   0  0  0  0  0  0  0  0  0  0  0  0
   10.2489    6.4227   23.0218 N   0  0  0  0  0  0  0  0  0  0  0  0
    7.2472    8.0746   23.5050 C   0  0  0  0  0  0  0  0  0  0  0  0
    9.2051    6.9101   23.4604 C   0  0  0  0  0  0  0  0  0  0  0  0
   11.9646    6.0299   21.4251 C   0  0  0  0  0  0  0  0  0  0  0  0
  1  5  1  0
  1 13  1  0
  2 20  2  0
  2 28  1  0
  2 29  1  0
  3 19  4  0
  3 25  4  0
  4 23  4  0
  4 27  1  0
  4 30  4  0
  5 17  1  0
  6  8  1  0
  6 29  1  0
  7 24  4  0
  7 26  4  0
  8 28  1  0
  9 13  2  0
 10 18  1  0
 10 21  4  0
 10 30  4  0
 11 17  2  0
 12 18  1  0
 13 15  1  0
 14 24  1  0
 15 25  1  0
 16 28  2  0
 17 20  1  0
 19 24  4  0
 20 23  1  0
 21 22  4  0
 22 23  4  0
 25 26  4  0
 27 29  2  0
M  END
$$$$

 Created by Python create_sdf_string function

 30 33  0  0  0  0  0  0  0  0999 V2000
    8.3036    9.8571   18.4133 C   0  0  0  0  0  0  0  0  0  0  0  0
    8.3694    7.6612   22.6703 C   0  0  0  0  0  0  0  0  0  0  0  0
    8.4143    6.6863   16.2273 C   0  0  0  0  0  0  0  0  0  0  0  0
   10.7581    6.5674   21.7636 C   0  0  0  0  0  0  0  0  0  0  0  0
    8.4452    8.7960   19.2958 O   0  0  0  0  0  0  0  0  0  0  0  0
    8.7122    6.7842   24.8569 C   0  0  0  0  0  0  0  0  0  0  0  0
   10.3400    6.1726   14.3081 C   0  0  0  0  0  0  0  0  0  0  0  0
    7.4297    7.5873   24.8962 C   0  0  0  0  0  0  0  0  0  0  0  0
    8.1566   10.0536   16.0516 O   0  0  0  0  0  0  0  0  0  0  0  0
   12.4989    6.2074   20.1776 C   0  0  0  0  0  0  0  0  0  0  0  0
    6.9192    9.1053   20.9073 O   0  0  0  0  0  0  0  0  0  0  0  0
   14.3979    6.0729   18.7784 C   0  0  0  0  0  0  0  0  0  0  0  0
    8.6811    9.5354   16.9998 C   0  0  0  0  0  0  0  0  0  0  0  0
    9.2512    4.2713   13.7653 O   0  0  0  0  0  0  0  0  0  0  0  0
    9.6495    8.6317   16.8332 N   0  0  0  0  0  0  0  0  0  0  0  0
    6.2934    8.6988   23.1988 O   0  0  0  0  0  0  0  0  0  0  0  0
    7.9806    8.6543   20.5437 C   0  0  0  0  0  0  0  0  0  0  0  0
   13.7270    5.7144   19.8610 O   0  0  0  0  0  0  0  0  0  0  0  0
    8.3351    5.5235   15.4478 C   0  0  0  0  0  0  0  0  0  0  0  0
    8.7700    7.8434   21.3915 C   0  0  0  0  0  0  0  0  0  0  0  0
   11.7856    6.8851   19.2401 C   0  0  0  0  0  0  0  0  0  0  0  0
   10.5281    7.4276   19.5649 C   0  0  0  0  0  0  0  0  0  0  0  0
   10.0256    7.2907   20.8484 C   0  0  0  0  0  0  0  0  0  0  0  0
    9.3113    5.3049   14.4911 C   0  0  0  0  0  0  0  0  0  0  0  0
    9.4607    7.5646   16.0139 C   0  0  0  0  0  0  0  0  0  0  0  0
   10.4192    7.3157   15.0955 C   0  0  0  0  0  0  0  0  0  0  0  0
   10.2489    6.4227   23.0218 N   0  0  0  0  0  0  0  0  0  0  0  0
    7.2472    8.0746   23.5050 C   0  0  0  0  0  0  0  0  0  0  0  0
    9.2051    6.9101   23.4604 C   0  0  0  0  0  0  0  0  0  0  0  0
   11.9646    6.0299   21.4251 C   0  0  0  0  0  0  0  0  0  0  0  0
  1  5  1  0
  1 13  1  0
  2 20  2  0
  2 28  1  0
  2 29  1  0
  3 19  4  0
  3 25  4  0
  4 23  4  0
  4 27  1  0
  4 30  4  0
  5 17  1  0
  6  8  1  0
  6 29  1  0
  7 24  4  0
  7 26  4  0
  8 28  1  0
  9 13  2  0
 10 18  1  0
 10 21  4  0
 10 30  4  0
 11 17  2  0
 12 18  1  0
 13 15  1  0
 14 24  1  0
 15 25  1  0
 16 28  2  0
 17 20  1  0
 19 24  4  0
 20 23  1  0
 21 22  4  0
 22 23  4  0
 25 26  4  0
 27 29  2  0
M  END
$$$$

 Created by Python create_sdf_string function

 30 33  0  0  0  0  0  0  0  0999 V2000
    8.3036    9.8571   18.4133 C   0  0  0  0  0  0  0  0  0  0  0  0
    8.3694    7.6612   22.6703 C   0  0  0  0  0  0  0  0  0  0  0  0
    8.4143    6.6863   16.2273 C   0  0  0  0  0  0  0  0  0  0  0  0
   10.7581    6.5674   21.7636 C   0  0  0  0  0  0  0  0  0  0  0  0
    8.4452    8.7960   19.2958 O   0  0  0  0  0  0  0  0  0  0  0  0
    8.7122    6.7842   24.8569 C   0  0  0  0  0  0  0  0  0  0  0  0
   10.3400    6.1726   14.3081 C   0  0  0  0  0  0  0  0  0  0  0  0
    7.4297    7.5873   24.8962 C   0  0  0  0  0  0  0  0  0  0  0  0
    8.1566   10.0536   16.0516 O   0  0  0  0  0  0  0  0  0  0  0  0
   12.4989    6.2074   20.1776 C   0  0  0  0  0  0  0  0  0  0  0  0
    6.9192    9.1053   20.9073 O   0  0  0  0  0  0  0  0  0  0  0  0
   14.3979    6.0729   18.7784 C   0  0  0  0  0  0  0  0  0  0  0  0
    8.6811    9.5354   16.9998 C   0  0  0  0  0  0  0  0  0  0  0  0
    9.2512    4.2713   13.7653 O   0  0  0  0  0  0  0  0  0  0  0  0
    9.6495    8.6317   16.8332 N   0  0  0  0  0  0  0  0  0  0  0  0
    6.2934    8.6988   23.1988 O   0  0  0  0  0  0  0  0  0  0  0  0
    7.9806    8.6543   20.5437 C   0  0  0  0  0  0  0  0  0  0  0  0
   13.7270    5.7144   19.8610 O   0  0  0  0  0  0  0  0  0  0  0  0
    8.3351    5.5235   15.4478 C   0  0  0  0  0  0  0  0  0  0  0  0
    8.7700    7.8434   21.3915 C   0  0  0  0  0  0  0  0  0  0  0  0
   11.7856    6.8851   19.2401 C   0  0  0  0  0  0  0  0  0  0  0  0
   10.5281    7.4276   19.5649 C   0  0  0  0  0  0  0  0  0  0  0  0
   10.0256    7.2907   20.8484 C   0  0  0  0  0  0  0  0  0  0  0  0
    9.3113    5.3049   14.4911 C   0  0  0  0  0  0  0  0  0  0  0  0
    9.4607    7.5646   16.0139 C   0  0  0  0  0  0  0  0  0  0  0  0
   10.4192    7.3157   15.0955 C   0  0  0  0  0  0  0  0  0  0  0  0
   10.2489    6.4227   23.0218 N   0  0  0  0  0  0  0  0  0  0  0  0
    7.2472    8.0746   23.5050 C   0  0  0  0  0  0  0  0  0  0  0  0
    9.2051    6.9101   23.4604 C   0  0  0  0  0  0  0  0  0  0  0  0
   11.9646    6.0299   21.4251 C   0  0  0  0  0  0  0  0  0  0  0  0
  1  5  1  0
  1 13  1  0
  2 20  2  0
  2 28  1  0
  2 29  1  0
  3 19  4  0
  3 25  4  0
  4 23  4  0
  4 27  1  0
  4 30  4  0
  5 17  1  0
  6  8  1  0
  6 29  1  0
  7 24  4  0
  7 26  4  0
  8 28  1  0
  9 13  2  0
 10 18  1  0
 10 21  4  0
 10 30  4  0
 11 17  2  0
 12 18  1  0
 13 15  1  0
 14 24  1  0
 15 25  1  0
 16 28  2  0
 17 20  1  0
 19 24  4  0
 20 23  1  0
 21 22  4  0
 22 23  4  0
 25 26  4  0
 27 29  2  0
M  END
$$$$

 Created by Python create_sdf_string function

 30 33  0  0  0  0  0  0  0  0999 V2000
    8.3036    9.8571   18.4133 C   0  0  0  0  0  0  0  0  0  0  0  0
    8.3694    7.6612   22.6703 C   0  0  0  0  0  0  0  0  0  0  0  0
    8.4143    6.6863   16.2273 C   0  0  0  0  0  0  0  0  0  0  0  0
   10.7581    6.5674   21.7636 C   0  0  0  0  0  0  0  0  0  0  0  0
    8.4452    8.7960   19.2958 O   0  0  0  0  0  0  0  0  0  0  0  0
    8.7122    6.7842   24.8569 C   0  0  0  0  0  0  0  0  0  0  0  0
   10.3400    6.1726   14.3081 C   0  0  0  0  0  0  0  0  0  0  0  0
    7.4297    7.5873   24.8962 C   0  0  0  0  0  0  0  0  0  0  0  0
    8.1566   10.0536   16.0516 O   0  0  0  0  0  0  0  0  0  0  0  0
   12.4989    6.2074   20.1776 C   0  0  0  0  0  0  0  0  0  0  0  0
    6.9192    9.1053   20.9073 O   0  0  0  0  0  0  0  0  0  0  0  0
   14.3979    6.0729   18.7784 C   0  0  0  0  0  0  0  0  0  0  0  0
    8.6811    9.5354   16.9998 C   0  0  0  0  0  0  0  0  0  0  0  0
    9.2512    4.2713   13.7653 O   0  0  0  0  0  0  0  0  0  0  0  0
    9.6495    8.6317   16.8332 N   0  0  0  0  0  0  0  0  0  0  0  0
    6.2934    8.6988   23.1988 O   0  0  0  0  0  0  0  0  0  0  0  0
    7.9806    8.6543   20.5437 C   0  0  0  0  0  0  0  0  0  0  0  0
   13.7270    5.7144   19.8610 O   0  0  0  0  0  0  0  0  0  0  0  0
    8.3351    5.5235   15.4478 C   0  0  0  0  0  0  0  0  0  0  0  0
    8.7700    7.8434   21.3915 C   0  0  0  0  0  0  0  0  0  0  0  0
   11.7856    6.8851   19.2401 C   0  0  0  0  0  0  0  0  0  0  0  0
   10.5281    7.4276   19.5649 C   0  0  0  0  0  0  0  0  0  0  0  0
   10.0256    7.2907   20.8484 C   0  0  0  0  0  0  0  0  0  0  0  0
    9.3113    5.3049   14.4911 C   0  0  0  0  0  0  0  0  0  0  0  0
    9.4607    7.5646   16.0139 C   0  0  0  0  0  0  0  0  0  0  0  0
   10.4192    7.3157   15.0955 C   0  0  0  0  0  0  0  0  0  0  0  0
   10.2489    6.4227   23.0218 N   0  0  0  0  0  0  0  0  0  0  0  0
    7.2472    8.0746   23.5050 C   0  0  0  0  0  0  0  0  0  0  0  0
    9.2051    6.9101   23.4604 C   0  0  0  0  0  0  0  0  0  0  0  0
   11.9646    6.0299   21.4251 C   0  0  0  0  0  0  0  0  0  0  0  0
  1  5  1  0
  1 13  1  0
  2 20  2  0
  2 28  1  0
  2 29  1  0
  3 19  4  0
  3 25  4  0
  4 23  4  0
  4 27  1  0
  4 30  4  0
  5 17  1  0
  6  8  1  0
  6 29  1  0
  7 24  4  0
  7 26  4  0
  8 28  1  0
  9 13  2  0
 10 18  1  0
 10 21  4  0
 10 30  4  0
 11 17  2  0
 12 18  1  0
 13 15  1  0
 14 24  1  0
 15 25  1  0
 16 28  2  0
 17 20  1  0
 19 24  4  0
 20 23  1  0
 21 22  4  0
 22 23  4  0
 25 26  4  0
 27 29  2  0
M  END
$$$$

 Created by Python create_sdf_string function

 30 33  0  0  0  0  0  0  0  0999 V2000
    8.3036    9.8571   18.4133 C   0  0  0  0  0  0  0  0  0  0  0  0
    8.3694    7.6612   22.6703 C   0  0  0  0  0  0  0  0  0  0  0  0
    8.4143    6.6863   16.2273 C   0  0  0  0  0  0  0  0  0  0  0  0
   10.7581    6.5674   21.7636 C   0  0  0  0  0  0  0  0  0  0  0  0
    8.4452    8.7960   19.2958 O   0  0  0  0  0  0  0  0  0  0  0  0
    8.7122    6.7842   24.8569 C   0  0  0  0  0  0  0  0  0  0  0  0
   10.3400    6.1726   14.3081 C   0  0  0  0  0  0  0  0  0  0  0  0
    7.4297    7.5873   24.8962 C   0  0  0  0  0  0  0  0  0  0  0  0
    8.1566   10.0536   16.0516 O   0  0  0  0  0  0  0  0  0  0  0  0
   12.4989    6.2074   20.1776 C   0  0  0  0  0  0  0  0  0  0  0  0
    6.9192    9.1053   20.9073 O   0  0  0  0  0  0  0  0  0  0  0  0
   14.3979    6.0729   18.7784 C   0  0  0  0  0  0  0  0  0  0  0  0
    8.6811    9.5354   16.9998 C   0  0  0  0  0  0  0  0  0  0  0  0
    9.2512    4.2713   13.7653 O   0  0  0  0  0  0  0  0  0  0  0  0
    9.6495    8.6317   16.8332 N   0  0  0  0  0  0  0  0  0  0  0  0
    6.2934    8.6988   23.1988 O   0  0  0  0  0  0  0  0  0  0  0  0
    7.9806    8.6543   20.5437 C   0  0  0  0  0  0  0  0  0  0  0  0
   13.7270    5.7144   19.8610 O   0  0  0  0  0  0  0  0  0  0  0  0
    8.3351    5.5235   15.4478 C   0  0  0  0  0  0  0  0  0  0  0  0
    8.7700    7.8434   21.3915 C   0  0  0  0  0  0  0  0  0  0  0  0
   11.7856    6.8851   19.2401 C   0  0  0  0  0  0  0  0  0  0  0  0
   10.5281    7.4276   19.5649 C   0  0  0  0  0  0  0  0  0  0  0  0
   10.0256    7.2907   20.8484 C   0  0  0  0  0  0  0  0  0  0  0  0
    9.3113    5.3049   14.4911 C   0  0  0  0  0  0  0  0  0  0  0  0
    9.4607    7.5646   16.0139 C   0  0  0  0  0  0  0  0  0  0  0  0
   10.4192    7.3157   15.0955 C   0  0  0  0  0  0  0  0  0  0  0  0
   10.2489    6.4227   23.0218 N   0  0  0  0  0  0  0  0  0  0  0  0
    7.2472    8.0746   23.5050 C   0  0  0  0  0  0  0  0  0  0  0  0
    9.2051    6.9101   23.4604 C   0  0  0  0  0  0  0  0  0  0  0  0
   11.9646    6.0299   21.4251 C   0  0  0  0  0  0  0  0  0  0  0  0
  1  5  1  0
  1 13  1  0
  2 20  2  0
  2 28  1  0
  2 29  1  0
  3 19  4  0
  3 25  4  0
  4 23  4  0
  4 27  1  0
  4 30  4  0
  5 17  1  0
  6  8  1  0
  6 29  1  0
  7 24  4  0
  7 26  4  0
  8 28  1  0
  9 13  2  0
 10 18  1  0
 10 21  4  0
 10 30  4  0
 11 17  2  0
 12 18  1  0
 13 15  1  0
 14 24  1  0
 15 25  1  0
 16 28  2  0
 17 20  1  0
 19 24  4  0
 20 23  1  0
 21 22  4  0
 22 23  4  0
 25 26  4  0
 27 29  2  0
M  END
$$$$

 Created by Python create_sdf_string function

 30 33  0  0  0  0  0  0  0  0999 V2000
    8.3036    9.8571   18.4133 C   0  0  0  0  0  0  0  0  0  0  0  0
    8.3694    7.6612   22.6703 C   0  0  0  0  0  0  0  0  0  0  0  0
    8.4143    6.6863   16.2273 C   0  0  0  0  0  0  0  0  0  0  0  0
   10.7581    6.5674   21.7636 C   0  0  0  0  0  0  0  0  0  0  0  0
    8.4452    8.7960   19.2958 O   0  0  0  0  0  0  0  0  0  0  0  0
    8.7122    6.7842   24.8569 C   0  0  0  0  0  0  0  0  0  0  0  0
   10.3400    6.1726   14.3081 C   0  0  0  0  0  0  0  0  0  0  0  0
    7.4297    7.5873   24.8962 C   0  0  0  0  0  0  0  0  0  0  0  0
    8.1566   10.0536   16.0516 O   0  0  0  0  0  0  0  0  0  0  0  0
   12.4989    6.2074   20.1776 C   0  0  0  0  0  0  0  0  0  0  0  0
    6.9192    9.1053   20.9073 O   0  0  0  0  0  0  0  0  0  0  0  0
   14.3979    6.0729   18.7784 C   0  0  0  0  0  0  0  0  0  0  0  0
    8.6811    9.5354   16.9998 C   0  0  0  0  0  0  0  0  0  0  0  0
    9.2512    4.2713   13.7653 O   0  0  0  0  0  0  0  0  0  0  0  0
    9.6495    8.6317   16.8332 N   0  0  0  0  0  0  0  0  0  0  0  0
    6.2934    8.6988   23.1988 O   0  0  0  0  0  0  0  0  0  0  0  0
    7.9806    8.6543   20.5437 C   0  0  0  0  0  0  0  0  0  0  0  0
   13.7270    5.7144   19.8610 O   0  0  0  0  0  0  0  0  0  0  0  0
    8.3351    5.5235   15.4478 C   0  0  0  0  0  0  0  0  0  0  0  0
    8.7700    7.8434   21.3915 C   0  0  0  0  0  0  0  0  0  0  0  0
   11.7856    6.8851   19.2401 C   0  0  0  0  0  0  0  0  0  0  0  0
   10.5281    7.4276   19.5649 C   0  0  0  0  0  0  0  0  0  0  0  0
   10.0256    7.2907   20.8484 C   0  0  0  0  0  0  0  0  0  0  0  0
    9.3113    5.3049   14.4911 C   0  0  0  0  0  0  0  0  0  0  0  0
    9.4607    7.5646   16.0139 C   0  0  0  0  0  0  0  0  0  0  0  0
   10.4192    7.3157   15.0955 C   0  0  0  0  0  0  0  0  0  0  0  0
   10.2489    6.4227   23.0218 N   0  0  0  0  0  0  0  0  0  0  0  0
    7.2472    8.0746   23.5050 C   0  0  0  0  0  0  0  0  0  0  0  0
    9.2051    6.9101   23.4604 C   0  0  0  0  0  0  0  0  0  0  0  0
   11.9646    6.0299   21.4251 C   0  0  0  0  0  0  0  0  0  0  0  0
  1  5  1  0
  1 13  1  0
  2 20  2  0
  2 28  1  0
  2 29  1  0
  3 19  4  0
  3 25  4  0
  4 23  4  0
  4 27  1  0
  4 30  4  0
  5 17  1  0
  6  8  1  0
  6 29  1  0
  7 24  4  0
  7 26  4  0
  8 28  1  0
  9 13  2  0
 10 18  1  0
 10 21  4  0
 10 30  4  0
 11 17  2  0
 12 18  1  0
 13 15  1  0
 14 24  1  0
 15 25  1  0
 16 28  2  0
 17 20  1  0
 19 24  4  0
 20 23  1  0
 21 22  4  0
 22 23  4  0
 25 26  4  0
 27 29  2  0
M  END
$$$$

 Created by Python create_sdf_string function

 30 33  0  0  0  0  0  0  0  0999 V2000
    8.3036    9.8571   18.4133 C   0  0  0  0  0  0  0  0  0  0  0  0
    8.3694    7.6612   22.6703 C   0  0  0  0  0  0  0  0  0  0  0  0
    8.4143    6.6863   16.2273 C   0  0  0  0  0  0  0  0  0  0  0  0
   10.7581    6.5674   21.7636 C   0  0  0  0  0  0  0  0  0  0  0  0
    8.4452    8.7960   19.2958 O   0  0  0  0  0  0  0  0  0  0  0  0
    8.7122    6.7842   24.8569 C   0  0  0  0  0  0  0  0  0  0  0  0
   10.3400    6.1726   14.3081 C   0  0  0  0  0  0  0  0  0  0  0  0
    7.4297    7.5873   24.8962 C   0  0  0  0  0  0  0  0  0  0  0  0
    8.1566   10.0536   16.0516 O   0  0  0  0  0  0  0  0  0  0  0  0
   12.4989    6.2074   20.1776 C   0  0  0  0  0  0  0  0  0  0  0  0
    6.9192    9.1053   20.9073 O   0  0  0  0  0  0  0  0  0  0  0  0
   14.3979    6.0729   18.7784 C   0  0  0  0  0  0  0  0  0  0  0  0
    8.6811    9.5354   16.9998 C   0  0  0  0  0  0  0  0  0  0  0  0
    9.2512    4.2713   13.7653 O   0  0  0  0  0  0  0  0  0  0  0  0
    9.6495    8.6317   16.8332 N   0  0  0  0  0  0  0  0  0  0  0  0
    6.2934    8.6988   23.1988 O   0  0  0  0  0  0  0  0  0  0  0  0
    7.9806    8.6543   20.5437 C   0  0  0  0  0  0  0  0  0  0  0  0
   13.7270    5.7144   19.8610 O   0  0  0  0  0  0  0  0  0  0  0  0
    8.3351    5.5235   15.4478 C   0  0  0  0  0  0  0  0  0  0  0  0
    8.7700    7.8434   21.3915 C   0  0  0  0  0  0  0  0  0  0  0  0
   11.7856    6.8851   19.2401 C   0  0  0  0  0  0  0  0  0  0  0  0
   10.5281    7.4276   19.5649 C   0  0  0  0  0  0  0  0  0  0  0  0
   10.0256    7.2907   20.8484 C   0  0  0  0  0  0  0  0  0  0  0  0
    9.3113    5.3049   14.4911 C   0  0  0  0  0  0  0  0  0  0  0  0
    9.4607    7.5646   16.0139 C   0  0  0  0  0  0  0  0  0  0  0  0
   10.4192    7.3157   15.0955 C   0  0  0  0  0  0  0  0  0  0  0  0
   10.2489    6.4227   23.0218 N   0  0  0  0  0  0  0  0  0  0  0  0
    7.2472    8.0746   23.5050 C   0  0  0  0  0  0  0  0  0  0  0  0
    9.2051    6.9101   23.4604 C   0  0  0  0  0  0  0  0  0  0  0  0
   11.9646    6.0299   21.4251 C   0  0  0  0  0  0  0  0  0  0  0  0
  1  5  1  0
  1 13  1  0
  2 20  2  0
  2 28  1  0
  2 29  1  0
  3 19  4  0
  3 25  4  0
  4 23  4  0
  4 27  1  0
  4 30  4  0
  5 17  1  0
  6  8  1  0
  6 29  1  0
  7 24  4  0
  7 26  4  0
  8 28  1  0
  9 13  2  0
 10 18  1  0
 10 21  4  0
 10 30  4  0
 11 17  2  0
 12 18  1  0
 13 15  1  0
 14 24  1  0
 15 25  1  0
 16 28  2  0
 17 20  1  0
 19 24  4  0
 20 23  1  0
 21 22  4  0
 22 23  4  0
 25 26  4  0
 27 29  2  0
M  END
$$$$

 Created by Python create_sdf_string function

 30 33  0  0  0  0  0  0  0  0999 V2000
    8.3036    9.8571   18.4133 C   0  0  0  0  0  0  0  0  0  0  0  0
    8.3694    7.6612   22.6703 C   0  0  0  0  0  0  0  0  0  0  0  0
    8.4143    6.6863   16.2273 C   0  0  0  0  0  0  0  0  0  0  0  0
   10.7581    6.5674   21.7636 C   0  0  0  0  0  0  0  0  0  0  0  0
    8.4452    8.7960   19.2958 O   0  0  0  0  0  0  0  0  0  0  0  0
    8.7122    6.7842   24.8569 C   0  0  0  0  0  0  0  0  0  0  0  0
   10.3400    6.1726   14.3081 C   0  0  0  0  0  0  0  0  0  0  0  0
    7.4297    7.5873   24.8962 C   0  0  0  0  0  0  0  0  0  0  0  0
    8.1566   10.0536   16.0516 O   0  0  0  0  0  0  0  0  0  0  0  0
   12.4989    6.2074   20.1776 C   0  0  0  0  0  0  0  0  0  0  0  0
    6.9192    9.1053   20.9073 O   0  0  0  0  0  0  0  0  0  0  0  0
   14.3979    6.0729   18.7784 C   0  0  0  0  0  0  0  0  0  0  0  0
    8.6811    9.5354   16.9998 C   0  0  0  0  0  0  0  0  0  0  0  0
    9.2512    4.2713   13.7653 O   0  0  0  0  0  0  0  0  0  0  0  0
    9.6495    8.6317   16.8332 N   0  0  0  0  0  0  0  0  0  0  0  0
    6.2934    8.6988   23.1988 O   0  0  0  0  0  0  0  0  0  0  0  0
    7.9806    8.6543   20.5437 C   0  0  0  0  0  0  0  0  0  0  0  0
   13.7270    5.7144   19.8610 O   0  0  0  0  0  0  0  0  0  0  0  0
    8.3351    5.5235   15.4478 C   0  0  0  0  0  0  0  0  0  0  0  0
    8.7700    7.8434   21.3915 C   0  0  0  0  0  0  0  0  0  0  0  0
   11.7856    6.8851   19.2401 C   0  0  0  0  0  0  0  0  0  0  0  0
   10.5281    7.4276   19.5649 C   0  0  0  0  0  0  0  0  0  0  0  0
   10.0256    7.2907   20.8484 C   0  0  0  0  0  0  0  0  0  0  0  0
    9.3113    5.3049   14.4911 C   0  0  0  0  0  0  0  0  0  0  0  0
    9.4607    7.5646   16.0139 C   0  0  0  0  0  0  0  0  0  0  0  0
   10.4192    7.3157   15.0955 C   0  0  0  0  0  0  0  0  0  0  0  0
   10.2489    6.4227   23.0218 N   0  0  0  0  0  0  0  0  0  0  0  0
    7.2472    8.0746   23.5050 C   0  0  0  0  0  0  0  0  0  0  0  0
    9.2051    6.9101   23.4604 C   0  0  0  0  0  0  0  0  0  0  0  0
   11.9646    6.0299   21.4251 C   0  0  0  0  0  0  0  0  0  0  0  0
  1  5  1  0
  1 13  1  0
  2 20  2  0
  2 28  1  0
  2 29  1  0
  3 19  4  0
  3 25  4  0
  4 23  4  0
  4 27  1  0
  4 30  4  0
  5 17  1  0
  6  8  1  0
  6 29  1  0
  7 24  4  0
  7 26  4  0
  8 28  1  0
  9 13  2  0
 10 18  1  0
 10 21  4  0
 10 30  4  0
 11 17  2  0
 12 18  1  0
 13 15  1  0
 14 24  1  0
 15 25  1  0
 16 28  2  0
 17 20  1  0
 19 24  4  0
 20 23  1  0
 21 22  4  0
 22 23  4  0
 25 26  4  0
 27 29  2  0
M  END
$$$$

 Created by Python create_sdf_string function

 30 33  0  0  0  0  0  0  0  0999 V2000
    8.3036    9.8571   18.4133 C   0  0  0  0  0  0  0  0  0  0  0  0
    8.3694    7.6612   22.6703 C   0  0  0  0  0  0  0  0  0  0  0  0
    8.4143    6.6863   16.2273 C   0  0  0  0  0  0  0  0  0  0  0  0
   10.7581    6.5674   21.7636 C   0  0  0  0  0  0  0  0  0  0  0  0
    8.4452    8.7960   19.2958 O   0  0  0  0  0  0  0  0  0  0  0  0
    8.7122    6.7842   24.8569 C   0  0  0  0  0  0  0  0  0  0  0  0
   10.3400    6.1726   14.3081 C   0  0  0  0  0  0  0  0  0  0  0  0
    7.4297    7.5873   24.8962 C   0  0  0  0  0  0  0  0  0  0  0  0
    8.1566   10.0536   16.0516 O   0  0  0  0  0  0  0  0  0  0  0  0
   12.4989    6.2074   20.1776 C   0  0  0  0  0  0  0  0  0  0  0  0
    6.9192    9.1053   20.9073 O   0  0  0  0  0  0  0  0  0  0  0  0
   14.3979    6.0729   18.7784 C   0  0  0  0  0  0  0  0  0  0  0  0
    8.6811    9.5354   16.9998 C   0  0  0  0  0  0  0  0  0  0  0  0
    9.2512    4.2713   13.7653 O   0  0  0  0  0  0  0  0  0  0  0  0
    9.6495    8.6317   16.8332 N   0  0  0  0  0  0  0  0  0  0  0  0
    6.2934    8.6988   23.1988 O   0  0  0  0  0  0  0  0  0  0  0  0
    7.9806    8.6543   20.5437 C   0  0  0  0  0  0  0  0  0  0  0  0
   13.7270    5.7144   19.8610 O   0  0  0  0  0  0  0  0  0  0  0  0
    8.3351    5.5235   15.4478 C   0  0  0  0  0  0  0  0  0  0  0  0
    8.7700    7.8434   21.3915 C   0  0  0  0  0  0  0  0  0  0  0  0
   11.7856    6.8851   19.2401 C   0  0  0  0  0  0  0  0  0  0  0  0
   10.5281    7.4276   19.5649 C   0  0  0  0  0  0  0  0  0  0  0  0
   10.0256    7.2907   20.8484 C   0  0  0  0  0  0  0  0  0  0  0  0
    9.3113    5.3049   14.4911 C   0  0  0  0  0  0  0  0  0  0  0  0
    9.4607    7.5646   16.0139 C   0  0  0  0  0  0  0  0  0  0  0  0
   10.4192    7.3157   15.0955 C   0  0  0  0  0  0  0  0  0  0  0  0
   10.2489    6.4227   23.0218 N   0  0  0  0  0  0  0  0  0  0  0  0
    7.2472    8.0746   23.5050 C   0  0  0  0  0  0  0  0  0  0  0  0
    9.2051    6.9101   23.4604 C   0  0  0  0  0  0  0  0  0  0  0  0
   11.9646    6.0299   21.4251 C   0  0  0  0  0  0  0  0  0  0  0  0
  1  5  1  0
  1 13  1  0
  2 20  2  0
  2 28  1  0
  2 29  1  0
  3 19  4  0
  3 25  4  0
  4 23  4  0
  4 27  1  0
  4 30  4  0
  5 17  1  0
  6  8  1  0
  6 29  1  0
  7 24  4  0
  7 26  4  0
  8 28  1  0
  9 13  2  0
 10 18  1  0
 10 21  4  0
 10 30  4  0
 11 17  2  0
 12 18  1  0
 13 15  1  0
 14 24  1  0
 15 25  1  0
 16 28  2  0
 17 20  1  0
 19 24  4  0
 20 23  1  0
 21 22  4  0
 22 23  4  0
 25 26  4  0
 27 29  2  0
M  END
$$$$

 Created by Python create_sdf_string function

 30 33  0  0  0  0  0  0  0  0999 V2000
    8.3036    9.8571   18.4133 C   0  0  0  0  0  0  0  0  0  0  0  0
    8.3694    7.6612   22.6703 C   0  0  0  0  0  0  0  0  0  0  0  0
    8.4143    6.6863   16.2273 C   0  0  0  0  0  0  0  0  0  0  0  0
   10.7581    6.5674   21.7636 C   0  0  0  0  0  0  0  0  0  0  0  0
    8.4452    8.7960   19.2958 O   0  0  0  0  0  0  0  0  0  0  0  0
    8.7122    6.7842   24.8569 C   0  0  0  0  0  0  0  0  0  0  0  0
   10.3400    6.1726   14.3081 C   0  0  0  0  0  0  0  0  0  0  0  0
    7.4297    7.5873   24.8962 C   0  0  0  0  0  0  0  0  0  0  0  0
    8.1566   10.0536   16.0516 O   0  0  0  0  0  0  0  0  0  0  0  0
   12.4989    6.2074   20.1776 C   0  0  0  0  0  0  0  0  0  0  0  0
    6.9192    9.1053   20.9073 O   0  0  0  0  0  0  0  0  0  0  0  0
   14.3979    6.0729   18.7784 C   0  0  0  0  0  0  0  0  0  0  0  0
    8.6811    9.5354   16.9998 C   0  0  0  0  0  0  0  0  0  0  0  0
    9.2512    4.2713   13.7653 O   0  0  0  0  0  0  0  0  0  0  0  0
    9.6495    8.6317   16.8332 N   0  0  0  0  0  0  0  0  0  0  0  0
    6.2934    8.6988   23.1988 O   0  0  0  0  0  0  0  0  0  0  0  0
    7.9806    8.6543   20.5437 C   0  0  0  0  0  0  0  0  0  0  0  0
   13.7270    5.7144   19.8610 O   0  0  0  0  0  0  0  0  0  0  0  0
    8.3351    5.5235   15.4478 C   0  0  0  0  0  0  0  0  0  0  0  0
    8.7700    7.8434   21.3915 C   0  0  0  0  0  0  0  0  0  0  0  0
   11.7856    6.8851   19.2401 C   0  0  0  0  0  0  0  0  0  0  0  0
   10.5281    7.4276   19.5649 C   0  0  0  0  0  0  0  0  0  0  0  0
   10.0256    7.2907   20.8484 C   0  0  0  0  0  0  0  0  0  0  0  0
    9.3113    5.3049   14.4911 C   0  0  0  0  0  0  0  0  0  0  0  0
    9.4607    7.5646   16.0139 C   0  0  0  0  0  0  0  0  0  0  0  0
   10.4192    7.3157   15.0955 C   0  0  0  0  0  0  0  0  0  0  0  0
   10.2489    6.4227   23.0218 N   0  0  0  0  0  0  0  0  0  0  0  0
    7.2472    8.0746   23.5050 C   0  0  0  0  0  0  0  0  0  0  0  0
    9.2051    6.9101   23.4604 C   0  0  0  0  0  0  0  0  0  0  0  0
   11.9646    6.0299   21.4251 C   0  0  0  0  0  0  0  0  0  0  0  0
  1  5  1  0
  1 13  1  0
  2 20  2  0
  2 28  1  0
  2 29  1  0
  3 19  4  0
  3 25  4  0
  4 23  4  0
  4 27  1  0
  4 30  4  0
  5 17  1  0
  6  8  1  0
  6 29  1  0
  7 24  4  0
  7 26  4  0
  8 28  1  0
  9 13  2  0
 10 18  1  0
 10 21  4  0
 10 30  4  0
 11 17  2  0
 12 18  1  0
 13 15  1  0
 14 24  1  0
 15 25  1  0
 16 28  2  0
 17 20  1  0
 19 24  4  0
 20 23  1  0
 21 22  4  0
 22 23  4  0
 25 26  4  0
 27 29  2  0
M  END
$$$$

 Created by Python create_sdf_string function

 30 33  0  0  0  0  0  0  0  0999 V2000
    8.3036    9.8571   18.4133 C   0  0  0  0  0  0  0  0  0  0  0  0
    8.3694    7.6612   22.6703 C   0  0  0  0  0  0  0  0  0  0  0  0
    8.4143    6.6863   16.2273 C   0  0  0  0  0  0  0  0  0  0  0  0
   10.7581    6.5674   21.7636 C   0  0  0  0  0  0  0  0  0  0  0  0
    8.4452    8.7960   19.2958 O   0  0  0  0  0  0  0  0  0  0  0  0
    8.7122    6.7842   24.8569 C   0  0  0  0  0  0  0  0  0  0  0  0
   10.3400    6.1726   14.3081 C   0  0  0  0  0  0  0  0  0  0  0  0
    7.4297    7.5873   24.8962 C   0  0  0  0  0  0  0  0  0  0  0  0
    8.1566   10.0536   16.0516 O   0  0  0  0  0  0  0  0  0  0  0  0
   12.4989    6.2074   20.1776 C   0  0  0  0  0  0  0  0  0  0  0  0
    6.9192    9.1053   20.9073 O   0  0  0  0  0  0  0  0  0  0  0  0
   14.3979    6.0729   18.7784 C   0  0  0  0  0  0  0  0  0  0  0  0
    8.6811    9.5354   16.9998 C   0  0  0  0  0  0  0  0  0  0  0  0
    9.2512    4.2713   13.7653 O   0  0  0  0  0  0  0  0  0  0  0  0
    9.6495    8.6317   16.8332 N   0  0  0  0  0  0  0  0  0  0  0  0
    6.2934    8.6988   23.1988 O   0  0  0  0  0  0  0  0  0  0  0  0
    7.9806    8.6543   20.5437 C   0  0  0  0  0  0  0  0  0  0  0  0
   13.7270    5.7144   19.8610 O   0  0  0  0  0  0  0  0  0  0  0  0
    8.3351    5.5235   15.4478 C   0  0  0  0  0  0  0  0  0  0  0  0
    8.7700    7.8434   21.3915 C   0  0  0  0  0  0  0  0  0  0  0  0
   11.7856    6.8851   19.2401 C   0  0  0  0  0  0  0  0  0  0  0  0
   10.5281    7.4276   19.5649 C   0  0  0  0  0  0  0  0  0  0  0  0
   10.0256    7.2907   20.8484 C   0  0  0  0  0  0  0  0  0  0  0  0
    9.3113    5.3049   14.4911 C   0  0  0  0  0  0  0  0  0  0  0  0
    9.4607    7.5646   16.0139 C   0  0  0  0  0  0  0  0  0  0  0  0
   10.4192    7.3157   15.0955 C   0  0  0  0  0  0  0  0  0  0  0  0
   10.2489    6.4227   23.0218 N   0  0  0  0  0  0  0  0  0  0  0  0
    7.2472    8.0746   23.5050 C   0  0  0  0  0  0  0  0  0  0  0  0
    9.2051    6.9101   23.4604 C   0  0  0  0  0  0  0  0  0  0  0  0
   11.9646    6.0299   21.4251 C   0  0  0  0  0  0  0  0  0  0  0  0
  1  5  1  0
  1 13  1  0
  2 20  2  0
  2 28  1  0
  2 29  1  0
  3 19  4  0
  3 25  4  0
  4 23  4  0
  4 27  1  0
  4 30  4  0
  5 17  1  0
  6  8  1  0
  6 29  1  0
  7 24  4  0
  7 26  4  0
  8 28  1  0
  9 13  2  0
 10 18  1  0
 10 21  4  0
 10 30  4  0
 11 17  2  0
 12 18  1  0
 13 15  1  0
 14 24  1  0
 15 25  1  0
 16 28  2  0
 17 20  1  0
 19 24  4  0
 20 23  1  0
 21 22  4  0
 22 23  4  0
 25 26  4  0
 27 29  2  0
M  END
$$$$

 Created by Python create_sdf_string function

 30 33  0  0  0  0  0  0  0  0999 V2000
    8.3036    9.8571   18.4133 C   0  0  0  0  0  0  0  0  0  0  0  0
    8.3694    7.6612   22.6703 C   0  0  0  0  0  0  0  0  0  0  0  0
    8.4143    6.6863   16.2273 C   0  0  0  0  0  0  0  0  0  0  0  0
   10.7581    6.5674   21.7636 C   0  0  0  0  0  0  0  0  0  0  0  0
    8.4452    8.7960   19.2958 O   0  0  0  0  0  0  0  0  0  0  0  0
    8.7122    6.7842   24.8569 C   0  0  0  0  0  0  0  0  0  0  0  0
   10.3400    6.1726   14.3081 C   0  0  0  0  0  0  0  0  0  0  0  0
    7.4297    7.5873   24.8962 C   0  0  0  0  0  0  0  0  0  0  0  0
    8.1566   10.0536   16.0516 O   0  0  0  0  0  0  0  0  0  0  0  0
   12.4989    6.2074   20.1776 C   0  0  0  0  0  0  0  0  0  0  0  0
    6.9192    9.1053   20.9073 O   0  0  0  0  0  0  0  0  0  0  0  0
   14.3979    6.0729   18.7784 C   0  0  0  0  0  0  0  0  0  0  0  0
    8.6811    9.5354   16.9998 C   0  0  0  0  0  0  0  0  0  0  0  0
    9.2512    4.2713   13.7653 O   0  0  0  0  0  0  0  0  0  0  0  0
    9.6495    8.6317   16.8332 N   0  0  0  0  0  0  0  0  0  0  0  0
    6.2934    8.6988   23.1988 O   0  0  0  0  0  0  0  0  0  0  0  0
    7.9806    8.6543   20.5437 C   0  0  0  0  0  0  0  0  0  0  0  0
   13.7270    5.7144   19.8610 O   0  0  0  0  0  0  0  0  0  0  0  0
    8.3351    5.5235   15.4478 C   0  0  0  0  0  0  0  0  0  0  0  0
    8.7700    7.8434   21.3915 C   0  0  0  0  0  0  0  0  0  0  0  0
   11.7856    6.8851   19.2401 C   0  0  0  0  0  0  0  0  0  0  0  0
   10.5281    7.4276   19.5649 C   0  0  0  0  0  0  0  0  0  0  0  0
   10.0256    7.2907   20.8484 C   0  0  0  0  0  0  0  0  0  0  0  0
    9.3113    5.3049   14.4911 C   0  0  0  0  0  0  0  0  0  0  0  0
    9.4607    7.5646   16.0139 C   0  0  0  0  0  0  0  0  0  0  0  0
   10.4192    7.3157   15.0955 C   0  0  0  0  0  0  0  0  0  0  0  0
   10.2489    6.4227   23.0218 N   0  0  0  0  0  0  0  0  0  0  0  0
    7.2472    8.0746   23.5050 C   0  0  0  0  0  0  0  0  0  0  0  0
    9.2051    6.9101   23.4604 C   0  0  0  0  0  0  0  0  0  0  0  0
   11.9646    6.0299   21.4251 C   0  0  0  0  0  0  0  0  0  0  0  0
  1  5  1  0
  1 13  1  0
  2 20  2  0
  2 28  1  0
  2 29  1  0
  3 19  4  0
  3 25  4  0
  4 23  4  0
  4 27  1  0
  4 30  4  0
  5 17  1  0
  6  8  1  0
  6 29  1  0
  7 24  4  0
  7 26  4  0
  8 28  1  0
  9 13  2  0
 10 18  1  0
 10 21  4  0
 10 30  4  0
 11 17  2  0
 12 18  1  0
 13 15  1  0
 14 24  1  0
 15 25  1  0
 16 28  2  0
 17 20  1  0
 19 24  4  0
 20 23  1  0
 21 22  4  0
 22 23  4  0
 25 26  4  0
 27 29  2  0
M  END
$$$$

 Created by Python create_sdf_string function

 30 33  0  0  0  0  0  0  0  0999 V2000
    8.3036    9.8571   18.4133 C   0  0  0  0  0  0  0  0  0  0  0  0
    8.3694    7.6612   22.6703 C   0  0  0  0  0  0  0  0  0  0  0  0
    8.4143    6.6863   16.2273 C   0  0  0  0  0  0  0  0  0  0  0  0
   10.7581    6.5674   21.7636 C   0  0  0  0  0  0  0  0  0  0  0  0
    8.4452    8.7960   19.2958 O   0  0  0  0  0  0  0  0  0  0  0  0
    8.7122    6.7842   24.8569 C   0  0  0  0  0  0  0  0  0  0  0  0
   10.3400    6.1726   14.3081 C   0  0  0  0  0  0  0  0  0  0  0  0
    7.4297    7.5873   24.8962 C   0  0  0  0  0  0  0  0  0  0  0  0
    8.1566   10.0536   16.0516 O   0  0  0  0  0  0  0  0  0  0  0  0
   12.4989    6.2074   20.1776 C   0  0  0  0  0  0  0  0  0  0  0  0
    6.9192    9.1053   20.9073 O   0  0  0  0  0  0  0  0  0  0  0  0
   14.3979    6.0729   18.7784 C   0  0  0  0  0  0  0  0  0  0  0  0
    8.6811    9.5354   16.9998 C   0  0  0  0  0  0  0  0  0  0  0  0
    9.2512    4.2713   13.7653 O   0  0  0  0  0  0  0  0  0  0  0  0
    9.6495    8.6317   16.8332 N   0  0  0  0  0  0  0  0  0  0  0  0
    6.2934    8.6988   23.1988 O   0  0  0  0  0  0  0  0  0  0  0  0
    7.9806    8.6543   20.5437 C   0  0  0  0  0  0  0  0  0  0  0  0
   13.7270    5.7144   19.8610 O   0  0  0  0  0  0  0  0  0  0  0  0
    8.3351    5.5235   15.4478 C   0  0  0  0  0  0  0  0  0  0  0  0
    8.7700    7.8434   21.3915 C   0  0  0  0  0  0  0  0  0  0  0  0
   11.7856    6.8851   19.2401 C   0  0  0  0  0  0  0  0  0  0  0  0
   10.5281    7.4276   19.5649 C   0  0  0  0  0  0  0  0  0  0  0  0
   10.0256    7.2907   20.8484 C   0  0  0  0  0  0  0  0  0  0  0  0
    9.3113    5.3049   14.4911 C   0  0  0  0  0  0  0  0  0  0  0  0
    9.4607    7.5646   16.0139 C   0  0  0  0  0  0  0  0  0  0  0  0
   10.4192    7.3157   15.0955 C   0  0  0  0  0  0  0  0  0  0  0  0
   10.2489    6.4227   23.0218 N   0  0  0  0  0  0  0  0  0  0  0  0
    7.2472    8.0746   23.5050 C   0  0  0  0  0  0  0  0  0  0  0  0
    9.2051    6.9101   23.4604 C   0  0  0  0  0  0  0  0  0  0  0  0
   11.9646    6.0299   21.4251 C   0  0  0  0  0  0  0  0  0  0  0  0
  1  5  1  0
  1 13  1  0
  2 20  2  0
  2 28  1  0
  2 29  1  0
  3 19  4  0
  3 25  4  0
  4 23  4  0
  4 27  1  0
  4 30  4  0
  5 17  1  0
  6  8  1  0
  6 29  1  0
  7 24  4  0
  7 26  4  0
  8 28  1  0
  9 13  2  0
 10 18  1  0
 10 21  4  0
 10 30  4  0
 11 17  2  0
 12 18  1  0
 13 15  1  0
 14 24  1  0
 15 25  1  0
 16 28  2  0
 17 20  1  0
 19 24  4  0
 20 23  1  0
 21 22  4  0
 22 23  4  0
 25 26  4  0
 27 29  2  0
M  END
$$$$

 Created by Python create_sdf_string function

 30 33  0  0  0  0  0  0  0  0999 V2000
    8.3036    9.8571   18.4133 C   0  0  0  0  0  0  0  0  0  0  0  0
    8.3694    7.6612   22.6703 C   0  0  0  0  0  0  0  0  0  0  0  0
    8.4143    6.6863   16.2273 C   0  0  0  0  0  0  0  0  0  0  0  0
   10.7581    6.5674   21.7636 C   0  0  0  0  0  0  0  0  0  0  0  0
    8.4452    8.7960   19.2958 O   0  0  0  0  0  0  0  0  0  0  0  0
    8.7122    6.7842   24.8569 C   0  0  0  0  0  0  0  0  0  0  0  0
   10.3400    6.1726   14.3081 C   0  0  0  0  0  0  0  0  0  0  0  0
    7.4297    7.5873   24.8962 C   0  0  0  0  0  0  0  0  0  0  0  0
    8.1566   10.0536   16.0516 O   0  0  0  0  0  0  0  0  0  0  0  0
   12.4989    6.2074   20.1776 C   0  0  0  0  0  0  0  0  0  0  0  0
    6.9192    9.1053   20.9073 O   0  0  0  0  0  0  0  0  0  0  0  0
   14.3979    6.0729   18.7784 C   0  0  0  0  0  0  0  0  0  0  0  0
    8.6811    9.5354   16.9998 C   0  0  0  0  0  0  0  0  0  0  0  0
    9.2512    4.2713   13.7653 O   0  0  0  0  0  0  0  0  0  0  0  0
    9.6495    8.6317   16.8332 N   0  0  0  0  0  0  0  0  0  0  0  0
    6.2934    8.6988   23.1988 O   0  0  0  0  0  0  0  0  0  0  0  0
    7.9806    8.6543   20.5437 C   0  0  0  0  0  0  0  0  0  0  0  0
   13.7270    5.7144   19.8610 O   0  0  0  0  0  0  0  0  0  0  0  0
    8.3351    5.5235   15.4478 C   0  0  0  0  0  0  0  0  0  0  0  0
    8.7700    7.8434   21.3915 C   0  0  0  0  0  0  0  0  0  0  0  0
   11.7856    6.8851   19.2401 C   0  0  0  0  0  0  0  0  0  0  0  0
   10.5281    7.4276   19.5649 C   0  0  0  0  0  0  0  0  0  0  0  0
   10.0256    7.2907   20.8484 C   0  0  0  0  0  0  0  0  0  0  0  0
    9.3113    5.3049   14.4911 C   0  0  0  0  0  0  0  0  0  0  0  0
    9.4607    7.5646   16.0139 C   0  0  0  0  0  0  0  0  0  0  0  0
   10.4192    7.3157   15.0955 C   0  0  0  0  0  0  0  0  0  0  0  0
   10.2489    6.4227   23.0218 N   0  0  0  0  0  0  0  0  0  0  0  0
    7.2472    8.0746   23.5050 C   0  0  0  0  0  0  0  0  0  0  0  0
    9.2051    6.9101   23.4604 C   0  0  0  0  0  0  0  0  0  0  0  0
   11.9646    6.0299   21.4251 C   0  0  0  0  0  0  0  0  0  0  0  0
  1  5  1  0
  1 13  1  0
  2 20  2  0
  2 28  1  0
  2 29  1  0
  3 19  4  0
  3 25  4  0
  4 23  4  0
  4 27  1  0
  4 30  4  0
  5 17  1  0
  6  8  1  0
  6 29  1  0
  7 24  4  0
  7 26  4  0
  8 28  1  0
  9 13  2  0
 10 18  1  0
 10 21  4  0
 10 30  4  0
 11 17  2  0
 12 18  1  0
 13 15  1  0
 14 24  1  0
 15 25  1  0
 16 28  2  0
 17 20  1  0
 19 24  4  0
 20 23  1  0
 21 22  4  0
 22 23  4  0
 25 26  4  0
 27 29  2  0
M  END
$$$$

 Created by Python create_sdf_string function

 30 33  0  0  0  0  0  0  0  0999 V2000
    8.3036    9.8571   18.4133 C   0  0  0  0  0  0  0  0  0  0  0  0
    8.3694    7.6612   22.6703 C   0  0  0  0  0  0  0  0  0  0  0  0
    8.4143    6.6863   16.2273 C   0  0  0  0  0  0  0  0  0  0  0  0
   10.7581    6.5674   21.7636 C   0  0  0  0  0  0  0  0  0  0  0  0
    8.4452    8.7960   19.2958 O   0  0  0  0  0  0  0  0  0  0  0  0
    8.7122    6.7842   24.8569 C   0  0  0  0  0  0  0  0  0  0  0  0
   10.3400    6.1726   14.3081 C   0  0  0  0  0  0  0  0  0  0  0  0
    7.4297    7.5873   24.8962 C   0  0  0  0  0  0  0  0  0  0  0  0
    8.1566   10.0536   16.0516 O   0  0  0  0  0  0  0  0  0  0  0  0
   12.4989    6.2074   20.1776 C   0  0  0  0  0  0  0  0  0  0  0  0
    6.9192    9.1053   20.9073 O   0  0  0  0  0  0  0  0  0  0  0  0
   14.3979    6.0729   18.7784 C   0  0  0  0  0  0  0  0  0  0  0  0
    8.6811    9.5354   16.9998 C   0  0  0  0  0  0  0  0  0  0  0  0
    9.2512    4.2713   13.7653 O   0  0  0  0  0  0  0  0  0  0  0  0
    9.6495    8.6317   16.8332 N   0  0  0  0  0  0  0  0  0  0  0  0
    6.2934    8.6988   23.1988 O   0  0  0  0  0  0  0  0  0  0  0  0
    7.9806    8.6543   20.5437 C   0  0  0  0  0  0  0  0  0  0  0  0
   13.7270    5.7144   19.8610 O   0  0  0  0  0  0  0  0  0  0  0  0
    8.3351    5.5235   15.4478 C   0  0  0  0  0  0  0  0  0  0  0  0
    8.7700    7.8434   21.3915 C   0  0  0  0  0  0  0  0  0  0  0  0
   11.7856    6.8851   19.2401 C   0  0  0  0  0  0  0  0  0  0  0  0
   10.5281    7.4276   19.5649 C   0  0  0  0  0  0  0  0  0  0  0  0
   10.0256    7.2907   20.8484 C   0  0  0  0  0  0  0  0  0  0  0  0
    9.3113    5.3049   14.4911 C   0  0  0  0  0  0  0  0  0  0  0  0
    9.4607    7.5646   16.0139 C   0  0  0  0  0  0  0  0  0  0  0  0
   10.4192    7.3157   15.0955 C   0  0  0  0  0  0  0  0  0  0  0  0
   10.2489    6.4227   23.0218 N   0  0  0  0  0  0  0  0  0  0  0  0
    7.2472    8.0746   23.5050 C   0  0  0  0  0  0  0  0  0  0  0  0
    9.2051    6.9101   23.4604 C   0  0  0  0  0  0  0  0  0  0  0  0
   11.9646    6.0299   21.4251 C   0  0  0  0  0  0  0  0  0  0  0  0
  1  5  1  0
  1 13  1  0
  2 20  2  0
  2 28  1  0
  2 29  1  0
  3 19  4  0
  3 25  4  0
  4 23  4  0
  4 27  1  0
  4 30  4  0
  5 17  1  0
  6  8  1  0
  6 29  1  0
  7 24  4  0
  7 26  4  0
  8 28  1  0
  9 13  2  0
 10 18  1  0
 10 21  4  0
 10 30  4  0
 11 17  2  0
 12 18  1  0
 13 15  1  0
 14 24  1  0
 15 25  1  0
 16 28  2  0
 17 20  1  0
 19 24  4  0
 20 23  1  0
 21 22  4  0
 22 23  4  0
 25 26  4  0
 27 29  2  0
M  END
$$$$

 Created by Python create_sdf_string function

 30 33  0  0  0  0  0  0  0  0999 V2000
    8.3036    9.8571   18.4133 C   0  0  0  0  0  0  0  0  0  0  0  0
    8.3694    7.6612   22.6703 C   0  0  0  0  0  0  0  0  0  0  0  0
    8.4143    6.6863   16.2273 C   0  0  0  0  0  0  0  0  0  0  0  0
   10.7581    6.5674   21.7636 C   0  0  0  0  0  0  0  0  0  0  0  0
    8.4452    8.7960   19.2958 O   0  0  0  0  0  0  0  0  0  0  0  0
    8.7122    6.7842   24.8569 C   0  0  0  0  0  0  0  0  0  0  0  0
   10.3400    6.1726   14.3081 C   0  0  0  0  0  0  0  0  0  0  0  0
    7.4297    7.5873   24.8962 C   0  0  0  0  0  0  0  0  0  0  0  0
    8.1566   10.0536   16.0516 O   0  0  0  0  0  0  0  0  0  0  0  0
   12.4989    6.2074   20.1776 C   0  0  0  0  0  0  0  0  0  0  0  0
    6.9192    9.1053   20.9073 O   0  0  0  0  0  0  0  0  0  0  0  0
   14.3979    6.0729   18.7784 C   0  0  0  0  0  0  0  0  0  0  0  0
    8.6811    9.5354   16.9998 C   0  0  0  0  0  0  0  0  0  0  0  0
    9.2512    4.2713   13.7653 O   0  0  0  0  0  0  0  0  0  0  0  0
    9.6495    8.6317   16.8332 N   0  0  0  0  0  0  0  0  0  0  0  0
    6.2934    8.6988   23.1988 O   0  0  0  0  0  0  0  0  0  0  0  0
    7.9806    8.6543   20.5437 C   0  0  0  0  0  0  0  0  0  0  0  0
   13.7270    5.7144   19.8610 O   0  0  0  0  0  0  0  0  0  0  0  0
    8.3351    5.5235   15.4478 C   0  0  0  0  0  0  0  0  0  0  0  0
    8.7700    7.8434   21.3915 C   0  0  0  0  0  0  0  0  0  0  0  0
   11.7856    6.8851   19.2401 C   0  0  0  0  0  0  0  0  0  0  0  0
   10.5281    7.4276   19.5649 C   0  0  0  0  0  0  0  0  0  0  0  0
   10.0256    7.2907   20.8484 C   0  0  0  0  0  0  0  0  0  0  0  0
    9.3113    5.3049   14.4911 C   0  0  0  0  0  0  0  0  0  0  0  0
    9.4607    7.5646   16.0139 C   0  0  0  0  0  0  0  0  0  0  0  0
   10.4192    7.3157   15.0955 C   0  0  0  0  0  0  0  0  0  0  0  0
   10.2489    6.4227   23.0218 N   0  0  0  0  0  0  0  0  0  0  0  0
    7.2472    8.0746   23.5050 C   0  0  0  0  0  0  0  0  0  0  0  0
    9.2051    6.9101   23.4604 C   0  0  0  0  0  0  0  0  0  0  0  0
   11.9646    6.0299   21.4251 C   0  0  0  0  0  0  0  0  0  0  0  0
  1  5  1  0
  1 13  1  0
  2 20  2  0
  2 28  1  0
  2 29  1  0
  3 19  4  0
  3 25  4  0
  4 23  4  0
  4 27  1  0
  4 30  4  0
  5 17  1  0
  6  8  1  0
  6 29  1  0
  7 24  4  0
  7 26  4  0
  8 28  1  0
  9 13  2  0
 10 18  1  0
 10 21  4  0
 10 30  4  0
 11 17  2  0
 12 18  1  0
 13 15  1  0
 14 24  1  0
 15 25  1  0
 16 28  2  0
 17 20  1  0
 19 24  4  0
 20 23  1  0
 21 22  4  0
 22 23  4  0
 25 26  4  0
 27 29  2  0
M  END
$$$$

 Created by Python create_sdf_string function

 30 33  0  0  0  0  0  0  0  0999 V2000
    8.3036    9.8571   18.4133 C   0  0  0  0  0  0  0  0  0  0  0  0
    8.3694    7.6612   22.6703 C   0  0  0  0  0  0  0  0  0  0  0  0
    8.4143    6.6863   16.2273 C   0  0  0  0  0  0  0  0  0  0  0  0
   10.7581    6.5674   21.7636 C   0  0  0  0  0  0  0  0  0  0  0  0
    8.4452    8.7960   19.2958 O   0  0  0  0  0  0  0  0  0  0  0  0
    8.7122    6.7842   24.8569 C   0  0  0  0  0  0  0  0  0  0  0  0
   10.3400    6.1726   14.3081 C   0  0  0  0  0  0  0  0  0  0  0  0
    7.4297    7.5873   24.8962 C   0  0  0  0  0  0  0  0  0  0  0  0
    8.1566   10.0536   16.0516 O   0  0  0  0  0  0  0  0  0  0  0  0
   12.4989    6.2074   20.1776 C   0  0  0  0  0  0  0  0  0  0  0  0
    6.9192    9.1053   20.9073 O   0  0  0  0  0  0  0  0  0  0  0  0
   14.3979    6.0729   18.7784 C   0  0  0  0  0  0  0  0  0  0  0  0
    8.6811    9.5354   16.9998 C   0  0  0  0  0  0  0  0  0  0  0  0
    9.2512    4.2713   13.7653 O   0  0  0  0  0  0  0  0  0  0  0  0
    9.6495    8.6317   16.8332 N   0  0  0  0  0  0  0  0  0  0  0  0
    6.2934    8.6988   23.1988 O   0  0  0  0  0  0  0  0  0  0  0  0
    7.9806    8.6543   20.5437 C   0  0  0  0  0  0  0  0  0  0  0  0
   13.7270    5.7144   19.8610 O   0  0  0  0  0  0  0  0  0  0  0  0
    8.3351    5.5235   15.4478 C   0  0  0  0  0  0  0  0  0  0  0  0
    8.7700    7.8434   21.3915 C   0  0  0  0  0  0  0  0  0  0  0  0
   11.7856    6.8851   19.2401 C   0  0  0  0  0  0  0  0  0  0  0  0
   10.5281    7.4276   19.5649 C   0  0  0  0  0  0  0  0  0  0  0  0
   10.0256    7.2907   20.8484 C   0  0  0  0  0  0  0  0  0  0  0  0
    9.3113    5.3049   14.4911 C   0  0  0  0  0  0  0  0  0  0  0  0
    9.4607    7.5646   16.0139 C   0  0  0  0  0  0  0  0  0  0  0  0
   10.4192    7.3157   15.0955 C   0  0  0  0  0  0  0  0  0  0  0  0
   10.2489    6.4227   23.0218 N   0  0  0  0  0  0  0  0  0  0  0  0
    7.2472    8.0746   23.5050 C   0  0  0  0  0  0  0  0  0  0  0  0
    9.2051    6.9101   23.4604 C   0  0  0  0  0  0  0  0  0  0  0  0
   11.9646    6.0299   21.4251 C   0  0  0  0  0  0  0  0  0  0  0  0
  1  5  1  0
  1 13  1  0
  2 20  2  0
  2 28  1  0
  2 29  1  0
  3 19  4  0
  3 25  4  0
  4 23  4  0
  4 27  1  0
  4 30  4  0
  5 17  1  0
  6  8  1  0
  6 29  1  0
  7 24  4  0
  7 26  4  0
  8 28  1  0
  9 13  2  0
 10 18  1  0
 10 21  4  0
 10 30  4  0
 11 17  2  0
 12 18  1  0
 13 15  1  0
 14 24  1  0
 15 25  1  0
 16 28  2  0
 17 20  1  0
 19 24  4  0
 20 23  1  0
 21 22  4  0
 22 23  4  0
 25 26  4  0
 27 29  2  0
M  END
$$$$

 Created by Python create_sdf_string function

 30 33  0  0  0  0  0  0  0  0999 V2000
    8.3036    9.8571   18.4133 C   0  0  0  0  0  0  0  0  0  0  0  0
    8.3694    7.6612   22.6703 C   0  0  0  0  0  0  0  0  0  0  0  0
    8.4143    6.6863   16.2273 C   0  0  0  0  0  0  0  0  0  0  0  0
   10.7581    6.5674   21.7636 C   0  0  0  0  0  0  0  0  0  0  0  0
    8.4452    8.7960   19.2958 O   0  0  0  0  0  0  0  0  0  0  0  0
    8.7122    6.7842   24.8569 C   0  0  0  0  0  0  0  0  0  0  0  0
   10.3400    6.1726   14.3081 C   0  0  0  0  0  0  0  0  0  0  0  0
    7.4297    7.5873   24.8962 C   0  0  0  0  0  0  0  0  0  0  0  0
    8.1566   10.0536   16.0516 O   0  0  0  0  0  0  0  0  0  0  0  0
   12.4989    6.2074   20.1776 C   0  0  0  0  0  0  0  0  0  0  0  0
    6.9192    9.1053   20.9073 O   0  0  0  0  0  0  0  0  0  0  0  0
   14.3979    6.0729   18.7784 C   0  0  0  0  0  0  0  0  0  0  0  0
    8.6811    9.5354   16.9998 C   0  0  0  0  0  0  0  0  0  0  0  0
    9.2512    4.2713   13.7653 O   0  0  0  0  0  0  0  0  0  0  0  0
    9.6495    8.6317   16.8332 N   0  0  0  0  0  0  0  0  0  0  0  0
    6.2934    8.6988   23.1988 O   0  0  0  0  0  0  0  0  0  0  0  0
    7.9806    8.6543   20.5437 C   0  0  0  0  0  0  0  0  0  0  0  0
   13.7270    5.7144   19.8610 O   0  0  0  0  0  0  0  0  0  0  0  0
    8.3351    5.5235   15.4478 C   0  0  0  0  0  0  0  0  0  0  0  0
    8.7700    7.8434   21.3915 C   0  0  0  0  0  0  0  0  0  0  0  0
   11.7856    6.8851   19.2401 C   0  0  0  0  0  0  0  0  0  0  0  0
   10.5281    7.4276   19.5649 C   0  0  0  0  0  0  0  0  0  0  0  0
   10.0256    7.2907   20.8484 C   0  0  0  0  0  0  0  0  0  0  0  0
    9.3113    5.3049   14.4911 C   0  0  0  0  0  0  0  0  0  0  0  0
    9.4607    7.5646   16.0139 C   0  0  0  0  0  0  0  0  0  0  0  0
   10.4192    7.3157   15.0955 C   0  0  0  0  0  0  0  0  0  0  0  0
   10.2489    6.4227   23.0218 N   0  0  0  0  0  0  0  0  0  0  0  0
    7.2472    8.0746   23.5050 C   0  0  0  0  0  0  0  0  0  0  0  0
    9.2051    6.9101   23.4604 C   0  0  0  0  0  0  0  0  0  0  0  0
   11.9646    6.0299   21.4251 C   0  0  0  0  0  0  0  0  0  0  0  0
  1  5  1  0
  1 13  1  0
  2 20  2  0
  2 28  1  0
  2 29  1  0
  3 19  4  0
  3 25  4  0
  4 23  4  0
  4 27  1  0
  4 30  4  0
  5 17  1  0
  6  8  1  0
  6 29  1  0
  7 24  4  0
  7 26  4  0
  8 28  1  0
  9 13  2  0
 10 18  1  0
 10 21  4  0
 10 30  4  0
 11 17  2  0
 12 18  1  0
 13 15  1  0
 14 24  1  0
 15 25  1  0
 16 28  2  0
 17 20  1  0
 19 24  4  0
 20 23  1  0
 21 22  4  0
 22 23  4  0
 25 26  4  0
 27 29  2  0
M  END
$$$$

 Created by Python create_sdf_string function

 30 33  0  0  0  0  0  0  0  0999 V2000
    8.3036    9.8571   18.4133 C   0  0  0  0  0  0  0  0  0  0  0  0
    8.3694    7.6612   22.6703 C   0  0  0  0  0  0  0  0  0  0  0  0
    8.4143    6.6863   16.2273 C   0  0  0  0  0  0  0  0  0  0  0  0
   10.7581    6.5674   21.7636 C   0  0  0  0  0  0  0  0  0  0  0  0
    8.4452    8.7960   19.2958 O   0  0  0  0  0  0  0  0  0  0  0  0
    8.7122    6.7842   24.8569 C   0  0  0  0  0  0  0  0  0  0  0  0
   10.3400    6.1726   14.3081 C   0  0  0  0  0  0  0  0  0  0  0  0
    7.4297    7.5873   24.8962 C   0  0  0  0  0  0  0  0  0  0  0  0
    8.1566   10.0536   16.0516 O   0  0  0  0  0  0  0  0  0  0  0  0
   12.4989    6.2074   20.1776 C   0  0  0  0  0  0  0  0  0  0  0  0
    6.9192    9.1053   20.9073 O   0  0  0  0  0  0  0  0  0  0  0  0
   14.3979    6.0729   18.7784 C   0  0  0  0  0  0  0  0  0  0  0  0
    8.6811    9.5354   16.9998 C   0  0  0  0  0  0  0  0  0  0  0  0
    9.2512    4.2713   13.7653 O   0  0  0  0  0  0  0  0  0  0  0  0
    9.6495    8.6317   16.8332 N   0  0  0  0  0  0  0  0  0  0  0  0
    6.2934    8.6988   23.1988 O   0  0  0  0  0  0  0  0  0  0  0  0
    7.9806    8.6543   20.5437 C   0  0  0  0  0  0  0  0  0  0  0  0
   13.7270    5.7144   19.8610 O   0  0  0  0  0  0  0  0  0  0  0  0
    8.3351    5.5235   15.4478 C   0  0  0  0  0  0  0  0  0  0  0  0
    8.7700    7.8434   21.3915 C   0  0  0  0  0  0  0  0  0  0  0  0
   11.7856    6.8851   19.2401 C   0  0  0  0  0  0  0  0  0  0  0  0
   10.5281    7.4276   19.5649 C   0  0  0  0  0  0  0  0  0  0  0  0
   10.0256    7.2907   20.8484 C   0  0  0  0  0  0  0  0  0  0  0  0
    9.3113    5.3049   14.4911 C   0  0  0  0  0  0  0  0  0  0  0  0
    9.4607    7.5646   16.0139 C   0  0  0  0  0  0  0  0  0  0  0  0
   10.4192    7.3157   15.0955 C   0  0  0  0  0  0  0  0  0  0  0  0
   10.2489    6.4227   23.0218 N   0  0  0  0  0  0  0  0  0  0  0  0
    7.2472    8.0746   23.5050 C   0  0  0  0  0  0  0  0  0  0  0  0
    9.2051    6.9101   23.4604 C   0  0  0  0  0  0  0  0  0  0  0  0
   11.9646    6.0299   21.4251 C   0  0  0  0  0  0  0  0  0  0  0  0
  1  5  1  0
  1 13  1  0
  2 20  2  0
  2 28  1  0
  2 29  1  0
  3 19  4  0
  3 25  4  0
  4 23  4  0
  4 27  1  0
  4 30  4  0
  5 17  1  0
  6  8  1  0
  6 29  1  0
  7 24  4  0
  7 26  4  0
  8 28  1  0
  9 13  2  0
 10 18  1  0
 10 21  4  0
 10 30  4  0
 11 17  2  0
 12 18  1  0
 13 15  1  0
 14 24  1  0
 15 25  1  0
 16 28  2  0
 17 20  1  0
 19 24  4  0
 20 23  1  0
 21 22  4  0
 22 23  4  0
 25 26  4  0
 27 29  2  0
M  END
$$$$

 Created by Python create_sdf_string function

 30 33  0  0  0  0  0  0  0  0999 V2000
    8.3036    9.8571   18.4133 C   0  0  0  0  0  0  0  0  0  0  0  0
    8.3694    7.6612   22.6703 C   0  0  0  0  0  0  0  0  0  0  0  0
    8.4143    6.6863   16.2273 C   0  0  0  0  0  0  0  0  0  0  0  0
   10.7581    6.5674   21.7636 C   0  0  0  0  0  0  0  0  0  0  0  0
    8.4452    8.7960   19.2958 O   0  0  0  0  0  0  0  0  0  0  0  0
    8.7122    6.7842   24.8569 C   0  0  0  0  0  0  0  0  0  0  0  0
   10.3400    6.1726   14.3081 C   0  0  0  0  0  0  0  0  0  0  0  0
    7.4297    7.5873   24.8962 C   0  0  0  0  0  0  0  0  0  0  0  0
    8.1566   10.0536   16.0516 O   0  0  0  0  0  0  0  0  0  0  0  0
   12.4989    6.2074   20.1776 C   0  0  0  0  0  0  0  0  0  0  0  0
    6.9192    9.1053   20.9073 O   0  0  0  0  0  0  0  0  0  0  0  0
   14.3979    6.0729   18.7784 C   0  0  0  0  0  0  0  0  0  0  0  0
    8.6811    9.5354   16.9998 C   0  0  0  0  0  0  0  0  0  0  0  0
    9.2512    4.2713   13.7653 O   0  0  0  0  0  0  0  0  0  0  0  0
    9.6495    8.6317   16.8332 N   0  0  0  0  0  0  0  0  0  0  0  0
    6.2934    8.6988   23.1988 O   0  0  0  0  0  0  0  0  0  0  0  0
    7.9806    8.6543   20.5437 C   0  0  0  0  0  0  0  0  0  0  0  0
   13.7270    5.7144   19.8610 O   0  0  0  0  0  0  0  0  0  0  0  0
    8.3351    5.5235   15.4478 C   0  0  0  0  0  0  0  0  0  0  0  0
    8.7700    7.8434   21.3915 C   0  0  0  0  0  0  0  0  0  0  0  0
   11.7856    6.8851   19.2401 C   0  0  0  0  0  0  0  0  0  0  0  0
   10.5281    7.4276   19.5649 C   0  0  0  0  0  0  0  0  0  0  0  0
   10.0256    7.2907   20.8484 C   0  0  0  0  0  0  0  0  0  0  0  0
    9.3113    5.3049   14.4911 C   0  0  0  0  0  0  0  0  0  0  0  0
    9.4607    7.5646   16.0139 C   0  0  0  0  0  0  0  0  0  0  0  0
   10.4192    7.3157   15.0955 C   0  0  0  0  0  0  0  0  0  0  0  0
   10.2489    6.4227   23.0218 N   0  0  0  0  0  0  0  0  0  0  0  0
    7.2472    8.0746   23.5050 C   0  0  0  0  0  0  0  0  0  0  0  0
    9.2051    6.9101   23.4604 C   0  0  0  0  0  0  0  0  0  0  0  0
   11.9646    6.0299   21.4251 C   0  0  0  0  0  0  0  0  0  0  0  0
  1  5  1  0
  1 13  1  0
  2 20  2  0
  2 28  1  0
  2 29  1  0
  3 19  4  0
  3 25  4  0
  4 23  4  0
  4 27  1  0
  4 30  4  0
  5 17  1  0
  6  8  1  0
  6 29  1  0
  7 24  4  0
  7 26  4  0
  8 28  1  0
  9 13  2  0
 10 18  1  0
 10 21  4  0
 10 30  4  0
 11 17  2  0
 12 18  1  0
 13 15  1  0
 14 24  1  0
 15 25  1  0
 16 28  2  0
 17 20  1  0
 19 24  4  0
 20 23  1  0
 21 22  4  0
 22 23  4  0
 25 26  4  0
 27 29  2  0
M  END
$$$$

 Created by Python create_sdf_string function

 30 33  0  0  0  0  0  0  0  0999 V2000
    8.3036    9.8571   18.4133 C   0  0  0  0  0  0  0  0  0  0  0  0
    8.3694    7.6612   22.6703 C   0  0  0  0  0  0  0  0  0  0  0  0
    8.4143    6.6863   16.2273 C   0  0  0  0  0  0  0  0  0  0  0  0
   10.7581    6.5674   21.7636 C   0  0  0  0  0  0  0  0  0  0  0  0
    8.4452    8.7960   19.2958 O   0  0  0  0  0  0  0  0  0  0  0  0
    8.7122    6.7842   24.8569 C   0  0  0  0  0  0  0  0  0  0  0  0
   10.3400    6.1726   14.3081 C   0  0  0  0  0  0  0  0  0  0  0  0
    7.4297    7.5873   24.8962 C   0  0  0  0  0  0  0  0  0  0  0  0
    8.1566   10.0536   16.0516 O   0  0  0  0  0  0  0  0  0  0  0  0
   12.4989    6.2074   20.1776 C   0  0  0  0  0  0  0  0  0  0  0  0
    6.9192    9.1053   20.9073 O   0  0  0  0  0  0  0  0  0  0  0  0
   14.3979    6.0729   18.7784 C   0  0  0  0  0  0  0  0  0  0  0  0
    8.6811    9.5354   16.9998 C   0  0  0  0  0  0  0  0  0  0  0  0
    9.2512    4.2713   13.7653 O   0  0  0  0  0  0  0  0  0  0  0  0
    9.6495    8.6317   16.8332 N   0  0  0  0  0  0  0  0  0  0  0  0
    6.2934    8.6988   23.1988 O   0  0  0  0  0  0  0  0  0  0  0  0
    7.9806    8.6543   20.5437 C   0  0  0  0  0  0  0  0  0  0  0  0
   13.7270    5.7144   19.8610 O   0  0  0  0  0  0  0  0  0  0  0  0
    8.3351    5.5235   15.4478 C   0  0  0  0  0  0  0  0  0  0  0  0
    8.7700    7.8434   21.3915 C   0  0  0  0  0  0  0  0  0  0  0  0
   11.7856    6.8851   19.2401 C   0  0  0  0  0  0  0  0  0  0  0  0
   10.5281    7.4276   19.5649 C   0  0  0  0  0  0  0  0  0  0  0  0
   10.0256    7.2907   20.8484 C   0  0  0  0  0  0  0  0  0  0  0  0
    9.3113    5.3049   14.4911 C   0  0  0  0  0  0  0  0  0  0  0  0
    9.4607    7.5646   16.0139 C   0  0  0  0  0  0  0  0  0  0  0  0
   10.4192    7.3157   15.0955 C   0  0  0  0  0  0  0  0  0  0  0  0
   10.2489    6.4227   23.0218 N   0  0  0  0  0  0  0  0  0  0  0  0
    7.2472    8.0746   23.5050 C   0  0  0  0  0  0  0  0  0  0  0  0
    9.2051    6.9101   23.4604 C   0  0  0  0  0  0  0  0  0  0  0  0
   11.9646    6.0299   21.4251 C   0  0  0  0  0  0  0  0  0  0  0  0
  1  5  1  0
  1 13  1  0
  2 20  2  0
  2 28  1  0
  2 29  1  0
  3 19  4  0
  3 25  4  0
  4 23  4  0
  4 27  1  0
  4 30  4  0
  5 17  1  0
  6  8  1  0
  6 29  1  0
  7 24  4  0
  7 26  4  0
  8 28  1  0
  9 13  2  0
 10 18  1  0
 10 21  4  0
 10 30  4  0
 11 17  2  0
 12 18  1  0
 13 15  1  0
 14 24  1  0
 15 25  1  0
 16 28  2  0
 17 20  1  0
 19 24  4  0
 20 23  1  0
 21 22  4  0
 22 23  4  0
 25 26  4  0
 27 29  2  0
M  END
$$$$

 Created by Python create_sdf_string function

 30 33  0  0  0  0  0  0  0  0999 V2000
    8.3036    9.8571   18.4133 C   0  0  0  0  0  0  0  0  0  0  0  0
    8.3694    7.6612   22.6703 C   0  0  0  0  0  0  0  0  0  0  0  0
    8.4143    6.6863   16.2273 C   0  0  0  0  0  0  0  0  0  0  0  0
   10.7581    6.5674   21.7636 C   0  0  0  0  0  0  0  0  0  0  0  0
    8.4452    8.7960   19.2958 O   0  0  0  0  0  0  0  0  0  0  0  0
    8.7122    6.7842   24.8569 C   0  0  0  0  0  0  0  0  0  0  0  0
   10.3400    6.1726   14.3081 C   0  0  0  0  0  0  0  0  0  0  0  0
    7.4297    7.5873   24.8962 C   0  0  0  0  0  0  0  0  0  0  0  0
    8.1566   10.0536   16.0516 O   0  0  0  0  0  0  0  0  0  0  0  0
   12.4989    6.2074   20.1776 C   0  0  0  0  0  0  0  0  0  0  0  0
    6.9192    9.1053   20.9073 O   0  0  0  0  0  0  0  0  0  0  0  0
   14.3979    6.0729   18.7784 C   0  0  0  0  0  0  0  0  0  0  0  0
    8.6811    9.5354   16.9998 C   0  0  0  0  0  0  0  0  0  0  0  0
    9.2512    4.2713   13.7653 O   0  0  0  0  0  0  0  0  0  0  0  0
    9.6495    8.6317   16.8332 N   0  0  0  0  0  0  0  0  0  0  0  0
    6.2934    8.6988   23.1988 O   0  0  0  0  0  0  0  0  0  0  0  0
    7.9806    8.6543   20.5437 C   0  0  0  0  0  0  0  0  0  0  0  0
   13.7270    5.7144   19.8610 O   0  0  0  0  0  0  0  0  0  0  0  0
    8.3351    5.5235   15.4478 C   0  0  0  0  0  0  0  0  0  0  0  0
    8.7700    7.8434   21.3915 C   0  0  0  0  0  0  0  0  0  0  0  0
   11.7856    6.8851   19.2401 C   0  0  0  0  0  0  0  0  0  0  0  0
   10.5281    7.4276   19.5649 C   0  0  0  0  0  0  0  0  0  0  0  0
   10.0256    7.2907   20.8484 C   0  0  0  0  0  0  0  0  0  0  0  0
    9.3113    5.3049   14.4911 C   0  0  0  0  0  0  0  0  0  0  0  0
    9.4607    7.5646   16.0139 C   0  0  0  0  0  0  0  0  0  0  0  0
   10.4192    7.3157   15.0955 C   0  0  0  0  0  0  0  0  0  0  0  0
   10.2489    6.4227   23.0218 N   0  0  0  0  0  0  0  0  0  0  0  0
    7.2472    8.0746   23.5050 C   0  0  0  0  0  0  0  0  0  0  0  0
    9.2051    6.9101   23.4604 C   0  0  0  0  0  0  0  0  0  0  0  0
   11.9646    6.0299   21.4251 C   0  0  0  0  0  0  0  0  0  0  0  0
  1  5  1  0
  1 13  1  0
  2 20  2  0
  2 28  1  0
  2 29  1  0
  3 19  4  0
  3 25  4  0
  4 23  4  0
  4 27  1  0
  4 30  4  0
  5 17  1  0
  6  8  1  0
  6 29  1  0
  7 24  4  0
  7 26  4  0
  8 28  1  0
  9 13  2  0
 10 18  1  0
 10 21  4  0
 10 30  4  0
 11 17  2  0
 12 18  1  0
 13 15  1  0
 14 24  1  0
 15 25  1  0
 16 28  2  0
 17 20  1  0
 19 24  4  0
 20 23  1  0
 21 22  4  0
 22 23  4  0
 25 26  4  0
 27 29  2  0
M  END
$$$$

 Created by Python create_sdf_string function

 30 33  0  0  0  0  0  0  0  0999 V2000
    8.3036    9.8571   18.4133 C   0  0  0  0  0  0  0  0  0  0  0  0
    8.3694    7.6612   22.6703 C   0  0  0  0  0  0  0  0  0  0  0  0
    8.4143    6.6863   16.2273 C   0  0  0  0  0  0  0  0  0  0  0  0
   10.7581    6.5674   21.7636 C   0  0  0  0  0  0  0  0  0  0  0  0
    8.4452    8.7960   19.2958 O   0  0  0  0  0  0  0  0  0  0  0  0
    8.7122    6.7842   24.8569 C   0  0  0  0  0  0  0  0  0  0  0  0
   10.3400    6.1726   14.3081 C   0  0  0  0  0  0  0  0  0  0  0  0
    7.4297    7.5873   24.8962 C   0  0  0  0  0  0  0  0  0  0  0  0
    8.1566   10.0536   16.0516 O   0  0  0  0  0  0  0  0  0  0  0  0
   12.4989    6.2074   20.1776 C   0  0  0  0  0  0  0  0  0  0  0  0
    6.9192    9.1053   20.9073 O   0  0  0  0  0  0  0  0  0  0  0  0
   14.3979    6.0729   18.7784 C   0  0  0  0  0  0  0  0  0  0  0  0
    8.6811    9.5354   16.9998 C   0  0  0  0  0  0  0  0  0  0  0  0
    9.2512    4.2713   13.7653 O   0  0  0  0  0  0  0  0  0  0  0  0
    9.6495    8.6317   16.8332 N   0  0  0  0  0  0  0  0  0  0  0  0
    6.2934    8.6988   23.1988 O   0  0  0  0  0  0  0  0  0  0  0  0
    7.9806    8.6543   20.5437 C   0  0  0  0  0  0  0  0  0  0  0  0
   13.7270    5.7144   19.8610 O   0  0  0  0  0  0  0  0  0  0  0  0
    8.3351    5.5235   15.4478 C   0  0  0  0  0  0  0  0  0  0  0  0
    8.7700    7.8434   21.3915 C   0  0  0  0  0  0  0  0  0  0  0  0
   11.7856    6.8851   19.2401 C   0  0  0  0  0  0  0  0  0  0  0  0
   10.5281    7.4276   19.5649 C   0  0  0  0  0  0  0  0  0  0  0  0
   10.0256    7.2907   20.8484 C   0  0  0  0  0  0  0  0  0  0  0  0
    9.3113    5.3049   14.4911 C   0  0  0  0  0  0  0  0  0  0  0  0
    9.4607    7.5646   16.0139 C   0  0  0  0  0  0  0  0  0  0  0  0
   10.4192    7.3157   15.0955 C   0  0  0  0  0  0  0  0  0  0  0  0
   10.2489    6.4227   23.0218 N   0  0  0  0  0  0  0  0  0  0  0  0
    7.2472    8.0746   23.5050 C   0  0  0  0  0  0  0  0  0  0  0  0
    9.2051    6.9101   23.4604 C   0  0  0  0  0  0  0  0  0  0  0  0
   11.9646    6.0299   21.4251 C   0  0  0  0  0  0  0  0  0  0  0  0
  1  5  1  0
  1 13  1  0
  2 20  2  0
  2 28  1  0
  2 29  1  0
  3 19  4  0
  3 25  4  0
  4 23  4  0
  4 27  1  0
  4 30  4  0
  5 17  1  0
  6  8  1  0
  6 29  1  0
  7 24  4  0
  7 26  4  0
  8 28  1  0
  9 13  2  0
 10 18  1  0
 10 21  4  0
 10 30  4  0
 11 17  2  0
 12 18  1  0
 13 15  1  0
 14 24  1  0
 15 25  1  0
 16 28  2  0
 17 20  1  0
 19 24  4  0
 20 23  1  0
 21 22  4  0
 22 23  4  0
 25 26  4  0
 27 29  2  0
M  END
$$$$

 Created by Python create_sdf_string function

 30 33  0  0  0  0  0  0  0  0999 V2000
    8.3036    9.8571   18.4133 C   0  0  0  0  0  0  0  0  0  0  0  0
    8.3694    7.6612   22.6703 C   0  0  0  0  0  0  0  0  0  0  0  0
    8.4143    6.6863   16.2273 C   0  0  0  0  0  0  0  0  0  0  0  0
   10.7581    6.5674   21.7636 C   0  0  0  0  0  0  0  0  0  0  0  0
    8.4452    8.7960   19.2958 O   0  0  0  0  0  0  0  0  0  0  0  0
    8.7122    6.7842   24.8569 C   0  0  0  0  0  0  0  0  0  0  0  0
   10.3400    6.1726   14.3081 C   0  0  0  0  0  0  0  0  0  0  0  0
    7.4297    7.5873   24.8962 C   0  0  0  0  0  0  0  0  0  0  0  0
    8.1566   10.0536   16.0516 O   0  0  0  0  0  0  0  0  0  0  0  0
   12.4989    6.2074   20.1776 C   0  0  0  0  0  0  0  0  0  0  0  0
    6.9192    9.1053   20.9073 O   0  0  0  0  0  0  0  0  0  0  0  0
   14.3979    6.0729   18.7784 C   0  0  0  0  0  0  0  0  0  0  0  0
    8.6811    9.5354   16.9998 C   0  0  0  0  0  0  0  0  0  0  0  0
    9.2512    4.2713   13.7653 O   0  0  0  0  0  0  0  0  0  0  0  0
    9.6495    8.6317   16.8332 N   0  0  0  0  0  0  0  0  0  0  0  0
    6.2934    8.6988   23.1988 O   0  0  0  0  0  0  0  0  0  0  0  0
    7.9806    8.6543   20.5437 C   0  0  0  0  0  0  0  0  0  0  0  0
   13.7270    5.7144   19.8610 O   0  0  0  0  0  0  0  0  0  0  0  0
    8.3351    5.5235   15.4478 C   0  0  0  0  0  0  0  0  0  0  0  0
    8.7700    7.8434   21.3915 C   0  0  0  0  0  0  0  0  0  0  0  0
   11.7856    6.8851   19.2401 C   0  0  0  0  0  0  0  0  0  0  0  0
   10.5281    7.4276   19.5649 C   0  0  0  0  0  0  0  0  0  0  0  0
   10.0256    7.2907   20.8484 C   0  0  0  0  0  0  0  0  0  0  0  0
    9.3113    5.3049   14.4911 C   0  0  0  0  0  0  0  0  0  0  0  0
    9.4607    7.5646   16.0139 C   0  0  0  0  0  0  0  0  0  0  0  0
   10.4192    7.3157   15.0955 C   0  0  0  0  0  0  0  0  0  0  0  0
   10.2489    6.4227   23.0218 N   0  0  0  0  0  0  0  0  0  0  0  0
    7.2472    8.0746   23.5050 C   0  0  0  0  0  0  0  0  0  0  0  0
    9.2051    6.9101   23.4604 C   0  0  0  0  0  0  0  0  0  0  0  0
   11.9646    6.0299   21.4251 C   0  0  0  0  0  0  0  0  0  0  0  0
  1  5  1  0
  1 13  1  0
  2 20  2  0
  2 28  1  0
  2 29  1  0
  3 19  4  0
  3 25  4  0
  4 23  4  0
  4 27  1  0
  4 30  4  0
  5 17  1  0
  6  8  1  0
  6 29  1  0
  7 24  4  0
  7 26  4  0
  8 28  1  0
  9 13  2  0
 10 18  1  0
 10 21  4  0
 10 30  4  0
 11 17  2  0
 12 18  1  0
 13 15  1  0
 14 24  1  0
 15 25  1  0
 16 28  2  0
 17 20  1  0
 19 24  4  0
 20 23  1  0
 21 22  4  0
 22 23  4  0
 25 26  4  0
 27 29  2  0
M  END
$$$$

 Created by Python create_sdf_string function

 30 33  0  0  0  0  0  0  0  0999 V2000
    8.3036    9.8571   18.4133 C   0  0  0  0  0  0  0  0  0  0  0  0
    8.3694    7.6612   22.6703 C   0  0  0  0  0  0  0  0  0  0  0  0
    8.4143    6.6863   16.2273 C   0  0  0  0  0  0  0  0  0  0  0  0
   10.7581    6.5674   21.7636 C   0  0  0  0  0  0  0  0  0  0  0  0
    8.4452    8.7960   19.2958 O   0  0  0  0  0  0  0  0  0  0  0  0
    8.7122    6.7842   24.8569 C   0  0  0  0  0  0  0  0  0  0  0  0
   10.3400    6.1726   14.3081 C   0  0  0  0  0  0  0  0  0  0  0  0
    7.4297    7.5873   24.8962 C   0  0  0  0  0  0  0  0  0  0  0  0
    8.1566   10.0536   16.0516 O   0  0  0  0  0  0  0  0  0  0  0  0
   12.4989    6.2074   20.1776 C   0  0  0  0  0  0  0  0  0  0  0  0
    6.9192    9.1053   20.9073 O   0  0  0  0  0  0  0  0  0  0  0  0
   14.3979    6.0729   18.7784 C   0  0  0  0  0  0  0  0  0  0  0  0
    8.6811    9.5354   16.9998 C   0  0  0  0  0  0  0  0  0  0  0  0
    9.2512    4.2713   13.7653 O   0  0  0  0  0  0  0  0  0  0  0  0
    9.6495    8.6317   16.8332 N   0  0  0  0  0  0  0  0  0  0  0  0
    6.2934    8.6988   23.1988 O   0  0  0  0  0  0  0  0  0  0  0  0
    7.9806    8.6543   20.5437 C   0  0  0  0  0  0  0  0  0  0  0  0
   13.7270    5.7144   19.8610 O   0  0  0  0  0  0  0  0  0  0  0  0
    8.3351    5.5235   15.4478 C   0  0  0  0  0  0  0  0  0  0  0  0
    8.7700    7.8434   21.3915 C   0  0  0  0  0  0  0  0  0  0  0  0
   11.7856    6.8851   19.2401 C   0  0  0  0  0  0  0  0  0  0  0  0
   10.5281    7.4276   19.5649 C   0  0  0  0  0  0  0  0  0  0  0  0
   10.0256    7.2907   20.8484 C   0  0  0  0  0  0  0  0  0  0  0  0
    9.3113    5.3049   14.4911 C   0  0  0  0  0  0  0  0  0  0  0  0
    9.4607    7.5646   16.0139 C   0  0  0  0  0  0  0  0  0  0  0  0
   10.4192    7.3157   15.0955 C   0  0  0  0  0  0  0  0  0  0  0  0
   10.2489    6.4227   23.0218 N   0  0  0  0  0  0  0  0  0  0  0  0
    7.2472    8.0746   23.5050 C   0  0  0  0  0  0  0  0  0  0  0  0
    9.2051    6.9101   23.4604 C   0  0  0  0  0  0  0  0  0  0  0  0
   11.9646    6.0299   21.4251 C   0  0  0  0  0  0  0  0  0  0  0  0
  1  5  1  0
  1 13  1  0
  2 20  2  0
  2 28  1  0
  2 29  1  0
  3 19  4  0
  3 25  4  0
  4 23  4  0
  4 27  1  0
  4 30  4  0
  5 17  1  0
  6  8  1  0
  6 29  1  0
  7 24  4  0
  7 26  4  0
  8 28  1  0
  9 13  2  0
 10 18  1  0
 10 21  4  0
 10 30  4  0
 11 17  2  0
 12 18  1  0
 13 15  1  0
 14 24  1  0
 15 25  1  0
 16 28  2  0
 17 20  1  0
 19 24  4  0
 20 23  1  0
 21 22  4  0
 22 23  4  0
 25 26  4  0
 27 29  2  0
M  END
$$$$

 Created by Python create_sdf_string function

 30 33  0  0  0  0  0  0  0  0999 V2000
    8.3036    9.8571   18.4133 C   0  0  0  0  0  0  0  0  0  0  0  0
    8.3694    7.6612   22.6703 C   0  0  0  0  0  0  0  0  0  0  0  0
    8.4143    6.6863   16.2273 C   0  0  0  0  0  0  0  0  0  0  0  0
   10.7581    6.5674   21.7636 C   0  0  0  0  0  0  0  0  0  0  0  0
    8.4452    8.7960   19.2958 O   0  0  0  0  0  0  0  0  0  0  0  0
    8.7122    6.7842   24.8569 C   0  0  0  0  0  0  0  0  0  0  0  0
   10.3400    6.1726   14.3081 C   0  0  0  0  0  0  0  0  0  0  0  0
    7.4297    7.5873   24.8962 C   0  0  0  0  0  0  0  0  0  0  0  0
    8.1566   10.0536   16.0516 O   0  0  0  0  0  0  0  0  0  0  0  0
   12.4989    6.2074   20.1776 C   0  0  0  0  0  0  0  0  0  0  0  0
    6.9192    9.1053   20.9073 O   0  0  0  0  0  0  0  0  0  0  0  0
   14.3979    6.0729   18.7784 C   0  0  0  0  0  0  0  0  0  0  0  0
    8.6811    9.5354   16.9998 C   0  0  0  0  0  0  0  0  0  0  0  0
    9.2512    4.2713   13.7653 O   0  0  0  0  0  0  0  0  0  0  0  0
    9.6495    8.6317   16.8332 N   0  0  0  0  0  0  0  0  0  0  0  0
    6.2934    8.6988   23.1988 O   0  0  0  0  0  0  0  0  0  0  0  0
    7.9806    8.6543   20.5437 C   0  0  0  0  0  0  0  0  0  0  0  0
   13.7270    5.7144   19.8610 O   0  0  0  0  0  0  0  0  0  0  0  0
    8.3351    5.5235   15.4478 C   0  0  0  0  0  0  0  0  0  0  0  0
    8.7700    7.8434   21.3915 C   0  0  0  0  0  0  0  0  0  0  0  0
   11.7856    6.8851   19.2401 C   0  0  0  0  0  0  0  0  0  0  0  0
   10.5281    7.4276   19.5649 C   0  0  0  0  0  0  0  0  0  0  0  0
   10.0256    7.2907   20.8484 C   0  0  0  0  0  0  0  0  0  0  0  0
    9.3113    5.3049   14.4911 C   0  0  0  0  0  0  0  0  0  0  0  0
    9.4607    7.5646   16.0139 C   0  0  0  0  0  0  0  0  0  0  0  0
   10.4192    7.3157   15.0955 C   0  0  0  0  0  0  0  0  0  0  0  0
   10.2489    6.4227   23.0218 N   0  0  0  0  0  0  0  0  0  0  0  0
    7.2472    8.0746   23.5050 C   0  0  0  0  0  0  0  0  0  0  0  0
    9.2051    6.9101   23.4604 C   0  0  0  0  0  0  0  0  0  0  0  0
   11.9646    6.0299   21.4251 C   0  0  0  0  0  0  0  0  0  0  0  0
  1  5  1  0
  1 13  1  0
  2 20  2  0
  2 28  1  0
  2 29  1  0
  3 19  4  0
  3 25  4  0
  4 23  4  0
  4 27  1  0
  4 30  4  0
  5 17  1  0
  6  8  1  0
  6 29  1  0
  7 24  4  0
  7 26  4  0
  8 28  1  0
  9 13  2  0
 10 18  1  0
 10 21  4  0
 10 30  4  0
 11 17  2  0
 12 18  1  0
 13 15  1  0
 14 24  1  0
 15 25  1  0
 16 28  2  0
 17 20  1  0
 19 24  4  0
 20 23  1  0
 21 22  4  0
 22 23  4  0
 25 26  4  0
 27 29  2  0
M  END
$$$$

 Created by Python create_sdf_string function

 30 33  0  0  0  0  0  0  0  0999 V2000
    8.3036    9.8571   18.4133 C   0  0  0  0  0  0  0  0  0  0  0  0
    8.3694    7.6612   22.6703 C   0  0  0  0  0  0  0  0  0  0  0  0
    8.4143    6.6863   16.2273 C   0  0  0  0  0  0  0  0  0  0  0  0
   10.7581    6.5674   21.7636 C   0  0  0  0  0  0  0  0  0  0  0  0
    8.4452    8.7960   19.2958 O   0  0  0  0  0  0  0  0  0  0  0  0
    8.7122    6.7842   24.8569 C   0  0  0  0  0  0  0  0  0  0  0  0
   10.3400    6.1726   14.3081 C   0  0  0  0  0  0  0  0  0  0  0  0
    7.4297    7.5873   24.8962 C   0  0  0  0  0  0  0  0  0  0  0  0
    8.1566   10.0536   16.0516 O   0  0  0  0  0  0  0  0  0  0  0  0
   12.4989    6.2074   20.1776 C   0  0  0  0  0  0  0  0  0  0  0  0
    6.9192    9.1053   20.9073 O   0  0  0  0  0  0  0  0  0  0  0  0
   14.3979    6.0729   18.7784 C   0  0  0  0  0  0  0  0  0  0  0  0
    8.6811    9.5354   16.9998 C   0  0  0  0  0  0  0  0  0  0  0  0
    9.2512    4.2713   13.7653 O   0  0  0  0  0  0  0  0  0  0  0  0
    9.6495    8.6317   16.8332 N   0  0  0  0  0  0  0  0  0  0  0  0
    6.2934    8.6988   23.1988 O   0  0  0  0  0  0  0  0  0  0  0  0
    7.9806    8.6543   20.5437 C   0  0  0  0  0  0  0  0  0  0  0  0
   13.7270    5.7144   19.8610 O   0  0  0  0  0  0  0  0  0  0  0  0
    8.3351    5.5235   15.4478 C   0  0  0  0  0  0  0  0  0  0  0  0
    8.7700    7.8434   21.3915 C   0  0  0  0  0  0  0  0  0  0  0  0
   11.7856    6.8851   19.2401 C   0  0  0  0  0  0  0  0  0  0  0  0
   10.5281    7.4276   19.5649 C   0  0  0  0  0  0  0  0  0  0  0  0
   10.0256    7.2907   20.8484 C   0  0  0  0  0  0  0  0  0  0  0  0
    9.3113    5.3049   14.4911 C   0  0  0  0  0  0  0  0  0  0  0  0
    9.4607    7.5646   16.0139 C   0  0  0  0  0  0  0  0  0  0  0  0
   10.4192    7.3157   15.0955 C   0  0  0  0  0  0  0  0  0  0  0  0
   10.2489    6.4227   23.0218 N   0  0  0  0  0  0  0  0  0  0  0  0
    7.2472    8.0746   23.5050 C   0  0  0  0  0  0  0  0  0  0  0  0
    9.2051    6.9101   23.4604 C   0  0  0  0  0  0  0  0  0  0  0  0
   11.9646    6.0299   21.4251 C   0  0  0  0  0  0  0  0  0  0  0  0
  1  5  1  0
  1 13  1  0
  2 20  2  0
  2 28  1  0
  2 29  1  0
  3 19  4  0
  3 25  4  0
  4 23  4  0
  4 27  1  0
  4 30  4  0
  5 17  1  0
  6  8  1  0
  6 29  1  0
  7 24  4  0
  7 26  4  0
  8 28  1  0
  9 13  2  0
 10 18  1  0
 10 21  4  0
 10 30  4  0
 11 17  2  0
 12 18  1  0
 13 15  1  0
 14 24  1  0
 15 25  1  0
 16 28  2  0
 17 20  1  0
 19 24  4  0
 20 23  1  0
 21 22  4  0
 22 23  4  0
 25 26  4  0
 27 29  2  0
M  END
$$$$

 Created by Python create_sdf_string function

 30 33  0  0  0  0  0  0  0  0999 V2000
    8.3036    9.8571   18.4133 C   0  0  0  0  0  0  0  0  0  0  0  0
    8.3694    7.6612   22.6703 C   0  0  0  0  0  0  0  0  0  0  0  0
    8.4143    6.6863   16.2273 C   0  0  0  0  0  0  0  0  0  0  0  0
   10.7581    6.5674   21.7636 C   0  0  0  0  0  0  0  0  0  0  0  0
    8.4452    8.7960   19.2958 O   0  0  0  0  0  0  0  0  0  0  0  0
    8.7122    6.7842   24.8569 C   0  0  0  0  0  0  0  0  0  0  0  0
   10.3400    6.1726   14.3081 C   0  0  0  0  0  0  0  0  0  0  0  0
    7.4297    7.5873   24.8962 C   0  0  0  0  0  0  0  0  0  0  0  0
    8.1566   10.0536   16.0516 O   0  0  0  0  0  0  0  0  0  0  0  0
   12.4989    6.2074   20.1776 C   0  0  0  0  0  0  0  0  0  0  0  0
    6.9192    9.1053   20.9073 O   0  0  0  0  0  0  0  0  0  0  0  0
   14.3979    6.0729   18.7784 C   0  0  0  0  0  0  0  0  0  0  0  0
    8.6811    9.5354   16.9998 C   0  0  0  0  0  0  0  0  0  0  0  0
    9.2512    4.2713   13.7653 O   0  0  0  0  0  0  0  0  0  0  0  0
    9.6495    8.6317   16.8332 N   0  0  0  0  0  0  0  0  0  0  0  0
    6.2934    8.6988   23.1988 O   0  0  0  0  0  0  0  0  0  0  0  0
    7.9806    8.6543   20.5437 C   0  0  0  0  0  0  0  0  0  0  0  0
   13.7270    5.7144   19.8610 O   0  0  0  0  0  0  0  0  0  0  0  0
    8.3351    5.5235   15.4478 C   0  0  0  0  0  0  0  0  0  0  0  0
    8.7700    7.8434   21.3915 C   0  0  0  0  0  0  0  0  0  0  0  0
   11.7856    6.8851   19.2401 C   0  0  0  0  0  0  0  0  0  0  0  0
   10.5281    7.4276   19.5649 C   0  0  0  0  0  0  0  0  0  0  0  0
   10.0256    7.2907   20.8484 C   0  0  0  0  0  0  0  0  0  0  0  0
    9.3113    5.3049   14.4911 C   0  0  0  0  0  0  0  0  0  0  0  0
    9.4607    7.5646   16.0139 C   0  0  0  0  0  0  0  0  0  0  0  0
   10.4192    7.3157   15.0955 C   0  0  0  0  0  0  0  0  0  0  0  0
   10.2489    6.4227   23.0218 N   0  0  0  0  0  0  0  0  0  0  0  0
    7.2472    8.0746   23.5050 C   0  0  0  0  0  0  0  0  0  0  0  0
    9.2051    6.9101   23.4604 C   0  0  0  0  0  0  0  0  0  0  0  0
   11.9646    6.0299   21.4251 C   0  0  0  0  0  0  0  0  0  0  0  0
  1  5  1  0
  1 13  1  0
  2 20  2  0
  2 28  1  0
  2 29  1  0
  3 19  4  0
  3 25  4  0
  4 23  4  0
  4 27  1  0
  4 30  4  0
  5 17  1  0
  6  8  1  0
  6 29  1  0
  7 24  4  0
  7 26  4  0
  8 28  1  0
  9 13  2  0
 10 18  1  0
 10 21  4  0
 10 30  4  0
 11 17  2  0
 12 18  1  0
 13 15  1  0
 14 24  1  0
 15 25  1  0
 16 28  2  0
 17 20  1  0
 19 24  4  0
 20 23  1  0
 21 22  4  0
 22 23  4  0
 25 26  4  0
 27 29  2  0
M  END
$$$$

 Created by Python create_sdf_string function

 30 33  0  0  0  0  0  0  0  0999 V2000
    8.3036    9.8571   18.4133 C   0  0  0  0  0  0  0  0  0  0  0  0
    8.3694    7.6612   22.6703 C   0  0  0  0  0  0  0  0  0  0  0  0
    8.4143    6.6863   16.2273 C   0  0  0  0  0  0  0  0  0  0  0  0
   10.7581    6.5674   21.7636 C   0  0  0  0  0  0  0  0  0  0  0  0
    8.4452    8.7960   19.2958 O   0  0  0  0  0  0  0  0  0  0  0  0
    8.7122    6.7842   24.8569 C   0  0  0  0  0  0  0  0  0  0  0  0
   10.3400    6.1726   14.3081 C   0  0  0  0  0  0  0  0  0  0  0  0
    7.4297    7.5873   24.8962 C   0  0  0  0  0  0  0  0  0  0  0  0
    8.1566   10.0536   16.0516 O   0  0  0  0  0  0  0  0  0  0  0  0
   12.4989    6.2074   20.1776 C   0  0  0  0  0  0  0  0  0  0  0  0
    6.9192    9.1053   20.9073 O   0  0  0  0  0  0  0  0  0  0  0  0
   14.3979    6.0729   18.7784 C   0  0  0  0  0  0  0  0  0  0  0  0
    8.6811    9.5354   16.9998 C   0  0  0  0  0  0  0  0  0  0  0  0
    9.2512    4.2713   13.7653 O   0  0  0  0  0  0  0  0  0  0  0  0
    9.6495    8.6317   16.8332 N   0  0  0  0  0  0  0  0  0  0  0  0
    6.2934    8.6988   23.1988 O   0  0  0  0  0  0  0  0  0  0  0  0
    7.9806    8.6543   20.5437 C   0  0  0  0  0  0  0  0  0  0  0  0
   13.7270    5.7144   19.8610 O   0  0  0  0  0  0  0  0  0  0  0  0
    8.3351    5.5235   15.4478 C   0  0  0  0  0  0  0  0  0  0  0  0
    8.7700    7.8434   21.3915 C   0  0  0  0  0  0  0  0  0  0  0  0
   11.7856    6.8851   19.2401 C   0  0  0  0  0  0  0  0  0  0  0  0
   10.5281    7.4276   19.5649 C   0  0  0  0  0  0  0  0  0  0  0  0
   10.0256    7.2907   20.8484 C   0  0  0  0  0  0  0  0  0  0  0  0
    9.3113    5.3049   14.4911 C   0  0  0  0  0  0  0  0  0  0  0  0
    9.4607    7.5646   16.0139 C   0  0  0  0  0  0  0  0  0  0  0  0
   10.4192    7.3157   15.0955 C   0  0  0  0  0  0  0  0  0  0  0  0
   10.2489    6.4227   23.0218 N   0  0  0  0  0  0  0  0  0  0  0  0
    7.2472    8.0746   23.5050 C   0  0  0  0  0  0  0  0  0  0  0  0
    9.2051    6.9101   23.4604 C   0  0  0  0  0  0  0  0  0  0  0  0
   11.9646    6.0299   21.4251 C   0  0  0  0  0  0  0  0  0  0  0  0
  1  5  1  0
  1 13  1  0
  2 20  2  0
  2 28  1  0
  2 29  1  0
  3 19  4  0
  3 25  4  0
  4 23  4  0
  4 27  1  0
  4 30  4  0
  5 17  1  0
  6  8  1  0
  6 29  1  0
  7 24  4  0
  7 26  4  0
  8 28  1  0
  9 13  2  0
 10 18  1  0
 10 21  4  0
 10 30  4  0
 11 17  2  0
 12 18  1  0
 13 15  1  0
 14 24  1  0
 15 25  1  0
 16 28  2  0
 17 20  1  0
 19 24  4  0
 20 23  1  0
 21 22  4  0
 22 23  4  0
 25 26  4  0
 27 29  2  0
M  END
$$$$

 Created by Python create_sdf_string function

 30 33  0  0  0  0  0  0  0  0999 V2000
    8.3036    9.8571   18.4133 C   0  0  0  0  0  0  0  0  0  0  0  0
    8.3694    7.6612   22.6703 C   0  0  0  0  0  0  0  0  0  0  0  0
    8.4143    6.6863   16.2273 C   0  0  0  0  0  0  0  0  0  0  0  0
   10.7581    6.5674   21.7636 C   0  0  0  0  0  0  0  0  0  0  0  0
    8.4452    8.7960   19.2958 O   0  0  0  0  0  0  0  0  0  0  0  0
    8.7122    6.7842   24.8569 C   0  0  0  0  0  0  0  0  0  0  0  0
   10.3400    6.1726   14.3081 C   0  0  0  0  0  0  0  0  0  0  0  0
    7.4297    7.5873   24.8962 C   0  0  0  0  0  0  0  0  0  0  0  0
    8.1566   10.0536   16.0516 O   0  0  0  0  0  0  0  0  0  0  0  0
   12.4989    6.2074   20.1776 C   0  0  0  0  0  0  0  0  0  0  0  0
    6.9192    9.1053   20.9073 O   0  0  0  0  0  0  0  0  0  0  0  0
   14.3979    6.0729   18.7784 C   0  0  0  0  0  0  0  0  0  0  0  0
    8.6811    9.5354   16.9998 C   0  0  0  0  0  0  0  0  0  0  0  0
    9.2512    4.2713   13.7653 O   0  0  0  0  0  0  0  0  0  0  0  0
    9.6495    8.6317   16.8332 N   0  0  0  0  0  0  0  0  0  0  0  0
    6.2934    8.6988   23.1988 O   0  0  0  0  0  0  0  0  0  0  0  0
    7.9806    8.6543   20.5437 C   0  0  0  0  0  0  0  0  0  0  0  0
   13.7270    5.7144   19.8610 O   0  0  0  0  0  0  0  0  0  0  0  0
    8.3351    5.5235   15.4478 C   0  0  0  0  0  0  0  0  0  0  0  0
    8.7700    7.8434   21.3915 C   0  0  0  0  0  0  0  0  0  0  0  0
   11.7856    6.8851   19.2401 C   0  0  0  0  0  0  0  0  0  0  0  0
   10.5281    7.4276   19.5649 C   0  0  0  0  0  0  0  0  0  0  0  0
   10.0256    7.2907   20.8484 C   0  0  0  0  0  0  0  0  0  0  0  0
    9.3113    5.3049   14.4911 C   0  0  0  0  0  0  0  0  0  0  0  0
    9.4607    7.5646   16.0139 C   0  0  0  0  0  0  0  0  0  0  0  0
   10.4192    7.3157   15.0955 C   0  0  0  0  0  0  0  0  0  0  0  0
   10.2489    6.4227   23.0218 N   0  0  0  0  0  0  0  0  0  0  0  0
    7.2472    8.0746   23.5050 C   0  0  0  0  0  0  0  0  0  0  0  0
    9.2051    6.9101   23.4604 C   0  0  0  0  0  0  0  0  0  0  0  0
   11.9646    6.0299   21.4251 C   0  0  0  0  0  0  0  0  0  0  0  0
  1  5  1  0
  1 13  1  0
  2 20  2  0
  2 28  1  0
  2 29  1  0
  3 19  4  0
  3 25  4  0
  4 23  4  0
  4 27  1  0
  4 30  4  0
  5 17  1  0
  6  8  1  0
  6 29  1  0
  7 24  4  0
  7 26  4  0
  8 28  1  0
  9 13  2  0
 10 18  1  0
 10 21  4  0
 10 30  4  0
 11 17  2  0
 12 18  1  0
 13 15  1  0
 14 24  1  0
 15 25  1  0
 16 28  2  0
 17 20  1  0
 19 24  4  0
 20 23  1  0
 21 22  4  0
 22 23  4  0
 25 26  4  0
 27 29  2  0
M  END
$$$$

 Created by Python create_sdf_string function

 30 33  0  0  0  0  0  0  0  0999 V2000
    8.3036    9.8571   18.4133 C   0  0  0  0  0  0  0  0  0  0  0  0
    8.3694    7.6612   22.6703 C   0  0  0  0  0  0  0  0  0  0  0  0
    8.4143    6.6863   16.2273 C   0  0  0  0  0  0  0  0  0  0  0  0
   10.7581    6.5674   21.7636 C   0  0  0  0  0  0  0  0  0  0  0  0
    8.4452    8.7960   19.2958 O   0  0  0  0  0  0  0  0  0  0  0  0
    8.7122    6.7842   24.8569 C   0  0  0  0  0  0  0  0  0  0  0  0
   10.3400    6.1726   14.3081 C   0  0  0  0  0  0  0  0  0  0  0  0
    7.4297    7.5873   24.8962 C   0  0  0  0  0  0  0  0  0  0  0  0
    8.1566   10.0536   16.0516 O   0  0  0  0  0  0  0  0  0  0  0  0
   12.4989    6.2074   20.1776 C   0  0  0  0  0  0  0  0  0  0  0  0
    6.9192    9.1053   20.9073 O   0  0  0  0  0  0  0  0  0  0  0  0
   14.3979    6.0729   18.7784 C   0  0  0  0  0  0  0  0  0  0  0  0
    8.6811    9.5354   16.9998 C   0  0  0  0  0  0  0  0  0  0  0  0
    9.2512    4.2713   13.7653 O   0  0  0  0  0  0  0  0  0  0  0  0
    9.6495    8.6317   16.8332 N   0  0  0  0  0  0  0  0  0  0  0  0
    6.2934    8.6988   23.1988 O   0  0  0  0  0  0  0  0  0  0  0  0
    7.9806    8.6543   20.5437 C   0  0  0  0  0  0  0  0  0  0  0  0
   13.7270    5.7144   19.8610 O   0  0  0  0  0  0  0  0  0  0  0  0
    8.3351    5.5235   15.4478 C   0  0  0  0  0  0  0  0  0  0  0  0
    8.7700    7.8434   21.3915 C   0  0  0  0  0  0  0  0  0  0  0  0
   11.7856    6.8851   19.2401 C   0  0  0  0  0  0  0  0  0  0  0  0
   10.5281    7.4276   19.5649 C   0  0  0  0  0  0  0  0  0  0  0  0
   10.0256    7.2907   20.8484 C   0  0  0  0  0  0  0  0  0  0  0  0
    9.3113    5.3049   14.4911 C   0  0  0  0  0  0  0  0  0  0  0  0
    9.4607    7.5646   16.0139 C   0  0  0  0  0  0  0  0  0  0  0  0
   10.4192    7.3157   15.0955 C   0  0  0  0  0  0  0  0  0  0  0  0
   10.2489    6.4227   23.0218 N   0  0  0  0  0  0  0  0  0  0  0  0
    7.2472    8.0746   23.5050 C   0  0  0  0  0  0  0  0  0  0  0  0
    9.2051    6.9101   23.4604 C   0  0  0  0  0  0  0  0  0  0  0  0
   11.9646    6.0299   21.4251 C   0  0  0  0  0  0  0  0  0  0  0  0
  1  5  1  0
  1 13  1  0
  2 20  2  0
  2 28  1  0
  2 29  1  0
  3 19  4  0
  3 25  4  0
  4 23  4  0
  4 27  1  0
  4 30  4  0
  5 17  1  0
  6  8  1  0
  6 29  1  0
  7 24  4  0
  7 26  4  0
  8 28  1  0
  9 13  2  0
 10 18  1  0
 10 21  4  0
 10 30  4  0
 11 17  2  0
 12 18  1  0
 13 15  1  0
 14 24  1  0
 15 25  1  0
 16 28  2  0
 17 20  1  0
 19 24  4  0
 20 23  1  0
 21 22  4  0
 22 23  4  0
 25 26  4  0
 27 29  2  0
M  END
$$$$

 Created by Python create_sdf_string function

 30 33  0  0  0  0  0  0  0  0999 V2000
    8.3036    9.8571   18.4133 C   0  0  0  0  0  0  0  0  0  0  0  0
    8.3694    7.6612   22.6703 C   0  0  0  0  0  0  0  0  0  0  0  0
    8.4143    6.6863   16.2273 C   0  0  0  0  0  0  0  0  0  0  0  0
   10.7581    6.5674   21.7636 C   0  0  0  0  0  0  0  0  0  0  0  0
    8.4452    8.7960   19.2958 O   0  0  0  0  0  0  0  0  0  0  0  0
    8.7122    6.7842   24.8569 C   0  0  0  0  0  0  0  0  0  0  0  0
   10.3400    6.1726   14.3081 C   0  0  0  0  0  0  0  0  0  0  0  0
    7.4297    7.5873   24.8962 C   0  0  0  0  0  0  0  0  0  0  0  0
    8.1566   10.0536   16.0516 O   0  0  0  0  0  0  0  0  0  0  0  0
   12.4989    6.2074   20.1776 C   0  0  0  0  0  0  0  0  0  0  0  0
    6.9192    9.1053   20.9073 O   0  0  0  0  0  0  0  0  0  0  0  0
   14.3979    6.0729   18.7784 C   0  0  0  0  0  0  0  0  0  0  0  0
    8.6811    9.5354   16.9998 C   0  0  0  0  0  0  0  0  0  0  0  0
    9.2512    4.2713   13.7653 O   0  0  0  0  0  0  0  0  0  0  0  0
    9.6495    8.6317   16.8332 N   0  0  0  0  0  0  0  0  0  0  0  0
    6.2934    8.6988   23.1988 O   0  0  0  0  0  0  0  0  0  0  0  0
    7.9806    8.6543   20.5437 C   0  0  0  0  0  0  0  0  0  0  0  0
   13.7270    5.7144   19.8610 O   0  0  0  0  0  0  0  0  0  0  0  0
    8.3351    5.5235   15.4478 C   0  0  0  0  0  0  0  0  0  0  0  0
    8.7700    7.8434   21.3915 C   0  0  0  0  0  0  0  0  0  0  0  0
   11.7856    6.8851   19.2401 C   0  0  0  0  0  0  0  0  0  0  0  0
   10.5281    7.4276   19.5649 C   0  0  0  0  0  0  0  0  0  0  0  0
   10.0256    7.2907   20.8484 C   0  0  0  0  0  0  0  0  0  0  0  0
    9.3113    5.3049   14.4911 C   0  0  0  0  0  0  0  0  0  0  0  0
    9.4607    7.5646   16.0139 C   0  0  0  0  0  0  0  0  0  0  0  0
   10.4192    7.3157   15.0955 C   0  0  0  0  0  0  0  0  0  0  0  0
   10.2489    6.4227   23.0218 N   0  0  0  0  0  0  0  0  0  0  0  0
    7.2472    8.0746   23.5050 C   0  0  0  0  0  0  0  0  0  0  0  0
    9.2051    6.9101   23.4604 C   0  0  0  0  0  0  0  0  0  0  0  0
   11.9646    6.0299   21.4251 C   0  0  0  0  0  0  0  0  0  0  0  0
  1  5  1  0
  1 13  1  0
  2 20  2  0
  2 28  1  0
  2 29  1  0
  3 19  4  0
  3 25  4  0
  4 23  4  0
  4 27  1  0
  4 30  4  0
  5 17  1  0
  6  8  1  0
  6 29  1  0
  7 24  4  0
  7 26  4  0
  8 28  1  0
  9 13  2  0
 10 18  1  0
 10 21  4  0
 10 30  4  0
 11 17  2  0
 12 18  1  0
 13 15  1  0
 14 24  1  0
 15 25  1  0
 16 28  2  0
 17 20  1  0
 19 24  4  0
 20 23  1  0
 21 22  4  0
 22 23  4  0
 25 26  4  0
 27 29  2  0
M  END
$$$$

 Created by Python create_sdf_string function

 30 33  0  0  0  0  0  0  0  0999 V2000
    8.3036    9.8571   18.4133 C   0  0  0  0  0  0  0  0  0  0  0  0
    8.3694    7.6612   22.6703 C   0  0  0  0  0  0  0  0  0  0  0  0
    8.4143    6.6863   16.2273 C   0  0  0  0  0  0  0  0  0  0  0  0
   10.7581    6.5674   21.7636 C   0  0  0  0  0  0  0  0  0  0  0  0
    8.4452    8.7960   19.2958 O   0  0  0  0  0  0  0  0  0  0  0  0
    8.7122    6.7842   24.8569 C   0  0  0  0  0  0  0  0  0  0  0  0
   10.3400    6.1726   14.3081 C   0  0  0  0  0  0  0  0  0  0  0  0
    7.4297    7.5873   24.8962 C   0  0  0  0  0  0  0  0  0  0  0  0
    8.1566   10.0536   16.0516 O   0  0  0  0  0  0  0  0  0  0  0  0
   12.4989    6.2074   20.1776 C   0  0  0  0  0  0  0  0  0  0  0  0
    6.9192    9.1053   20.9073 O   0  0  0  0  0  0  0  0  0  0  0  0
   14.3979    6.0729   18.7784 C   0  0  0  0  0  0  0  0  0  0  0  0
    8.6811    9.5354   16.9998 C   0  0  0  0  0  0  0  0  0  0  0  0
    9.2512    4.2713   13.7653 O   0  0  0  0  0  0  0  0  0  0  0  0
    9.6495    8.6317   16.8332 N   0  0  0  0  0  0  0  0  0  0  0  0
    6.2934    8.6988   23.1988 O   0  0  0  0  0  0  0  0  0  0  0  0
    7.9806    8.6543   20.5437 C   0  0  0  0  0  0  0  0  0  0  0  0
   13.7270    5.7144   19.8610 O   0  0  0  0  0  0  0  0  0  0  0  0
    8.3351    5.5235   15.4478 C   0  0  0  0  0  0  0  0  0  0  0  0
    8.7700    7.8434   21.3915 C   0  0  0  0  0  0  0  0  0  0  0  0
   11.7856    6.8851   19.2401 C   0  0  0  0  0  0  0  0  0  0  0  0
   10.5281    7.4276   19.5649 C   0  0  0  0  0  0  0  0  0  0  0  0
   10.0256    7.2907   20.8484 C   0  0  0  0  0  0  0  0  0  0  0  0
    9.3113    5.3049   14.4911 C   0  0  0  0  0  0  0  0  0  0  0  0
    9.4607    7.5646   16.0139 C   0  0  0  0  0  0  0  0  0  0  0  0
   10.4192    7.3157   15.0955 C   0  0  0  0  0  0  0  0  0  0  0  0
   10.2489    6.4227   23.0218 N   0  0  0  0  0  0  0  0  0  0  0  0
    7.2472    8.0746   23.5050 C   0  0  0  0  0  0  0  0  0  0  0  0
    9.2051    6.9101   23.4604 C   0  0  0  0  0  0  0  0  0  0  0  0
   11.9646    6.0299   21.4251 C   0  0  0  0  0  0  0  0  0  0  0  0
  1  5  1  0
  1 13  1  0
  2 20  2  0
  2 28  1  0
  2 29  1  0
  3 19  4  0
  3 25  4  0
  4 23  4  0
  4 27  1  0
  4 30  4  0
  5 17  1  0
  6  8  1  0
  6 29  1  0
  7 24  4  0
  7 26  4  0
  8 28  1  0
  9 13  2  0
 10 18  1  0
 10 21  4  0
 10 30  4  0
 11 17  2  0
 12 18  1  0
 13 15  1  0
 14 24  1  0
 15 25  1  0
 16 28  2  0
 17 20  1  0
 19 24  4  0
 20 23  1  0
 21 22  4  0
 22 23  4  0
 25 26  4  0
 27 29  2  0
M  END
$$$$

 Created by Python create_sdf_string function

 30 33  0  0  0  0  0  0  0  0999 V2000
    8.3036    9.8571   18.4133 C   0  0  0  0  0  0  0  0  0  0  0  0
    8.3694    7.6612   22.6703 C   0  0  0  0  0  0  0  0  0  0  0  0
    8.4143    6.6863   16.2273 C   0  0  0  0  0  0  0  0  0  0  0  0
   10.7581    6.5674   21.7636 C   0  0  0  0  0  0  0  0  0  0  0  0
    8.4452    8.7960   19.2958 O   0  0  0  0  0  0  0  0  0  0  0  0
    8.7122    6.7842   24.8569 C   0  0  0  0  0  0  0  0  0  0  0  0
   10.3400    6.1726   14.3081 C   0  0  0  0  0  0  0  0  0  0  0  0
    7.4297    7.5873   24.8962 C   0  0  0  0  0  0  0  0  0  0  0  0
    8.1566   10.0536   16.0516 O   0  0  0  0  0  0  0  0  0  0  0  0
   12.4989    6.2074   20.1776 C   0  0  0  0  0  0  0  0  0  0  0  0
    6.9192    9.1053   20.9073 O   0  0  0  0  0  0  0  0  0  0  0  0
   14.3979    6.0729   18.7784 C   0  0  0  0  0  0  0  0  0  0  0  0
    8.6811    9.5354   16.9998 C   0  0  0  0  0  0  0  0  0  0  0  0
    9.2512    4.2713   13.7653 O   0  0  0  0  0  0  0  0  0  0  0  0
    9.6495    8.6317   16.8332 N   0  0  0  0  0  0  0  0  0  0  0  0
    6.2934    8.6988   23.1988 O   0  0  0  0  0  0  0  0  0  0  0  0
    7.9806    8.6543   20.5437 C   0  0  0  0  0  0  0  0  0  0  0  0
   13.7270    5.7144   19.8610 O   0  0  0  0  0  0  0  0  0  0  0  0
    8.3351    5.5235   15.4478 C   0  0  0  0  0  0  0  0  0  0  0  0
    8.7700    7.8434   21.3915 C   0  0  0  0  0  0  0  0  0  0  0  0
   11.7856    6.8851   19.2401 C   0  0  0  0  0  0  0  0  0  0  0  0
   10.5281    7.4276   19.5649 C   0  0  0  0  0  0  0  0  0  0  0  0
   10.0256    7.2907   20.8484 C   0  0  0  0  0  0  0  0  0  0  0  0
    9.3113    5.3049   14.4911 C   0  0  0  0  0  0  0  0  0  0  0  0
    9.4607    7.5646   16.0139 C   0  0  0  0  0  0  0  0  0  0  0  0
   10.4192    7.3157   15.0955 C   0  0  0  0  0  0  0  0  0  0  0  0
   10.2489    6.4227   23.0218 N   0  0  0  0  0  0  0  0  0  0  0  0
    7.2472    8.0746   23.5050 C   0  0  0  0  0  0  0  0  0  0  0  0
    9.2051    6.9101   23.4604 C   0  0  0  0  0  0  0  0  0  0  0  0
   11.9646    6.0299   21.4251 C   0  0  0  0  0  0  0  0  0  0  0  0
  1  5  1  0
  1 13  1  0
  2 20  2  0
  2 28  1  0
  2 29  1  0
  3 19  4  0
  3 25  4  0
  4 23  4  0
  4 27  1  0
  4 30  4  0
  5 17  1  0
  6  8  1  0
  6 29  1  0
  7 24  4  0
  7 26  4  0
  8 28  1  0
  9 13  2  0
 10 18  1  0
 10 21  4  0
 10 30  4  0
 11 17  2  0
 12 18  1  0
 13 15  1  0
 14 24  1  0
 15 25  1  0
 16 28  2  0
 17 20  1  0
 19 24  4  0
 20 23  1  0
 21 22  4  0
 22 23  4  0
 25 26  4  0
 27 29  2  0
M  END
$$$$

 Created by Python create_sdf_string function

 30 33  0  0  0  0  0  0  0  0999 V2000
    8.3036    9.8571   18.4133 C   0  0  0  0  0  0  0  0  0  0  0  0
    8.3694    7.6612   22.6703 C   0  0  0  0  0  0  0  0  0  0  0  0
    8.4143    6.6863   16.2273 C   0  0  0  0  0  0  0  0  0  0  0  0
   10.7581    6.5674   21.7636 C   0  0  0  0  0  0  0  0  0  0  0  0
    8.4452    8.7960   19.2958 O   0  0  0  0  0  0  0  0  0  0  0  0
    8.7122    6.7842   24.8569 C   0  0  0  0  0  0  0  0  0  0  0  0
   10.3400    6.1726   14.3081 C   0  0  0  0  0  0  0  0  0  0  0  0
    7.4297    7.5873   24.8962 C   0  0  0  0  0  0  0  0  0  0  0  0
    8.1566   10.0536   16.0516 O   0  0  0  0  0  0  0  0  0  0  0  0
   12.4989    6.2074   20.1776 C   0  0  0  0  0  0  0  0  0  0  0  0
    6.9192    9.1053   20.9073 O   0  0  0  0  0  0  0  0  0  0  0  0
   14.3979    6.0729   18.7784 C   0  0  0  0  0  0  0  0  0  0  0  0
    8.6811    9.5354   16.9998 C   0  0  0  0  0  0  0  0  0  0  0  0
    9.2512    4.2713   13.7653 O   0  0  0  0  0  0  0  0  0  0  0  0
    9.6495    8.6317   16.8332 N   0  0  0  0  0  0  0  0  0  0  0  0
    6.2934    8.6988   23.1988 O   0  0  0  0  0  0  0  0  0  0  0  0
    7.9806    8.6543   20.5437 C   0  0  0  0  0  0  0  0  0  0  0  0
   13.7270    5.7144   19.8610 O   0  0  0  0  0  0  0  0  0  0  0  0
    8.3351    5.5235   15.4478 C   0  0  0  0  0  0  0  0  0  0  0  0
    8.7700    7.8434   21.3915 C   0  0  0  0  0  0  0  0  0  0  0  0
   11.7856    6.8851   19.2401 C   0  0  0  0  0  0  0  0  0  0  0  0
   10.5281    7.4276   19.5649 C   0  0  0  0  0  0  0  0  0  0  0  0
   10.0256    7.2907   20.8484 C   0  0  0  0  0  0  0  0  0  0  0  0
    9.3113    5.3049   14.4911 C   0  0  0  0  0  0  0  0  0  0  0  0
    9.4607    7.5646   16.0139 C   0  0  0  0  0  0  0  0  0  0  0  0
   10.4192    7.3157   15.0955 C   0  0  0  0  0  0  0  0  0  0  0  0
   10.2489    6.4227   23.0218 N   0  0  0  0  0  0  0  0  0  0  0  0
    7.2472    8.0746   23.5050 C   0  0  0  0  0  0  0  0  0  0  0  0
    9.2051    6.9101   23.4604 C   0  0  0  0  0  0  0  0  0  0  0  0
   11.9646    6.0299   21.4251 C   0  0  0  0  0  0  0  0  0  0  0  0
  1  5  1  0
  1 13  1  0
  2 20  2  0
  2 28  1  0
  2 29  1  0
  3 19  4  0
  3 25  4  0
  4 23  4  0
  4 27  1  0
  4 30  4  0
  5 17  1  0
  6  8  1  0
  6 29  1  0
  7 24  4  0
  7 26  4  0
  8 28  1  0
  9 13  2  0
 10 18  1  0
 10 21  4  0
 10 30  4  0
 11 17  2  0
 12 18  1  0
 13 15  1  0
 14 24  1  0
 15 25  1  0
 16 28  2  0
 17 20  1  0
 19 24  4  0
 20 23  1  0
 21 22  4  0
 22 23  4  0
 25 26  4  0
 27 29  2  0
M  END
$$$$

 Created by Python create_sdf_string function

 30 33  0  0  0  0  0  0  0  0999 V2000
    8.3036    9.8571   18.4133 C   0  0  0  0  0  0  0  0  0  0  0  0
    8.3694    7.6612   22.6703 C   0  0  0  0  0  0  0  0  0  0  0  0
    8.4143    6.6863   16.2273 C   0  0  0  0  0  0  0  0  0  0  0  0
   10.7581    6.5674   21.7636 C   0  0  0  0  0  0  0  0  0  0  0  0
    8.4452    8.7960   19.2958 O   0  0  0  0  0  0  0  0  0  0  0  0
    8.7122    6.7842   24.8569 C   0  0  0  0  0  0  0  0  0  0  0  0
   10.3400    6.1726   14.3081 C   0  0  0  0  0  0  0  0  0  0  0  0
    7.4297    7.5873   24.8962 C   0  0  0  0  0  0  0  0  0  0  0  0
    8.1566   10.0536   16.0516 O   0  0  0  0  0  0  0  0  0  0  0  0
   12.4989    6.2074   20.1776 C   0  0  0  0  0  0  0  0  0  0  0  0
    6.9192    9.1053   20.9073 O   0  0  0  0  0  0  0  0  0  0  0  0
   14.3979    6.0729   18.7784 C   0  0  0  0  0  0  0  0  0  0  0  0
    8.6811    9.5354   16.9998 C   0  0  0  0  0  0  0  0  0  0  0  0
    9.2512    4.2713   13.7653 O   0  0  0  0  0  0  0  0  0  0  0  0
    9.6495    8.6317   16.8332 N   0  0  0  0  0  0  0  0  0  0  0  0
    6.2934    8.6988   23.1988 O   0  0  0  0  0  0  0  0  0  0  0  0
    7.9806    8.6543   20.5437 C   0  0  0  0  0  0  0  0  0  0  0  0
   13.7270    5.7144   19.8610 O   0  0  0  0  0  0  0  0  0  0  0  0
    8.3351    5.5235   15.4478 C   0  0  0  0  0  0  0  0  0  0  0  0
    8.7700    7.8434   21.3915 C   0  0  0  0  0  0  0  0  0  0  0  0
   11.7856    6.8851   19.2401 C   0  0  0  0  0  0  0  0  0  0  0  0
   10.5281    7.4276   19.5649 C   0  0  0  0  0  0  0  0  0  0  0  0
   10.0256    7.2907   20.8484 C   0  0  0  0  0  0  0  0  0  0  0  0
    9.3113    5.3049   14.4911 C   0  0  0  0  0  0  0  0  0  0  0  0
    9.4607    7.5646   16.0139 C   0  0  0  0  0  0  0  0  0  0  0  0
   10.4192    7.3157   15.0955 C   0  0  0  0  0  0  0  0  0  0  0  0
   10.2489    6.4227   23.0218 N   0  0  0  0  0  0  0  0  0  0  0  0
    7.2472    8.0746   23.5050 C   0  0  0  0  0  0  0  0  0  0  0  0
    9.2051    6.9101   23.4604 C   0  0  0  0  0  0  0  0  0  0  0  0
   11.9646    6.0299   21.4251 C   0  0  0  0  0  0  0  0  0  0  0  0
  1  5  1  0
  1 13  1  0
  2 20  2  0
  2 28  1  0
  2 29  1  0
  3 19  4  0
  3 25  4  0
  4 23  4  0
  4 27  1  0
  4 30  4  0
  5 17  1  0
  6  8  1  0
  6 29  1  0
  7 24  4  0
  7 26  4  0
  8 28  1  0
  9 13  2  0
 10 18  1  0
 10 21  4  0
 10 30  4  0
 11 17  2  0
 12 18  1  0
 13 15  1  0
 14 24  1  0
 15 25  1  0
 16 28  2  0
 17 20  1  0
 19 24  4  0
 20 23  1  0
 21 22  4  0
 22 23  4  0
 25 26  4  0
 27 29  2  0
M  END
$$$$

 Created by Python create_sdf_string function

 30 33  0  0  0  0  0  0  0  0999 V2000
    8.3036    9.8571   18.4133 C   0  0  0  0  0  0  0  0  0  0  0  0
    8.3694    7.6612   22.6703 C   0  0  0  0  0  0  0  0  0  0  0  0
    8.4143    6.6863   16.2273 C   0  0  0  0  0  0  0  0  0  0  0  0
   10.7581    6.5674   21.7636 C   0  0  0  0  0  0  0  0  0  0  0  0
    8.4452    8.7960   19.2958 O   0  0  0  0  0  0  0  0  0  0  0  0
    8.7122    6.7842   24.8569 C   0  0  0  0  0  0  0  0  0  0  0  0
   10.3400    6.1726   14.3081 C   0  0  0  0  0  0  0  0  0  0  0  0
    7.4297    7.5873   24.8962 C   0  0  0  0  0  0  0  0  0  0  0  0
    8.1566   10.0536   16.0516 O   0  0  0  0  0  0  0  0  0  0  0  0
   12.4989    6.2074   20.1776 C   0  0  0  0  0  0  0  0  0  0  0  0
    6.9192    9.1053   20.9073 O   0  0  0  0  0  0  0  0  0  0  0  0
   14.3979    6.0729   18.7784 C   0  0  0  0  0  0  0  0  0  0  0  0
    8.6811    9.5354   16.9998 C   0  0  0  0  0  0  0  0  0  0  0  0
    9.2512    4.2713   13.7653 O   0  0  0  0  0  0  0  0  0  0  0  0
    9.6495    8.6317   16.8332 N   0  0  0  0  0  0  0  0  0  0  0  0
    6.2934    8.6988   23.1988 O   0  0  0  0  0  0  0  0  0  0  0  0
    7.9806    8.6543   20.5437 C   0  0  0  0  0  0  0  0  0  0  0  0
   13.7270    5.7144   19.8610 O   0  0  0  0  0  0  0  0  0  0  0  0
    8.3351    5.5235   15.4478 C   0  0  0  0  0  0  0  0  0  0  0  0
    8.7700    7.8434   21.3915 C   0  0  0  0  0  0  0  0  0  0  0  0
   11.7856    6.8851   19.2401 C   0  0  0  0  0  0  0  0  0  0  0  0
   10.5281    7.4276   19.5649 C   0  0  0  0  0  0  0  0  0  0  0  0
   10.0256    7.2907   20.8484 C   0  0  0  0  0  0  0  0  0  0  0  0
    9.3113    5.3049   14.4911 C   0  0  0  0  0  0  0  0  0  0  0  0
    9.4607    7.5646   16.0139 C   0  0  0  0  0  0  0  0  0  0  0  0
   10.4192    7.3157   15.0955 C   0  0  0  0  0  0  0  0  0  0  0  0
   10.2489    6.4227   23.0218 N   0  0  0  0  0  0  0  0  0  0  0  0
    7.2472    8.0746   23.5050 C   0  0  0  0  0  0  0  0  0  0  0  0
    9.2051    6.9101   23.4604 C   0  0  0  0  0  0  0  0  0  0  0  0
   11.9646    6.0299   21.4251 C   0  0  0  0  0  0  0  0  0  0  0  0
  1  5  1  0
  1 13  1  0
  2 20  2  0
  2 28  1  0
  2 29  1  0
  3 19  4  0
  3 25  4  0
  4 23  4  0
  4 27  1  0
  4 30  4  0
  5 17  1  0
  6  8  1  0
  6 29  1  0
  7 24  4  0
  7 26  4  0
  8 28  1  0
  9 13  2  0
 10 18  1  0
 10 21  4  0
 10 30  4  0
 11 17  2  0
 12 18  1  0
 13 15  1  0
 14 24  1  0
 15 25  1  0
 16 28  2  0
 17 20  1  0
 19 24  4  0
 20 23  1  0
 21 22  4  0
 22 23  4  0
 25 26  4  0
 27 29  2  0
M  END
$$$$

 Created by Python create_sdf_string function

 30 33  0  0  0  0  0  0  0  0999 V2000
    8.3036    9.8571   18.4133 C   0  0  0  0  0  0  0  0  0  0  0  0
    8.3694    7.6612   22.6703 C   0  0  0  0  0  0  0  0  0  0  0  0
    8.4143    6.6863   16.2273 C   0  0  0  0  0  0  0  0  0  0  0  0
   10.7581    6.5674   21.7636 C   0  0  0  0  0  0  0  0  0  0  0  0
    8.4452    8.7960   19.2958 O   0  0  0  0  0  0  0  0  0  0  0  0
    8.7122    6.7842   24.8569 C   0  0  0  0  0  0  0  0  0  0  0  0
   10.3400    6.1726   14.3081 C   0  0  0  0  0  0  0  0  0  0  0  0
    7.4297    7.5873   24.8962 C   0  0  0  0  0  0  0  0  0  0  0  0
    8.1566   10.0536   16.0516 O   0  0  0  0  0  0  0  0  0  0  0  0
   12.4989    6.2074   20.1776 C   0  0  0  0  0  0  0  0  0  0  0  0
    6.9192    9.1053   20.9073 O   0  0  0  0  0  0  0  0  0  0  0  0
   14.3979    6.0729   18.7784 C   0  0  0  0  0  0  0  0  0  0  0  0
    8.6811    9.5354   16.9998 C   0  0  0  0  0  0  0  0  0  0  0  0
    9.2512    4.2713   13.7653 O   0  0  0  0  0  0  0  0  0  0  0  0
    9.6495    8.6317   16.8332 N   0  0  0  0  0  0  0  0  0  0  0  0
    6.2934    8.6988   23.1988 O   0  0  0  0  0  0  0  0  0  0  0  0
    7.9806    8.6543   20.5437 C   0  0  0  0  0  0  0  0  0  0  0  0
   13.7270    5.7144   19.8610 O   0  0  0  0  0  0  0  0  0  0  0  0
    8.3351    5.5235   15.4478 C   0  0  0  0  0  0  0  0  0  0  0  0
    8.7700    7.8434   21.3915 C   0  0  0  0  0  0  0  0  0  0  0  0
   11.7856    6.8851   19.2401 C   0  0  0  0  0  0  0  0  0  0  0  0
   10.5281    7.4276   19.5649 C   0  0  0  0  0  0  0  0  0  0  0  0
   10.0256    7.2907   20.8484 C   0  0  0  0  0  0  0  0  0  0  0  0
    9.3113    5.3049   14.4911 C   0  0  0  0  0  0  0  0  0  0  0  0
    9.4607    7.5646   16.0139 C   0  0  0  0  0  0  0  0  0  0  0  0
   10.4192    7.3157   15.0955 C   0  0  0  0  0  0  0  0  0  0  0  0
   10.2489    6.4227   23.0218 N   0  0  0  0  0  0  0  0  0  0  0  0
    7.2472    8.0746   23.5050 C   0  0  0  0  0  0  0  0  0  0  0  0
    9.2051    6.9101   23.4604 C   0  0  0  0  0  0  0  0  0  0  0  0
   11.9646    6.0299   21.4251 C   0  0  0  0  0  0  0  0  0  0  0  0
  1  5  1  0
  1 13  1  0
  2 20  2  0
  2 28  1  0
  2 29  1  0
  3 19  4  0
  3 25  4  0
  4 23  4  0
  4 27  1  0
  4 30  4  0
  5 17  1  0
  6  8  1  0
  6 29  1  0
  7 24  4  0
  7 26  4  0
  8 28  1  0
  9 13  2  0
 10 18  1  0
 10 21  4  0
 10 30  4  0
 11 17  2  0
 12 18  1  0
 13 15  1  0
 14 24  1  0
 15 25  1  0
 16 28  2  0
 17 20  1  0
 19 24  4  0
 20 23  1  0
 21 22  4  0
 22 23  4  0
 25 26  4  0
 27 29  2  0
M  END
$$$$

 Created by Python create_sdf_string function

 30 33  0  0  0  0  0  0  0  0999 V2000
    8.3036    9.8571   18.4133 C   0  0  0  0  0  0  0  0  0  0  0  0
    8.3694    7.6612   22.6703 C   0  0  0  0  0  0  0  0  0  0  0  0
    8.4143    6.6863   16.2273 C   0  0  0  0  0  0  0  0  0  0  0  0
   10.7581    6.5674   21.7636 C   0  0  0  0  0  0  0  0  0  0  0  0
    8.4452    8.7960   19.2958 O   0  0  0  0  0  0  0  0  0  0  0  0
    8.7122    6.7842   24.8569 C   0  0  0  0  0  0  0  0  0  0  0  0
   10.3400    6.1726   14.3081 C   0  0  0  0  0  0  0  0  0  0  0  0
    7.4297    7.5873   24.8962 C   0  0  0  0  0  0  0  0  0  0  0  0
    8.1566   10.0536   16.0516 O   0  0  0  0  0  0  0  0  0  0  0  0
   12.4989    6.2074   20.1776 C   0  0  0  0  0  0  0  0  0  0  0  0
    6.9192    9.1053   20.9073 O   0  0  0  0  0  0  0  0  0  0  0  0
   14.3979    6.0729   18.7784 C   0  0  0  0  0  0  0  0  0  0  0  0
    8.6811    9.5354   16.9998 C   0  0  0  0  0  0  0  0  0  0  0  0
    9.2512    4.2713   13.7653 O   0  0  0  0  0  0  0  0  0  0  0  0
    9.6495    8.6317   16.8332 N   0  0  0  0  0  0  0  0  0  0  0  0
    6.2934    8.6988   23.1988 O   0  0  0  0  0  0  0  0  0  0  0  0
    7.9806    8.6543   20.5437 C   0  0  0  0  0  0  0  0  0  0  0  0
   13.7270    5.7144   19.8610 O   0  0  0  0  0  0  0  0  0  0  0  0
    8.3351    5.5235   15.4478 C   0  0  0  0  0  0  0  0  0  0  0  0
    8.7700    7.8434   21.3915 C   0  0  0  0  0  0  0  0  0  0  0  0
   11.7856    6.8851   19.2401 C   0  0  0  0  0  0  0  0  0  0  0  0
   10.5281    7.4276   19.5649 C   0  0  0  0  0  0  0  0  0  0  0  0
   10.0256    7.2907   20.8484 C   0  0  0  0  0  0  0  0  0  0  0  0
    9.3113    5.3049   14.4911 C   0  0  0  0  0  0  0  0  0  0  0  0
    9.4607    7.5646   16.0139 C   0  0  0  0  0  0  0  0  0  0  0  0
   10.4192    7.3157   15.0955 C   0  0  0  0  0  0  0  0  0  0  0  0
   10.2489    6.4227   23.0218 N   0  0  0  0  0  0  0  0  0  0  0  0
    7.2472    8.0746   23.5050 C   0  0  0  0  0  0  0  0  0  0  0  0
    9.2051    6.9101   23.4604 C   0  0  0  0  0  0  0  0  0  0  0  0
   11.9646    6.0299   21.4251 C   0  0  0  0  0  0  0  0  0  0  0  0
  1  5  1  0
  1 13  1  0
  2 20  2  0
  2 28  1  0
  2 29  1  0
  3 19  4  0
  3 25  4  0
  4 23  4  0
  4 27  1  0
  4 30  4  0
  5 17  1  0
  6  8  1  0
  6 29  1  0
  7 24  4  0
  7 26  4  0
  8 28  1  0
  9 13  2  0
 10 18  1  0
 10 21  4  0
 10 30  4  0
 11 17  2  0
 12 18  1  0
 13 15  1  0
 14 24  1  0
 15 25  1  0
 16 28  2  0
 17 20  1  0
 19 24  4  0
 20 23  1  0
 21 22  4  0
 22 23  4  0
 25 26  4  0
 27 29  2  0
M  END
$$$$

 Created by Python create_sdf_string function

 30 33  0  0  0  0  0  0  0  0999 V2000
    8.3036    9.8571   18.4133 C   0  0  0  0  0  0  0  0  0  0  0  0
    8.3694    7.6612   22.6703 C   0  0  0  0  0  0  0  0  0  0  0  0
    8.4143    6.6863   16.2273 C   0  0  0  0  0  0  0  0  0  0  0  0
   10.7581    6.5674   21.7636 C   0  0  0  0  0  0  0  0  0  0  0  0
    8.4452    8.7960   19.2958 O   0  0  0  0  0  0  0  0  0  0  0  0
    8.7122    6.7842   24.8569 C   0  0  0  0  0  0  0  0  0  0  0  0
   10.3400    6.1726   14.3081 C   0  0  0  0  0  0  0  0  0  0  0  0
    7.4297    7.5873   24.8962 C   0  0  0  0  0  0  0  0  0  0  0  0
    8.1566   10.0536   16.0516 O   0  0  0  0  0  0  0  0  0  0  0  0
   12.4989    6.2074   20.1776 C   0  0  0  0  0  0  0  0  0  0  0  0
    6.9192    9.1053   20.9073 O   0  0  0  0  0  0  0  0  0  0  0  0
   14.3979    6.0729   18.7784 C   0  0  0  0  0  0  0  0  0  0  0  0
    8.6811    9.5354   16.9998 C   0  0  0  0  0  0  0  0  0  0  0  0
    9.2512    4.2713   13.7653 O   0  0  0  0  0  0  0  0  0  0  0  0
    9.6495    8.6317   16.8332 N   0  0  0  0  0  0  0  0  0  0  0  0
    6.2934    8.6988   23.1988 O   0  0  0  0  0  0  0  0  0  0  0  0
    7.9806    8.6543   20.5437 C   0  0  0  0  0  0  0  0  0  0  0  0
   13.7270    5.7144   19.8610 O   0  0  0  0  0  0  0  0  0  0  0  0
    8.3351    5.5235   15.4478 C   0  0  0  0  0  0  0  0  0  0  0  0
    8.7700    7.8434   21.3915 C   0  0  0  0  0  0  0  0  0  0  0  0
   11.7856    6.8851   19.2401 C   0  0  0  0  0  0  0  0  0  0  0  0
   10.5281    7.4276   19.5649 C   0  0  0  0  0  0  0  0  0  0  0  0
   10.0256    7.2907   20.8484 C   0  0  0  0  0  0  0  0  0  0  0  0
    9.3113    5.3049   14.4911 C   0  0  0  0  0  0  0  0  0  0  0  0
    9.4607    7.5646   16.0139 C   0  0  0  0  0  0  0  0  0  0  0  0
   10.4192    7.3157   15.0955 C   0  0  0  0  0  0  0  0  0  0  0  0
   10.2489    6.4227   23.0218 N   0  0  0  0  0  0  0  0  0  0  0  0
    7.2472    8.0746   23.5050 C   0  0  0  0  0  0  0  0  0  0  0  0
    9.2051    6.9101   23.4604 C   0  0  0  0  0  0  0  0  0  0  0  0
   11.9646    6.0299   21.4251 C   0  0  0  0  0  0  0  0  0  0  0  0
  1  5  1  0
  1 13  1  0
  2 20  2  0
  2 28  1  0
  2 29  1  0
  3 19  4  0
  3 25  4  0
  4 23  4  0
  4 27  1  0
  4 30  4  0
  5 17  1  0
  6  8  1  0
  6 29  1  0
  7 24  4  0
  7 26  4  0
  8 28  1  0
  9 13  2  0
 10 18  1  0
 10 21  4  0
 10 30  4  0
 11 17  2  0
 12 18  1  0
 13 15  1  0
 14 24  1  0
 15 25  1  0
 16 28  2  0
 17 20  1  0
 19 24  4  0
 20 23  1  0
 21 22  4  0
 22 23  4  0
 25 26  4  0
 27 29  2  0
M  END
$$$$

 Created by Python create_sdf_string function

 30 33  0  0  0  0  0  0  0  0999 V2000
    8.3036    9.8571   18.4133 C   0  0  0  0  0  0  0  0  0  0  0  0
    8.3694    7.6612   22.6703 C   0  0  0  0  0  0  0  0  0  0  0  0
    8.4143    6.6863   16.2273 C   0  0  0  0  0  0  0  0  0  0  0  0
   10.7581    6.5674   21.7636 C   0  0  0  0  0  0  0  0  0  0  0  0
    8.4452    8.7960   19.2958 O   0  0  0  0  0  0  0  0  0  0  0  0
    8.7122    6.7842   24.8569 C   0  0  0  0  0  0  0  0  0  0  0  0
   10.3400    6.1726   14.3081 C   0  0  0  0  0  0  0  0  0  0  0  0
    7.4297    7.5873   24.8962 C   0  0  0  0  0  0  0  0  0  0  0  0
    8.1566   10.0536   16.0516 O   0  0  0  0  0  0  0  0  0  0  0  0
   12.4989    6.2074   20.1776 C   0  0  0  0  0  0  0  0  0  0  0  0
    6.9192    9.1053   20.9073 O   0  0  0  0  0  0  0  0  0  0  0  0
   14.3979    6.0729   18.7784 C   0  0  0  0  0  0  0  0  0  0  0  0
    8.6811    9.5354   16.9998 C   0  0  0  0  0  0  0  0  0  0  0  0
    9.2512    4.2713   13.7653 O   0  0  0  0  0  0  0  0  0  0  0  0
    9.6495    8.6317   16.8332 N   0  0  0  0  0  0  0  0  0  0  0  0
    6.2934    8.6988   23.1988 O   0  0  0  0  0  0  0  0  0  0  0  0
    7.9806    8.6543   20.5437 C   0  0  0  0  0  0  0  0  0  0  0  0
   13.7270    5.7144   19.8610 O   0  0  0  0  0  0  0  0  0  0  0  0
    8.3351    5.5235   15.4478 C   0  0  0  0  0  0  0  0  0  0  0  0
    8.7700    7.8434   21.3915 C   0  0  0  0  0  0  0  0  0  0  0  0
   11.7856    6.8851   19.2401 C   0  0  0  0  0  0  0  0  0  0  0  0
   10.5281    7.4276   19.5649 C   0  0  0  0  0  0  0  0  0  0  0  0
   10.0256    7.2907   20.8484 C   0  0  0  0  0  0  0  0  0  0  0  0
    9.3113    5.3049   14.4911 C   0  0  0  0  0  0  0  0  0  0  0  0
    9.4607    7.5646   16.0139 C   0  0  0  0  0  0  0  0  0  0  0  0
   10.4192    7.3157   15.0955 C   0  0  0  0  0  0  0  0  0  0  0  0
   10.2489    6.4227   23.0218 N   0  0  0  0  0  0  0  0  0  0  0  0
    7.2472    8.0746   23.5050 C   0  0  0  0  0  0  0  0  0  0  0  0
    9.2051    6.9101   23.4604 C   0  0  0  0  0  0  0  0  0  0  0  0
   11.9646    6.0299   21.4251 C   0  0  0  0  0  0  0  0  0  0  0  0
  1  5  1  0
  1 13  1  0
  2 20  2  0
  2 28  1  0
  2 29  1  0
  3 19  4  0
  3 25  4  0
  4 23  4  0
  4 27  1  0
  4 30  4  0
  5 17  1  0
  6  8  1  0
  6 29  1  0
  7 24  4  0
  7 26  4  0
  8 28  1  0
  9 13  2  0
 10 18  1  0
 10 21  4  0
 10 30  4  0
 11 17  2  0
 12 18  1  0
 13 15  1  0
 14 24  1  0
 15 25  1  0
 16 28  2  0
 17 20  1  0
 19 24  4  0
 20 23  1  0
 21 22  4  0
 22 23  4  0
 25 26  4  0
 27 29  2  0
M  END
$$$$

 Created by Python create_sdf_string function

 30 33  0  0  0  0  0  0  0  0999 V2000
    8.3036    9.8571   18.4133 C   0  0  0  0  0  0  0  0  0  0  0  0
    8.3694    7.6612   22.6703 C   0  0  0  0  0  0  0  0  0  0  0  0
    8.4143    6.6863   16.2273 C   0  0  0  0  0  0  0  0  0  0  0  0
   10.7581    6.5674   21.7636 C   0  0  0  0  0  0  0  0  0  0  0  0
    8.4452    8.7960   19.2958 O   0  0  0  0  0  0  0  0  0  0  0  0
    8.7122    6.7842   24.8569 C   0  0  0  0  0  0  0  0  0  0  0  0
   10.3400    6.1726   14.3081 C   0  0  0  0  0  0  0  0  0  0  0  0
    7.4297    7.5873   24.8962 C   0  0  0  0  0  0  0  0  0  0  0  0
    8.1566   10.0536   16.0516 O   0  0  0  0  0  0  0  0  0  0  0  0
   12.4989    6.2074   20.1776 C   0  0  0  0  0  0  0  0  0  0  0  0
    6.9192    9.1053   20.9073 O   0  0  0  0  0  0  0  0  0  0  0  0
   14.3979    6.0729   18.7784 C   0  0  0  0  0  0  0  0  0  0  0  0
    8.6811    9.5354   16.9998 C   0  0  0  0  0  0  0  0  0  0  0  0
    9.2512    4.2713   13.7653 O   0  0  0  0  0  0  0  0  0  0  0  0
    9.6495    8.6317   16.8332 N   0  0  0  0  0  0  0  0  0  0  0  0
    6.2934    8.6988   23.1988 O   0  0  0  0  0  0  0  0  0  0  0  0
    7.9806    8.6543   20.5437 C   0  0  0  0  0  0  0  0  0  0  0  0
   13.7270    5.7144   19.8610 O   0  0  0  0  0  0  0  0  0  0  0  0
    8.3351    5.5235   15.4478 C   0  0  0  0  0  0  0  0  0  0  0  0
    8.7700    7.8434   21.3915 C   0  0  0  0  0  0  0  0  0  0  0  0
   11.7856    6.8851   19.2401 C   0  0  0  0  0  0  0  0  0  0  0  0
   10.5281    7.4276   19.5649 C   0  0  0  0  0  0  0  0  0  0  0  0
   10.0256    7.2907   20.8484 C   0  0  0  0  0  0  0  0  0  0  0  0
    9.3113    5.3049   14.4911 C   0  0  0  0  0  0  0  0  0  0  0  0
    9.4607    7.5646   16.0139 C   0  0  0  0  0  0  0  0  0  0  0  0
   10.4192    7.3157   15.0955 C   0  0  0  0  0  0  0  0  0  0  0  0
   10.2489    6.4227   23.0218 N   0  0  0  0  0  0  0  0  0  0  0  0
    7.2472    8.0746   23.5050 C   0  0  0  0  0  0  0  0  0  0  0  0
    9.2051    6.9101   23.4604 C   0  0  0  0  0  0  0  0  0  0  0  0
   11.9646    6.0299   21.4251 C   0  0  0  0  0  0  0  0  0  0  0  0
  1  5  1  0
  1 13  1  0
  2 20  2  0
  2 28  1  0
  2 29  1  0
  3 19  4  0
  3 25  4  0
  4 23  4  0
  4 27  1  0
  4 30  4  0
  5 17  1  0
  6  8  1  0
  6 29  1  0
  7 24  4  0
  7 26  4  0
  8 28  1  0
  9 13  2  0
 10 18  1  0
 10 21  4  0
 10 30  4  0
 11 17  2  0
 12 18  1  0
 13 15  1  0
 14 24  1  0
 15 25  1  0
 16 28  2  0
 17 20  1  0
 19 24  4  0
 20 23  1  0
 21 22  4  0
 22 23  4  0
 25 26  4  0
 27 29  2  0
M  END
$$$$

 Created by Python create_sdf_string function

 30 33  0  0  0  0  0  0  0  0999 V2000
    8.3036    9.8571   18.4133 C   0  0  0  0  0  0  0  0  0  0  0  0
    8.3694    7.6612   22.6703 C   0  0  0  0  0  0  0  0  0  0  0  0
    8.4143    6.6863   16.2273 C   0  0  0  0  0  0  0  0  0  0  0  0
   10.7581    6.5674   21.7636 C   0  0  0  0  0  0  0  0  0  0  0  0
    8.4452    8.7960   19.2958 O   0  0  0  0  0  0  0  0  0  0  0  0
    8.7122    6.7842   24.8569 C   0  0  0  0  0  0  0  0  0  0  0  0
   10.3400    6.1726   14.3081 C   0  0  0  0  0  0  0  0  0  0  0  0
    7.4297    7.5873   24.8962 C   0  0  0  0  0  0  0  0  0  0  0  0
    8.1566   10.0536   16.0516 O   0  0  0  0  0  0  0  0  0  0  0  0
   12.4989    6.2074   20.1776 C   0  0  0  0  0  0  0  0  0  0  0  0
    6.9192    9.1053   20.9073 O   0  0  0  0  0  0  0  0  0  0  0  0
   14.3979    6.0729   18.7784 C   0  0  0  0  0  0  0  0  0  0  0  0
    8.6811    9.5354   16.9998 C   0  0  0  0  0  0  0  0  0  0  0  0
    9.2512    4.2713   13.7653 O   0  0  0  0  0  0  0  0  0  0  0  0
    9.6495    8.6317   16.8332 N   0  0  0  0  0  0  0  0  0  0  0  0
    6.2934    8.6988   23.1988 O   0  0  0  0  0  0  0  0  0  0  0  0
    7.9806    8.6543   20.5437 C   0  0  0  0  0  0  0  0  0  0  0  0
   13.7270    5.7144   19.8610 O   0  0  0  0  0  0  0  0  0  0  0  0
    8.3351    5.5235   15.4478 C   0  0  0  0  0  0  0  0  0  0  0  0
    8.7700    7.8434   21.3915 C   0  0  0  0  0  0  0  0  0  0  0  0
   11.7856    6.8851   19.2401 C   0  0  0  0  0  0  0  0  0  0  0  0
   10.5281    7.4276   19.5649 C   0  0  0  0  0  0  0  0  0  0  0  0
   10.0256    7.2907   20.8484 C   0  0  0  0  0  0  0  0  0  0  0  0
    9.3113    5.3049   14.4911 C   0  0  0  0  0  0  0  0  0  0  0  0
    9.4607    7.5646   16.0139 C   0  0  0  0  0  0  0  0  0  0  0  0
   10.4192    7.3157   15.0955 C   0  0  0  0  0  0  0  0  0  0  0  0
   10.2489    6.4227   23.0218 N   0  0  0  0  0  0  0  0  0  0  0  0
    7.2472    8.0746   23.5050 C   0  0  0  0  0  0  0  0  0  0  0  0
    9.2051    6.9101   23.4604 C   0  0  0  0  0  0  0  0  0  0  0  0
   11.9646    6.0299   21.4251 C   0  0  0  0  0  0  0  0  0  0  0  0
  1  5  1  0
  1 13  1  0
  2 20  2  0
  2 28  1  0
  2 29  1  0
  3 19  4  0
  3 25  4  0
  4 23  4  0
  4 27  1  0
  4 30  4  0
  5 17  1  0
  6  8  1  0
  6 29  1  0
  7 24  4  0
  7 26  4  0
  8 28  1  0
  9 13  2  0
 10 18  1  0
 10 21  4  0
 10 30  4  0
 11 17  2  0
 12 18  1  0
 13 15  1  0
 14 24  1  0
 15 25  1  0
 16 28  2  0
 17 20  1  0
 19 24  4  0
 20 23  1  0
 21 22  4  0
 22 23  4  0
 25 26  4  0
 27 29  2  0
M  END
$$$$

 Created by Python create_sdf_string function

 30 33  0  0  0  0  0  0  0  0999 V2000
    8.3036    9.8571   18.4133 C   0  0  0  0  0  0  0  0  0  0  0  0
    8.3694    7.6612   22.6703 C   0  0  0  0  0  0  0  0  0  0  0  0
    8.4143    6.6863   16.2273 C   0  0  0  0  0  0  0  0  0  0  0  0
   10.7581    6.5674   21.7636 C   0  0  0  0  0  0  0  0  0  0  0  0
    8.4452    8.7960   19.2958 O   0  0  0  0  0  0  0  0  0  0  0  0
    8.7122    6.7842   24.8569 C   0  0  0  0  0  0  0  0  0  0  0  0
   10.3400    6.1726   14.3081 C   0  0  0  0  0  0  0  0  0  0  0  0
    7.4297    7.5873   24.8962 C   0  0  0  0  0  0  0  0  0  0  0  0
    8.1566   10.0536   16.0516 O   0  0  0  0  0  0  0  0  0  0  0  0
   12.4989    6.2074   20.1776 C   0  0  0  0  0  0  0  0  0  0  0  0
    6.9192    9.1053   20.9073 O   0  0  0  0  0  0  0  0  0  0  0  0
   14.3979    6.0729   18.7784 C   0  0  0  0  0  0  0  0  0  0  0  0
    8.6811    9.5354   16.9998 C   0  0  0  0  0  0  0  0  0  0  0  0
    9.2512    4.2713   13.7653 O   0  0  0  0  0  0  0  0  0  0  0  0
    9.6495    8.6317   16.8332 N   0  0  0  0  0  0  0  0  0  0  0  0
    6.2934    8.6988   23.1988 O   0  0  0  0  0  0  0  0  0  0  0  0
    7.9806    8.6543   20.5437 C   0  0  0  0  0  0  0  0  0  0  0  0
   13.7270    5.7144   19.8610 O   0  0  0  0  0  0  0  0  0  0  0  0
    8.3351    5.5235   15.4478 C   0  0  0  0  0  0  0  0  0  0  0  0
    8.7700    7.8434   21.3915 C   0  0  0  0  0  0  0  0  0  0  0  0
   11.7856    6.8851   19.2401 C   0  0  0  0  0  0  0  0  0  0  0  0
   10.5281    7.4276   19.5649 C   0  0  0  0  0  0  0  0  0  0  0  0
   10.0256    7.2907   20.8484 C   0  0  0  0  0  0  0  0  0  0  0  0
    9.3113    5.3049   14.4911 C   0  0  0  0  0  0  0  0  0  0  0  0
    9.4607    7.5646   16.0139 C   0  0  0  0  0  0  0  0  0  0  0  0
   10.4192    7.3157   15.0955 C   0  0  0  0  0  0  0  0  0  0  0  0
   10.2489    6.4227   23.0218 N   0  0  0  0  0  0  0  0  0  0  0  0
    7.2472    8.0746   23.5050 C   0  0  0  0  0  0  0  0  0  0  0  0
    9.2051    6.9101   23.4604 C   0  0  0  0  0  0  0  0  0  0  0  0
   11.9646    6.0299   21.4251 C   0  0  0  0  0  0  0  0  0  0  0  0
  1  5  1  0
  1 13  1  0
  2 20  2  0
  2 28  1  0
  2 29  1  0
  3 19  4  0
  3 25  4  0
  4 23  4  0
  4 27  1  0
  4 30  4  0
  5 17  1  0
  6  8  1  0
  6 29  1  0
  7 24  4  0
  7 26  4  0
  8 28  1  0
  9 13  2  0
 10 18  1  0
 10 21  4  0
 10 30  4  0
 11 17  2  0
 12 18  1  0
 13 15  1  0
 14 24  1  0
 15 25  1  0
 16 28  2  0
 17 20  1  0
 19 24  4  0
 20 23  1  0
 21 22  4  0
 22 23  4  0
 25 26  4  0
 27 29  2  0
M  END
$$$$

 Created by Python create_sdf_string function

 30 33  0  0  0  0  0  0  0  0999 V2000
    8.3036    9.8571   18.4133 C   0  0  0  0  0  0  0  0  0  0  0  0
    8.3694    7.6612   22.6703 C   0  0  0  0  0  0  0  0  0  0  0  0
    8.4143    6.6863   16.2273 C   0  0  0  0  0  0  0  0  0  0  0  0
   10.7581    6.5674   21.7636 C   0  0  0  0  0  0  0  0  0  0  0  0
    8.4452    8.7960   19.2958 O   0  0  0  0  0  0  0  0  0  0  0  0
    8.7122    6.7842   24.8569 C   0  0  0  0  0  0  0  0  0  0  0  0
   10.3400    6.1726   14.3081 C   0  0  0  0  0  0  0  0  0  0  0  0
    7.4297    7.5873   24.8962 C   0  0  0  0  0  0  0  0  0  0  0  0
    8.1566   10.0536   16.0516 O   0  0  0  0  0  0  0  0  0  0  0  0
   12.4989    6.2074   20.1776 C   0  0  0  0  0  0  0  0  0  0  0  0
    6.9192    9.1053   20.9073 O   0  0  0  0  0  0  0  0  0  0  0  0
   14.3979    6.0729   18.7784 C   0  0  0  0  0  0  0  0  0  0  0  0
    8.6811    9.5354   16.9998 C   0  0  0  0  0  0  0  0  0  0  0  0
    9.2512    4.2713   13.7653 O   0  0  0  0  0  0  0  0  0  0  0  0
    9.6495    8.6317   16.8332 N   0  0  0  0  0  0  0  0  0  0  0  0
    6.2934    8.6988   23.1988 O   0  0  0  0  0  0  0  0  0  0  0  0
    7.9806    8.6543   20.5437 C   0  0  0  0  0  0  0  0  0  0  0  0
   13.7270    5.7144   19.8610 O   0  0  0  0  0  0  0  0  0  0  0  0
    8.3351    5.5235   15.4478 C   0  0  0  0  0  0  0  0  0  0  0  0
    8.7700    7.8434   21.3915 C   0  0  0  0  0  0  0  0  0  0  0  0
   11.7856    6.8851   19.2401 C   0  0  0  0  0  0  0  0  0  0  0  0
   10.5281    7.4276   19.5649 C   0  0  0  0  0  0  0  0  0  0  0  0
   10.0256    7.2907   20.8484 C   0  0  0  0  0  0  0  0  0  0  0  0
    9.3113    5.3049   14.4911 C   0  0  0  0  0  0  0  0  0  0  0  0
    9.4607    7.5646   16.0139 C   0  0  0  0  0  0  0  0  0  0  0  0
   10.4192    7.3157   15.0955 C   0  0  0  0  0  0  0  0  0  0  0  0
   10.2489    6.4227   23.0218 N   0  0  0  0  0  0  0  0  0  0  0  0
    7.2472    8.0746   23.5050 C   0  0  0  0  0  0  0  0  0  0  0  0
    9.2051    6.9101   23.4604 C   0  0  0  0  0  0  0  0  0  0  0  0
   11.9646    6.0299   21.4251 C   0  0  0  0  0  0  0  0  0  0  0  0
  1  5  1  0
  1 13  1  0
  2 20  2  0
  2 28  1  0
  2 29  1  0
  3 19  4  0
  3 25  4  0
  4 23  4  0
  4 27  1  0
  4 30  4  0
  5 17  1  0
  6  8  1  0
  6 29  1  0
  7 24  4  0
  7 26  4  0
  8 28  1  0
  9 13  2  0
 10 18  1  0
 10 21  4  0
 10 30  4  0
 11 17  2  0
 12 18  1  0
 13 15  1  0
 14 24  1  0
 15 25  1  0
 16 28  2  0
 17 20  1  0
 19 24  4  0
 20 23  1  0
 21 22  4  0
 22 23  4  0
 25 26  4  0
 27 29  2  0
M  END
$$$$

 Created by Python create_sdf_string function

 30 33  0  0  0  0  0  0  0  0999 V2000
    8.3036    9.8571   18.4133 C   0  0  0  0  0  0  0  0  0  0  0  0
    8.3694    7.6612   22.6703 C   0  0  0  0  0  0  0  0  0  0  0  0
    8.4143    6.6863   16.2273 C   0  0  0  0  0  0  0  0  0  0  0  0
   10.7581    6.5674   21.7636 C   0  0  0  0  0  0  0  0  0  0  0  0
    8.4452    8.7960   19.2958 O   0  0  0  0  0  0  0  0  0  0  0  0
    8.7122    6.7842   24.8569 C   0  0  0  0  0  0  0  0  0  0  0  0
   10.3400    6.1726   14.3081 C   0  0  0  0  0  0  0  0  0  0  0  0
    7.4297    7.5873   24.8962 C   0  0  0  0  0  0  0  0  0  0  0  0
    8.1566   10.0536   16.0516 O   0  0  0  0  0  0  0  0  0  0  0  0
   12.4989    6.2074   20.1776 C   0  0  0  0  0  0  0  0  0  0  0  0
    6.9192    9.1053   20.9073 O   0  0  0  0  0  0  0  0  0  0  0  0
   14.3979    6.0729   18.7784 C   0  0  0  0  0  0  0  0  0  0  0  0
    8.6811    9.5354   16.9998 C   0  0  0  0  0  0  0  0  0  0  0  0
    9.2512    4.2713   13.7653 O   0  0  0  0  0  0  0  0  0  0  0  0
    9.6495    8.6317   16.8332 N   0  0  0  0  0  0  0  0  0  0  0  0
    6.2934    8.6988   23.1988 O   0  0  0  0  0  0  0  0  0  0  0  0
    7.9806    8.6543   20.5437 C   0  0  0  0  0  0  0  0  0  0  0  0
   13.7270    5.7144   19.8610 O   0  0  0  0  0  0  0  0  0  0  0  0
    8.3351    5.5235   15.4478 C   0  0  0  0  0  0  0  0  0  0  0  0
    8.7700    7.8434   21.3915 C   0  0  0  0  0  0  0  0  0  0  0  0
   11.7856    6.8851   19.2401 C   0  0  0  0  0  0  0  0  0  0  0  0
   10.5281    7.4276   19.5649 C   0  0  0  0  0  0  0  0  0  0  0  0
   10.0256    7.2907   20.8484 C   0  0  0  0  0  0  0  0  0  0  0  0
    9.3113    5.3049   14.4911 C   0  0  0  0  0  0  0  0  0  0  0  0
    9.4607    7.5646   16.0139 C   0  0  0  0  0  0  0  0  0  0  0  0
   10.4192    7.3157   15.0955 C   0  0  0  0  0  0  0  0  0  0  0  0
   10.2489    6.4227   23.0218 N   0  0  0  0  0  0  0  0  0  0  0  0
    7.2472    8.0746   23.5050 C   0  0  0  0  0  0  0  0  0  0  0  0
    9.2051    6.9101   23.4604 C   0  0  0  0  0  0  0  0  0  0  0  0
   11.9646    6.0299   21.4251 C   0  0  0  0  0  0  0  0  0  0  0  0
  1  5  1  0
  1 13  1  0
  2 20  2  0
  2 28  1  0
  2 29  1  0
  3 19  4  0
  3 25  4  0
  4 23  4  0
  4 27  1  0
  4 30  4  0
  5 17  1  0
  6  8  1  0
  6 29  1  0
  7 24  4  0
  7 26  4  0
  8 28  1  0
  9 13  2  0
 10 18  1  0
 10 21  4  0
 10 30  4  0
 11 17  2  0
 12 18  1  0
 13 15  1  0
 14 24  1  0
 15 25  1  0
 16 28  2  0
 17 20  1  0
 19 24  4  0
 20 23  1  0
 21 22  4  0
 22 23  4  0
 25 26  4  0
 27 29  2  0
M  END
$$$$

 Created by Python create_sdf_string function

 30 33  0  0  0  0  0  0  0  0999 V2000
    8.3036    9.8571   18.4133 C   0  0  0  0  0  0  0  0  0  0  0  0
    8.3694    7.6612   22.6703 C   0  0  0  0  0  0  0  0  0  0  0  0
    8.4143    6.6863   16.2273 C   0  0  0  0  0  0  0  0  0  0  0  0
   10.7581    6.5674   21.7636 C   0  0  0  0  0  0  0  0  0  0  0  0
    8.4452    8.7960   19.2958 O   0  0  0  0  0  0  0  0  0  0  0  0
    8.7122    6.7842   24.8569 C   0  0  0  0  0  0  0  0  0  0  0  0
   10.3400    6.1726   14.3081 C   0  0  0  0  0  0  0  0  0  0  0  0
    7.4297    7.5873   24.8962 C   0  0  0  0  0  0  0  0  0  0  0  0
    8.1566   10.0536   16.0516 O   0  0  0  0  0  0  0  0  0  0  0  0
   12.4989    6.2074   20.1776 C   0  0  0  0  0  0  0  0  0  0  0  0
    6.9192    9.1053   20.9073 O   0  0  0  0  0  0  0  0  0  0  0  0
   14.3979    6.0729   18.7784 C   0  0  0  0  0  0  0  0  0  0  0  0
    8.6811    9.5354   16.9998 C   0  0  0  0  0  0  0  0  0  0  0  0
    9.2512    4.2713   13.7653 O   0  0  0  0  0  0  0  0  0  0  0  0
    9.6495    8.6317   16.8332 N   0  0  0  0  0  0  0  0  0  0  0  0
    6.2934    8.6988   23.1988 O   0  0  0  0  0  0  0  0  0  0  0  0
    7.9806    8.6543   20.5437 C   0  0  0  0  0  0  0  0  0  0  0  0
   13.7270    5.7144   19.8610 O   0  0  0  0  0  0  0  0  0  0  0  0
    8.3351    5.5235   15.4478 C   0  0  0  0  0  0  0  0  0  0  0  0
    8.7700    7.8434   21.3915 C   0  0  0  0  0  0  0  0  0  0  0  0
   11.7856    6.8851   19.2401 C   0  0  0  0  0  0  0  0  0  0  0  0
   10.5281    7.4276   19.5649 C   0  0  0  0  0  0  0  0  0  0  0  0
   10.0256    7.2907   20.8484 C   0  0  0  0  0  0  0  0  0  0  0  0
    9.3113    5.3049   14.4911 C   0  0  0  0  0  0  0  0  0  0  0  0
    9.4607    7.5646   16.0139 C   0  0  0  0  0  0  0  0  0  0  0  0
   10.4192    7.3157   15.0955 C   0  0  0  0  0  0  0  0  0  0  0  0
   10.2489    6.4227   23.0218 N   0  0  0  0  0  0  0  0  0  0  0  0
    7.2472    8.0746   23.5050 C   0  0  0  0  0  0  0  0  0  0  0  0
    9.2051    6.9101   23.4604 C   0  0  0  0  0  0  0  0  0  0  0  0
   11.9646    6.0299   21.4251 C   0  0  0  0  0  0  0  0  0  0  0  0
  1  5  1  0
  1 13  1  0
  2 20  2  0
  2 28  1  0
  2 29  1  0
  3 19  4  0
  3 25  4  0
  4 23  4  0
  4 27  1  0
  4 30  4  0
  5 17  1  0
  6  8  1  0
  6 29  1  0
  7 24  4  0
  7 26  4  0
  8 28  1  0
  9 13  2  0
 10 18  1  0
 10 21  4  0
 10 30  4  0
 11 17  2  0
 12 18  1  0
 13 15  1  0
 14 24  1  0
 15 25  1  0
 16 28  2  0
 17 20  1  0
 19 24  4  0
 20 23  1  0
 21 22  4  0
 22 23  4  0
 25 26  4  0
 27 29  2  0
M  END
$$$$

 Created by Python create_sdf_string function

 30 33  0  0  0  0  0  0  0  0999 V2000
    8.3036    9.8571   18.4133 C   0  0  0  0  0  0  0  0  0  0  0  0
    8.3694    7.6612   22.6703 C   0  0  0  0  0  0  0  0  0  0  0  0
    8.4143    6.6863   16.2273 C   0  0  0  0  0  0  0  0  0  0  0  0
   10.7581    6.5674   21.7636 C   0  0  0  0  0  0  0  0  0  0  0  0
    8.4452    8.7960   19.2958 O   0  0  0  0  0  0  0  0  0  0  0  0
    8.7122    6.7842   24.8569 C   0  0  0  0  0  0  0  0  0  0  0  0
   10.3400    6.1726   14.3081 C   0  0  0  0  0  0  0  0  0  0  0  0
    7.4297    7.5873   24.8962 C   0  0  0  0  0  0  0  0  0  0  0  0
    8.1566   10.0536   16.0516 O   0  0  0  0  0  0  0  0  0  0  0  0
   12.4989    6.2074   20.1776 C   0  0  0  0  0  0  0  0  0  0  0  0
    6.9192    9.1053   20.9073 O   0  0  0  0  0  0  0  0  0  0  0  0
   14.3979    6.0729   18.7784 C   0  0  0  0  0  0  0  0  0  0  0  0
    8.6811    9.5354   16.9998 C   0  0  0  0  0  0  0  0  0  0  0  0
    9.2512    4.2713   13.7653 O   0  0  0  0  0  0  0  0  0  0  0  0
    9.6495    8.6317   16.8332 N   0  0  0  0  0  0  0  0  0  0  0  0
    6.2934    8.6988   23.1988 O   0  0  0  0  0  0  0  0  0  0  0  0
    7.9806    8.6543   20.5437 C   0  0  0  0  0  0  0  0  0  0  0  0
   13.7270    5.7144   19.8610 O   0  0  0  0  0  0  0  0  0  0  0  0
    8.3351    5.5235   15.4478 C   0  0  0  0  0  0  0  0  0  0  0  0
    8.7700    7.8434   21.3915 C   0  0  0  0  0  0  0  0  0  0  0  0
   11.7856    6.8851   19.2401 C   0  0  0  0  0  0  0  0  0  0  0  0
   10.5281    7.4276   19.5649 C   0  0  0  0  0  0  0  0  0  0  0  0
   10.0256    7.2907   20.8484 C   0  0  0  0  0  0  0  0  0  0  0  0
    9.3113    5.3049   14.4911 C   0  0  0  0  0  0  0  0  0  0  0  0
    9.4607    7.5646   16.0139 C   0  0  0  0  0  0  0  0  0  0  0  0
   10.4192    7.3157   15.0955 C   0  0  0  0  0  0  0  0  0  0  0  0
   10.2489    6.4227   23.0218 N   0  0  0  0  0  0  0  0  0  0  0  0
    7.2472    8.0746   23.5050 C   0  0  0  0  0  0  0  0  0  0  0  0
    9.2051    6.9101   23.4604 C   0  0  0  0  0  0  0  0  0  0  0  0
   11.9646    6.0299   21.4251 C   0  0  0  0  0  0  0  0  0  0  0  0
  1  5  1  0
  1 13  1  0
  2 20  2  0
  2 28  1  0
  2 29  1  0
  3 19  4  0
  3 25  4  0
  4 23  4  0
  4 27  1  0
  4 30  4  0
  5 17  1  0
  6  8  1  0
  6 29  1  0
  7 24  4  0
  7 26  4  0
  8 28  1  0
  9 13  2  0
 10 18  1  0
 10 21  4  0
 10 30  4  0
 11 17  2  0
 12 18  1  0
 13 15  1  0
 14 24  1  0
 15 25  1  0
 16 28  2  0
 17 20  1  0
 19 24  4  0
 20 23  1  0
 21 22  4  0
 22 23  4  0
 25 26  4  0
 27 29  2  0
M  END
$$$$

 Created by Python create_sdf_string function

 30 33  0  0  0  0  0  0  0  0999 V2000
    8.3036    9.8571   18.4133 C   0  0  0  0  0  0  0  0  0  0  0  0
    8.3694    7.6612   22.6703 C   0  0  0  0  0  0  0  0  0  0  0  0
    8.4143    6.6863   16.2273 C   0  0  0  0  0  0  0  0  0  0  0  0
   10.7581    6.5674   21.7636 C   0  0  0  0  0  0  0  0  0  0  0  0
    8.4452    8.7960   19.2958 O   0  0  0  0  0  0  0  0  0  0  0  0
    8.7122    6.7842   24.8569 C   0  0  0  0  0  0  0  0  0  0  0  0
   10.3400    6.1726   14.3081 C   0  0  0  0  0  0  0  0  0  0  0  0
    7.4297    7.5873   24.8962 C   0  0  0  0  0  0  0  0  0  0  0  0
    8.1566   10.0536   16.0516 O   0  0  0  0  0  0  0  0  0  0  0  0
   12.4989    6.2074   20.1776 C   0  0  0  0  0  0  0  0  0  0  0  0
    6.9192    9.1053   20.9073 O   0  0  0  0  0  0  0  0  0  0  0  0
   14.3979    6.0729   18.7784 C   0  0  0  0  0  0  0  0  0  0  0  0
    8.6811    9.5354   16.9998 C   0  0  0  0  0  0  0  0  0  0  0  0
    9.2512    4.2713   13.7653 O   0  0  0  0  0  0  0  0  0  0  0  0
    9.6495    8.6317   16.8332 N   0  0  0  0  0  0  0  0  0  0  0  0
    6.2934    8.6988   23.1988 O   0  0  0  0  0  0  0  0  0  0  0  0
    7.9806    8.6543   20.5437 C   0  0  0  0  0  0  0  0  0  0  0  0
   13.7270    5.7144   19.8610 O   0  0  0  0  0  0  0  0  0  0  0  0
    8.3351    5.5235   15.4478 C   0  0  0  0  0  0  0  0  0  0  0  0
    8.7700    7.8434   21.3915 C   0  0  0  0  0  0  0  0  0  0  0  0
   11.7856    6.8851   19.2401 C   0  0  0  0  0  0  0  0  0  0  0  0
   10.5281    7.4276   19.5649 C   0  0  0  0  0  0  0  0  0  0  0  0
   10.0256    7.2907   20.8484 C   0  0  0  0  0  0  0  0  0  0  0  0
    9.3113    5.3049   14.4911 C   0  0  0  0  0  0  0  0  0  0  0  0
    9.4607    7.5646   16.0139 C   0  0  0  0  0  0  0  0  0  0  0  0
   10.4192    7.3157   15.0955 C   0  0  0  0  0  0  0  0  0  0  0  0
   10.2489    6.4227   23.0218 N   0  0  0  0  0  0  0  0  0  0  0  0
    7.2472    8.0746   23.5050 C   0  0  0  0  0  0  0  0  0  0  0  0
    9.2051    6.9101   23.4604 C   0  0  0  0  0  0  0  0  0  0  0  0
   11.9646    6.0299   21.4251 C   0  0  0  0  0  0  0  0  0  0  0  0
  1  5  1  0
  1 13  1  0
  2 20  2  0
  2 28  1  0
  2 29  1  0
  3 19  4  0
  3 25  4  0
  4 23  4  0
  4 27  1  0
  4 30  4  0
  5 17  1  0
  6  8  1  0
  6 29  1  0
  7 24  4  0
  7 26  4  0
  8 28  1  0
  9 13  2  0
 10 18  1  0
 10 21  4  0
 10 30  4  0
 11 17  2  0
 12 18  1  0
 13 15  1  0
 14 24  1  0
 15 25  1  0
 16 28  2  0
 17 20  1  0
 19 24  4  0
 20 23  1  0
 21 22  4  0
 22 23  4  0
 25 26  4  0
 27 29  2  0
M  END
$$$$

 Created by Python create_sdf_string function

 30 33  0  0  0  0  0  0  0  0999 V2000
    8.3036    9.8571   18.4133 C   0  0  0  0  0  0  0  0  0  0  0  0
    8.3694    7.6612   22.6703 C   0  0  0  0  0  0  0  0  0  0  0  0
    8.4143    6.6863   16.2273 C   0  0  0  0  0  0  0  0  0  0  0  0
   10.7581    6.5674   21.7636 C   0  0  0  0  0  0  0  0  0  0  0  0
    8.4452    8.7960   19.2958 O   0  0  0  0  0  0  0  0  0  0  0  0
    8.7122    6.7842   24.8569 C   0  0  0  0  0  0  0  0  0  0  0  0
   10.3400    6.1726   14.3081 C   0  0  0  0  0  0  0  0  0  0  0  0
    7.4297    7.5873   24.8962 C   0  0  0  0  0  0  0  0  0  0  0  0
    8.1566   10.0536   16.0516 O   0  0  0  0  0  0  0  0  0  0  0  0
   12.4989    6.2074   20.1776 C   0  0  0  0  0  0  0  0  0  0  0  0
    6.9192    9.1053   20.9073 O   0  0  0  0  0  0  0  0  0  0  0  0
   14.3979    6.0729   18.7784 C   0  0  0  0  0  0  0  0  0  0  0  0
    8.6811    9.5354   16.9998 C   0  0  0  0  0  0  0  0  0  0  0  0
    9.2512    4.2713   13.7653 O   0  0  0  0  0  0  0  0  0  0  0  0
    9.6495    8.6317   16.8332 N   0  0  0  0  0  0  0  0  0  0  0  0
    6.2934    8.6988   23.1988 O   0  0  0  0  0  0  0  0  0  0  0  0
    7.9806    8.6543   20.5437 C   0  0  0  0  0  0  0  0  0  0  0  0
   13.7270    5.7144   19.8610 O   0  0  0  0  0  0  0  0  0  0  0  0
    8.3351    5.5235   15.4478 C   0  0  0  0  0  0  0  0  0  0  0  0
    8.7700    7.8434   21.3915 C   0  0  0  0  0  0  0  0  0  0  0  0
   11.7856    6.8851   19.2401 C   0  0  0  0  0  0  0  0  0  0  0  0
   10.5281    7.4276   19.5649 C   0  0  0  0  0  0  0  0  0  0  0  0
   10.0256    7.2907   20.8484 C   0  0  0  0  0  0  0  0  0  0  0  0
    9.3113    5.3049   14.4911 C   0  0  0  0  0  0  0  0  0  0  0  0
    9.4607    7.5646   16.0139 C   0  0  0  0  0  0  0  0  0  0  0  0
   10.4192    7.3157   15.0955 C   0  0  0  0  0  0  0  0  0  0  0  0
   10.2489    6.4227   23.0218 N   0  0  0  0  0  0  0  0  0  0  0  0
    7.2472    8.0746   23.5050 C   0  0  0  0  0  0  0  0  0  0  0  0
    9.2051    6.9101   23.4604 C   0  0  0  0  0  0  0  0  0  0  0  0
   11.9646    6.0299   21.4251 C   0  0  0  0  0  0  0  0  0  0  0  0
  1  5  1  0
  1 13  1  0
  2 20  2  0
  2 28  1  0
  2 29  1  0
  3 19  4  0
  3 25  4  0
  4 23  4  0
  4 27  1  0
  4 30  4  0
  5 17  1  0
  6  8  1  0
  6 29  1  0
  7 24  4  0
  7 26  4  0
  8 28  1  0
  9 13  2  0
 10 18  1  0
 10 21  4  0
 10 30  4  0
 11 17  2  0
 12 18  1  0
 13 15  1  0
 14 24  1  0
 15 25  1  0
 16 28  2  0
 17 20  1  0
 19 24  4  0
 20 23  1  0
 21 22  4  0
 22 23  4  0
 25 26  4  0
 27 29  2  0
M  END
$$$$

 Created by Python create_sdf_string function

 30 33  0  0  0  0  0  0  0  0999 V2000
    8.3036    9.8571   18.4133 C   0  0  0  0  0  0  0  0  0  0  0  0
    8.3694    7.6612   22.6703 C   0  0  0  0  0  0  0  0  0  0  0  0
    8.4143    6.6863   16.2273 C   0  0  0  0  0  0  0  0  0  0  0  0
   10.7581    6.5674   21.7636 C   0  0  0  0  0  0  0  0  0  0  0  0
    8.4452    8.7960   19.2958 O   0  0  0  0  0  0  0  0  0  0  0  0
    8.7122    6.7842   24.8569 C   0  0  0  0  0  0  0  0  0  0  0  0
   10.3400    6.1726   14.3081 C   0  0  0  0  0  0  0  0  0  0  0  0
    7.4297    7.5873   24.8962 C   0  0  0  0  0  0  0  0  0  0  0  0
    8.1566   10.0536   16.0516 O   0  0  0  0  0  0  0  0  0  0  0  0
   12.4989    6.2074   20.1776 C   0  0  0  0  0  0  0  0  0  0  0  0
    6.9192    9.1053   20.9073 O   0  0  0  0  0  0  0  0  0  0  0  0
   14.3979    6.0729   18.7784 C   0  0  0  0  0  0  0  0  0  0  0  0
    8.6811    9.5354   16.9998 C   0  0  0  0  0  0  0  0  0  0  0  0
    9.2512    4.2713   13.7653 O   0  0  0  0  0  0  0  0  0  0  0  0
    9.6495    8.6317   16.8332 N   0  0  0  0  0  0  0  0  0  0  0  0
    6.2934    8.6988   23.1988 O   0  0  0  0  0  0  0  0  0  0  0  0
    7.9806    8.6543   20.5437 C   0  0  0  0  0  0  0  0  0  0  0  0
   13.7270    5.7144   19.8610 O   0  0  0  0  0  0  0  0  0  0  0  0
    8.3351    5.5235   15.4478 C   0  0  0  0  0  0  0  0  0  0  0  0
    8.7700    7.8434   21.3915 C   0  0  0  0  0  0  0  0  0  0  0  0
   11.7856    6.8851   19.2401 C   0  0  0  0  0  0  0  0  0  0  0  0
   10.5281    7.4276   19.5649 C   0  0  0  0  0  0  0  0  0  0  0  0
   10.0256    7.2907   20.8484 C   0  0  0  0  0  0  0  0  0  0  0  0
    9.3113    5.3049   14.4911 C   0  0  0  0  0  0  0  0  0  0  0  0
    9.4607    7.5646   16.0139 C   0  0  0  0  0  0  0  0  0  0  0  0
   10.4192    7.3157   15.0955 C   0  0  0  0  0  0  0  0  0  0  0  0
   10.2489    6.4227   23.0218 N   0  0  0  0  0  0  0  0  0  0  0  0
    7.2472    8.0746   23.5050 C   0  0  0  0  0  0  0  0  0  0  0  0
    9.2051    6.9101   23.4604 C   0  0  0  0  0  0  0  0  0  0  0  0
   11.9646    6.0299   21.4251 C   0  0  0  0  0  0  0  0  0  0  0  0
  1  5  1  0
  1 13  1  0
  2 20  2  0
  2 28  1  0
  2 29  1  0
  3 19  4  0
  3 25  4  0
  4 23  4  0
  4 27  1  0
  4 30  4  0
  5 17  1  0
  6  8  1  0
  6 29  1  0
  7 24  4  0
  7 26  4  0
  8 28  1  0
  9 13  2  0
 10 18  1  0
 10 21  4  0
 10 30  4  0
 11 17  2  0
 12 18  1  0
 13 15  1  0
 14 24  1  0
 15 25  1  0
 16 28  2  0
 17 20  1  0
 19 24  4  0
 20 23  1  0
 21 22  4  0
 22 23  4  0
 25 26  4  0
 27 29  2  0
M  END
$$$$

 Created by Python create_sdf_string function

 30 33  0  0  0  0  0  0  0  0999 V2000
    8.3036    9.8571   18.4133 C   0  0  0  0  0  0  0  0  0  0  0  0
    8.3694    7.6612   22.6703 C   0  0  0  0  0  0  0  0  0  0  0  0
    8.4143    6.6863   16.2273 C   0  0  0  0  0  0  0  0  0  0  0  0
   10.7581    6.5674   21.7636 C   0  0  0  0  0  0  0  0  0  0  0  0
    8.4452    8.7960   19.2958 O   0  0  0  0  0  0  0  0  0  0  0  0
    8.7122    6.7842   24.8569 C   0  0  0  0  0  0  0  0  0  0  0  0
   10.3400    6.1726   14.3081 C   0  0  0  0  0  0  0  0  0  0  0  0
    7.4297    7.5873   24.8962 C   0  0  0  0  0  0  0  0  0  0  0  0
    8.1566   10.0536   16.0516 O   0  0  0  0  0  0  0  0  0  0  0  0
   12.4989    6.2074   20.1776 C   0  0  0  0  0  0  0  0  0  0  0  0
    6.9192    9.1053   20.9073 O   0  0  0  0  0  0  0  0  0  0  0  0
   14.3979    6.0729   18.7784 C   0  0  0  0  0  0  0  0  0  0  0  0
    8.6811    9.5354   16.9998 C   0  0  0  0  0  0  0  0  0  0  0  0
    9.2512    4.2713   13.7653 O   0  0  0  0  0  0  0  0  0  0  0  0
    9.6495    8.6317   16.8332 N   0  0  0  0  0  0  0  0  0  0  0  0
    6.2934    8.6988   23.1988 O   0  0  0  0  0  0  0  0  0  0  0  0
    7.9806    8.6543   20.5437 C   0  0  0  0  0  0  0  0  0  0  0  0
   13.7270    5.7144   19.8610 O   0  0  0  0  0  0  0  0  0  0  0  0
    8.3351    5.5235   15.4478 C   0  0  0  0  0  0  0  0  0  0  0  0
    8.7700    7.8434   21.3915 C   0  0  0  0  0  0  0  0  0  0  0  0
   11.7856    6.8851   19.2401 C   0  0  0  0  0  0  0  0  0  0  0  0
   10.5281    7.4276   19.5649 C   0  0  0  0  0  0  0  0  0  0  0  0
   10.0256    7.2907   20.8484 C   0  0  0  0  0  0  0  0  0  0  0  0
    9.3113    5.3049   14.4911 C   0  0  0  0  0  0  0  0  0  0  0  0
    9.4607    7.5646   16.0139 C   0  0  0  0  0  0  0  0  0  0  0  0
   10.4192    7.3157   15.0955 C   0  0  0  0  0  0  0  0  0  0  0  0
   10.2489    6.4227   23.0218 N   0  0  0  0  0  0  0  0  0  0  0  0
    7.2472    8.0746   23.5050 C   0  0  0  0  0  0  0  0  0  0  0  0
    9.2051    6.9101   23.4604 C   0  0  0  0  0  0  0  0  0  0  0  0
   11.9646    6.0299   21.4251 C   0  0  0  0  0  0  0  0  0  0  0  0
  1  5  1  0
  1 13  1  0
  2 20  2  0
  2 28  1  0
  2 29  1  0
  3 19  4  0
  3 25  4  0
  4 23  4  0
  4 27  1  0
  4 30  4  0
  5 17  1  0
  6  8  1  0
  6 29  1  0
  7 24  4  0
  7 26  4  0
  8 28  1  0
  9 13  2  0
 10 18  1  0
 10 21  4  0
 10 30  4  0
 11 17  2  0
 12 18  1  0
 13 15  1  0
 14 24  1  0
 15 25  1  0
 16 28  2  0
 17 20  1  0
 19 24  4  0
 20 23  1  0
 21 22  4  0
 22 23  4  0
 25 26  4  0
 27 29  2  0
M  END
$$$$

 Created by Python create_sdf_string function

 30 33  0  0  0  0  0  0  0  0999 V2000
    8.3036    9.8571   18.4133 C   0  0  0  0  0  0  0  0  0  0  0  0
    8.3694    7.6612   22.6703 C   0  0  0  0  0  0  0  0  0  0  0  0
    8.4143    6.6863   16.2273 C   0  0  0  0  0  0  0  0  0  0  0  0
   10.7581    6.5674   21.7636 C   0  0  0  0  0  0  0  0  0  0  0  0
    8.4452    8.7960   19.2958 O   0  0  0  0  0  0  0  0  0  0  0  0
    8.7122    6.7842   24.8569 C   0  0  0  0  0  0  0  0  0  0  0  0
   10.3400    6.1726   14.3081 C   0  0  0  0  0  0  0  0  0  0  0  0
    7.4297    7.5873   24.8962 C   0  0  0  0  0  0  0  0  0  0  0  0
    8.1566   10.0536   16.0516 O   0  0  0  0  0  0  0  0  0  0  0  0
   12.4989    6.2074   20.1776 C   0  0  0  0  0  0  0  0  0  0  0  0
    6.9192    9.1053   20.9073 O   0  0  0  0  0  0  0  0  0  0  0  0
   14.3979    6.0729   18.7784 C   0  0  0  0  0  0  0  0  0  0  0  0
    8.6811    9.5354   16.9998 C   0  0  0  0  0  0  0  0  0  0  0  0
    9.2512    4.2713   13.7653 O   0  0  0  0  0  0  0  0  0  0  0  0
    9.6495    8.6317   16.8332 N   0  0  0  0  0  0  0  0  0  0  0  0
    6.2934    8.6988   23.1988 O   0  0  0  0  0  0  0  0  0  0  0  0
    7.9806    8.6543   20.5437 C   0  0  0  0  0  0  0  0  0  0  0  0
   13.7270    5.7144   19.8610 O   0  0  0  0  0  0  0  0  0  0  0  0
    8.3351    5.5235   15.4478 C   0  0  0  0  0  0  0  0  0  0  0  0
    8.7700    7.8434   21.3915 C   0  0  0  0  0  0  0  0  0  0  0  0
   11.7856    6.8851   19.2401 C   0  0  0  0  0  0  0  0  0  0  0  0
   10.5281    7.4276   19.5649 C   0  0  0  0  0  0  0  0  0  0  0  0
   10.0256    7.2907   20.8484 C   0  0  0  0  0  0  0  0  0  0  0  0
    9.3113    5.3049   14.4911 C   0  0  0  0  0  0  0  0  0  0  0  0
    9.4607    7.5646   16.0139 C   0  0  0  0  0  0  0  0  0  0  0  0
   10.4192    7.3157   15.0955 C   0  0  0  0  0  0  0  0  0  0  0  0
   10.2489    6.4227   23.0218 N   0  0  0  0  0  0  0  0  0  0  0  0
    7.2472    8.0746   23.5050 C   0  0  0  0  0  0  0  0  0  0  0  0
    9.2051    6.9101   23.4604 C   0  0  0  0  0  0  0  0  0  0  0  0
   11.9646    6.0299   21.4251 C   0  0  0  0  0  0  0  0  0  0  0  0
  1  5  1  0
  1 13  1  0
  2 20  2  0
  2 28  1  0
  2 29  1  0
  3 19  4  0
  3 25  4  0
  4 23  4  0
  4 27  1  0
  4 30  4  0
  5 17  1  0
  6  8  1  0
  6 29  1  0
  7 24  4  0
  7 26  4  0
  8 28  1  0
  9 13  2  0
 10 18  1  0
 10 21  4  0
 10 30  4  0
 11 17  2  0
 12 18  1  0
 13 15  1  0
 14 24  1  0
 15 25  1  0
 16 28  2  0
 17 20  1  0
 19 24  4  0
 20 23  1  0
 21 22  4  0
 22 23  4  0
 25 26  4  0
 27 29  2  0
M  END
$$$$

 Created by Python create_sdf_string function

 30 33  0  0  0  0  0  0  0  0999 V2000
    8.3036    9.8571   18.4133 C   0  0  0  0  0  0  0  0  0  0  0  0
    8.3694    7.6612   22.6703 C   0  0  0  0  0  0  0  0  0  0  0  0
    8.4143    6.6863   16.2273 C   0  0  0  0  0  0  0  0  0  0  0  0
   10.7581    6.5674   21.7636 C   0  0  0  0  0  0  0  0  0  0  0  0
    8.4452    8.7960   19.2958 O   0  0  0  0  0  0  0  0  0  0  0  0
    8.7122    6.7842   24.8569 C   0  0  0  0  0  0  0  0  0  0  0  0
   10.3400    6.1726   14.3081 C   0  0  0  0  0  0  0  0  0  0  0  0
    7.4297    7.5873   24.8962 C   0  0  0  0  0  0  0  0  0  0  0  0
    8.1566   10.0536   16.0516 O   0  0  0  0  0  0  0  0  0  0  0  0
   12.4989    6.2074   20.1776 C   0  0  0  0  0  0  0  0  0  0  0  0
    6.9192    9.1053   20.9073 O   0  0  0  0  0  0  0  0  0  0  0  0
   14.3979    6.0729   18.7784 C   0  0  0  0  0  0  0  0  0  0  0  0
    8.6811    9.5354   16.9998 C   0  0  0  0  0  0  0  0  0  0  0  0
    9.2512    4.2713   13.7653 O   0  0  0  0  0  0  0  0  0  0  0  0
    9.6495    8.6317   16.8332 N   0  0  0  0  0  0  0  0  0  0  0  0
    6.2934    8.6988   23.1988 O   0  0  0  0  0  0  0  0  0  0  0  0
    7.9806    8.6543   20.5437 C   0  0  0  0  0  0  0  0  0  0  0  0
   13.7270    5.7144   19.8610 O   0  0  0  0  0  0  0  0  0  0  0  0
    8.3351    5.5235   15.4478 C   0  0  0  0  0  0  0  0  0  0  0  0
    8.7700    7.8434   21.3915 C   0  0  0  0  0  0  0  0  0  0  0  0
   11.7856    6.8851   19.2401 C   0  0  0  0  0  0  0  0  0  0  0  0
   10.5281    7.4276   19.5649 C   0  0  0  0  0  0  0  0  0  0  0  0
   10.0256    7.2907   20.8484 C   0  0  0  0  0  0  0  0  0  0  0  0
    9.3113    5.3049   14.4911 C   0  0  0  0  0  0  0  0  0  0  0  0
    9.4607    7.5646   16.0139 C   0  0  0  0  0  0  0  0  0  0  0  0
   10.4192    7.3157   15.0955 C   0  0  0  0  0  0  0  0  0  0  0  0
   10.2489    6.4227   23.0218 N   0  0  0  0  0  0  0  0  0  0  0  0
    7.2472    8.0746   23.5050 C   0  0  0  0  0  0  0  0  0  0  0  0
    9.2051    6.9101   23.4604 C   0  0  0  0  0  0  0  0  0  0  0  0
   11.9646    6.0299   21.4251 C   0  0  0  0  0  0  0  0  0  0  0  0
  1  5  1  0
  1 13  1  0
  2 20  2  0
  2 28  1  0
  2 29  1  0
  3 19  4  0
  3 25  4  0
  4 23  4  0
  4 27  1  0
  4 30  4  0
  5 17  1  0
  6  8  1  0
  6 29  1  0
  7 24  4  0
  7 26  4  0
  8 28  1  0
  9 13  2  0
 10 18  1  0
 10 21  4  0
 10 30  4  0
 11 17  2  0
 12 18  1  0
 13 15  1  0
 14 24  1  0
 15 25  1  0
 16 28  2  0
 17 20  1  0
 19 24  4  0
 20 23  1  0
 21 22  4  0
 22 23  4  0
 25 26  4  0
 27 29  2  0
M  END
$$$$

 Created by Python create_sdf_string function

 30 33  0  0  0  0  0  0  0  0999 V2000
    8.3036    9.8571   18.4133 C   0  0  0  0  0  0  0  0  0  0  0  0
    8.3694    7.6612   22.6703 C   0  0  0  0  0  0  0  0  0  0  0  0
    8.4143    6.6863   16.2273 C   0  0  0  0  0  0  0  0  0  0  0  0
   10.7581    6.5674   21.7636 C   0  0  0  0  0  0  0  0  0  0  0  0
    8.4452    8.7960   19.2958 O   0  0  0  0  0  0  0  0  0  0  0  0
    8.7122    6.7842   24.8569 C   0  0  0  0  0  0  0  0  0  0  0  0
   10.3400    6.1726   14.3081 C   0  0  0  0  0  0  0  0  0  0  0  0
    7.4297    7.5873   24.8962 C   0  0  0  0  0  0  0  0  0  0  0  0
    8.1566   10.0536   16.0516 O   0  0  0  0  0  0  0  0  0  0  0  0
   12.4989    6.2074   20.1776 C   0  0  0  0  0  0  0  0  0  0  0  0
    6.9192    9.1053   20.9073 O   0  0  0  0  0  0  0  0  0  0  0  0
   14.3979    6.0729   18.7784 C   0  0  0  0  0  0  0  0  0  0  0  0
    8.6811    9.5354   16.9998 C   0  0  0  0  0  0  0  0  0  0  0  0
    9.2512    4.2713   13.7653 O   0  0  0  0  0  0  0  0  0  0  0  0
    9.6495    8.6317   16.8332 N   0  0  0  0  0  0  0  0  0  0  0  0
    6.2934    8.6988   23.1988 O   0  0  0  0  0  0  0  0  0  0  0  0
    7.9806    8.6543   20.5437 C   0  0  0  0  0  0  0  0  0  0  0  0
   13.7270    5.7144   19.8610 O   0  0  0  0  0  0  0  0  0  0  0  0
    8.3351    5.5235   15.4478 C   0  0  0  0  0  0  0  0  0  0  0  0
    8.7700    7.8434   21.3915 C   0  0  0  0  0  0  0  0  0  0  0  0
   11.7856    6.8851   19.2401 C   0  0  0  0  0  0  0  0  0  0  0  0
   10.5281    7.4276   19.5649 C   0  0  0  0  0  0  0  0  0  0  0  0
   10.0256    7.2907   20.8484 C   0  0  0  0  0  0  0  0  0  0  0  0
    9.3113    5.3049   14.4911 C   0  0  0  0  0  0  0  0  0  0  0  0
    9.4607    7.5646   16.0139 C   0  0  0  0  0  0  0  0  0  0  0  0
   10.4192    7.3157   15.0955 C   0  0  0  0  0  0  0  0  0  0  0  0
   10.2489    6.4227   23.0218 N   0  0  0  0  0  0  0  0  0  0  0  0
    7.2472    8.0746   23.5050 C   0  0  0  0  0  0  0  0  0  0  0  0
    9.2051    6.9101   23.4604 C   0  0  0  0  0  0  0  0  0  0  0  0
   11.9646    6.0299   21.4251 C   0  0  0  0  0  0  0  0  0  0  0  0
  1  5  1  0
  1 13  1  0
  2 20  2  0
  2 28  1  0
  2 29  1  0
  3 19  4  0
  3 25  4  0
  4 23  4  0
  4 27  1  0
  4 30  4  0
  5 17  1  0
  6  8  1  0
  6 29  1  0
  7 24  4  0
  7 26  4  0
  8 28  1  0
  9 13  2  0
 10 18  1  0
 10 21  4  0
 10 30  4  0
 11 17  2  0
 12 18  1  0
 13 15  1  0
 14 24  1  0
 15 25  1  0
 16 28  2  0
 17 20  1  0
 19 24  4  0
 20 23  1  0
 21 22  4  0
 22 23  4  0
 25 26  4  0
 27 29  2  0
M  END
$$$$

 Created by Python create_sdf_string function

 30 33  0  0  0  0  0  0  0  0999 V2000
    8.3036    9.8571   18.4133 C   0  0  0  0  0  0  0  0  0  0  0  0
    8.3694    7.6612   22.6703 C   0  0  0  0  0  0  0  0  0  0  0  0
    8.4143    6.6863   16.2273 C   0  0  0  0  0  0  0  0  0  0  0  0
   10.7581    6.5674   21.7636 C   0  0  0  0  0  0  0  0  0  0  0  0
    8.4452    8.7960   19.2958 O   0  0  0  0  0  0  0  0  0  0  0  0
    8.7122    6.7842   24.8569 C   0  0  0  0  0  0  0  0  0  0  0  0
   10.3400    6.1726   14.3081 C   0  0  0  0  0  0  0  0  0  0  0  0
    7.4297    7.5873   24.8962 C   0  0  0  0  0  0  0  0  0  0  0  0
    8.1566   10.0536   16.0516 O   0  0  0  0  0  0  0  0  0  0  0  0
   12.4989    6.2074   20.1776 C   0  0  0  0  0  0  0  0  0  0  0  0
    6.9192    9.1053   20.9073 O   0  0  0  0  0  0  0  0  0  0  0  0
   14.3979    6.0729   18.7784 C   0  0  0  0  0  0  0  0  0  0  0  0
    8.6811    9.5354   16.9998 C   0  0  0  0  0  0  0  0  0  0  0  0
    9.2512    4.2713   13.7653 O   0  0  0  0  0  0  0  0  0  0  0  0
    9.6495    8.6317   16.8332 N   0  0  0  0  0  0  0  0  0  0  0  0
    6.2934    8.6988   23.1988 O   0  0  0  0  0  0  0  0  0  0  0  0
    7.9806    8.6543   20.5437 C   0  0  0  0  0  0  0  0  0  0  0  0
   13.7270    5.7144   19.8610 O   0  0  0  0  0  0  0  0  0  0  0  0
    8.3351    5.5235   15.4478 C   0  0  0  0  0  0  0  0  0  0  0  0
    8.7700    7.8434   21.3915 C   0  0  0  0  0  0  0  0  0  0  0  0
   11.7856    6.8851   19.2401 C   0  0  0  0  0  0  0  0  0  0  0  0
   10.5281    7.4276   19.5649 C   0  0  0  0  0  0  0  0  0  0  0  0
   10.0256    7.2907   20.8484 C   0  0  0  0  0  0  0  0  0  0  0  0
    9.3113    5.3049   14.4911 C   0  0  0  0  0  0  0  0  0  0  0  0
    9.4607    7.5646   16.0139 C   0  0  0  0  0  0  0  0  0  0  0  0
   10.4192    7.3157   15.0955 C   0  0  0  0  0  0  0  0  0  0  0  0
   10.2489    6.4227   23.0218 N   0  0  0  0  0  0  0  0  0  0  0  0
    7.2472    8.0746   23.5050 C   0  0  0  0  0  0  0  0  0  0  0  0
    9.2051    6.9101   23.4604 C   0  0  0  0  0  0  0  0  0  0  0  0
   11.9646    6.0299   21.4251 C   0  0  0  0  0  0  0  0  0  0  0  0
  1  5  1  0
  1 13  1  0
  2 20  2  0
  2 28  1  0
  2 29  1  0
  3 19  4  0
  3 25  4  0
  4 23  4  0
  4 27  1  0
  4 30  4  0
  5 17  1  0
  6  8  1  0
  6 29  1  0
  7 24  4  0
  7 26  4  0
  8 28  1  0
  9 13  2  0
 10 18  1  0
 10 21  4  0
 10 30  4  0
 11 17  2  0
 12 18  1  0
 13 15  1  0
 14 24  1  0
 15 25  1  0
 16 28  2  0
 17 20  1  0
 19 24  4  0
 20 23  1  0
 21 22  4  0
 22 23  4  0
 25 26  4  0
 27 29  2  0
M  END
$$$$

 Created by Python create_sdf_string function

 30 33  0  0  0  0  0  0  0  0999 V2000
    8.3036    9.8571   18.4133 C   0  0  0  0  0  0  0  0  0  0  0  0
    8.3694    7.6612   22.6703 C   0  0  0  0  0  0  0  0  0  0  0  0
    8.4143    6.6863   16.2273 C   0  0  0  0  0  0  0  0  0  0  0  0
   10.7581    6.5674   21.7636 C   0  0  0  0  0  0  0  0  0  0  0  0
    8.4452    8.7960   19.2958 O   0  0  0  0  0  0  0  0  0  0  0  0
    8.7122    6.7842   24.8569 C   0  0  0  0  0  0  0  0  0  0  0  0
   10.3400    6.1726   14.3081 C   0  0  0  0  0  0  0  0  0  0  0  0
    7.4297    7.5873   24.8962 C   0  0  0  0  0  0  0  0  0  0  0  0
    8.1566   10.0536   16.0516 O   0  0  0  0  0  0  0  0  0  0  0  0
   12.4989    6.2074   20.1776 C   0  0  0  0  0  0  0  0  0  0  0  0
    6.9192    9.1053   20.9073 O   0  0  0  0  0  0  0  0  0  0  0  0
   14.3979    6.0729   18.7784 C   0  0  0  0  0  0  0  0  0  0  0  0
    8.6811    9.5354   16.9998 C   0  0  0  0  0  0  0  0  0  0  0  0
    9.2512    4.2713   13.7653 O   0  0  0  0  0  0  0  0  0  0  0  0
    9.6495    8.6317   16.8332 N   0  0  0  0  0  0  0  0  0  0  0  0
    6.2934    8.6988   23.1988 O   0  0  0  0  0  0  0  0  0  0  0  0
    7.9806    8.6543   20.5437 C   0  0  0  0  0  0  0  0  0  0  0  0
   13.7270    5.7144   19.8610 O   0  0  0  0  0  0  0  0  0  0  0  0
    8.3351    5.5235   15.4478 C   0  0  0  0  0  0  0  0  0  0  0  0
    8.7700    7.8434   21.3915 C   0  0  0  0  0  0  0  0  0  0  0  0
   11.7856    6.8851   19.2401 C   0  0  0  0  0  0  0  0  0  0  0  0
   10.5281    7.4276   19.5649 C   0  0  0  0  0  0  0  0  0  0  0  0
   10.0256    7.2907   20.8484 C   0  0  0  0  0  0  0  0  0  0  0  0
    9.3113    5.3049   14.4911 C   0  0  0  0  0  0  0  0  0  0  0  0
    9.4607    7.5646   16.0139 C   0  0  0  0  0  0  0  0  0  0  0  0
   10.4192    7.3157   15.0955 C   0  0  0  0  0  0  0  0  0  0  0  0
   10.2489    6.4227   23.0218 N   0  0  0  0  0  0  0  0  0  0  0  0
    7.2472    8.0746   23.5050 C   0  0  0  0  0  0  0  0  0  0  0  0
    9.2051    6.9101   23.4604 C   0  0  0  0  0  0  0  0  0  0  0  0
   11.9646    6.0299   21.4251 C   0  0  0  0  0  0  0  0  0  0  0  0
  1  5  1  0
  1 13  1  0
  2 20  2  0
  2 28  1  0
  2 29  1  0
  3 19  4  0
  3 25  4  0
  4 23  4  0
  4 27  1  0
  4 30  4  0
  5 17  1  0
  6  8  1  0
  6 29  1  0
  7 24  4  0
  7 26  4  0
  8 28  1  0
  9 13  2  0
 10 18  1  0
 10 21  4  0
 10 30  4  0
 11 17  2  0
 12 18  1  0
 13 15  1  0
 14 24  1  0
 15 25  1  0
 16 28  2  0
 17 20  1  0
 19 24  4  0
 20 23  1  0
 21 22  4  0
 22 23  4  0
 25 26  4  0
 27 29  2  0
M  END
$$$$

 Created by Python create_sdf_string function

 30 33  0  0  0  0  0  0  0  0999 V2000
    8.3036    9.8571   18.4133 C   0  0  0  0  0  0  0  0  0  0  0  0
    8.3694    7.6612   22.6703 C   0  0  0  0  0  0  0  0  0  0  0  0
    8.4143    6.6863   16.2273 C   0  0  0  0  0  0  0  0  0  0  0  0
   10.7581    6.5674   21.7636 C   0  0  0  0  0  0  0  0  0  0  0  0
    8.4452    8.7960   19.2958 O   0  0  0  0  0  0  0  0  0  0  0  0
    8.7122    6.7842   24.8569 C   0  0  0  0  0  0  0  0  0  0  0  0
   10.3400    6.1726   14.3081 C   0  0  0  0  0  0  0  0  0  0  0  0
    7.4297    7.5873   24.8962 C   0  0  0  0  0  0  0  0  0  0  0  0
    8.1566   10.0536   16.0516 O   0  0  0  0  0  0  0  0  0  0  0  0
   12.4989    6.2074   20.1776 C   0  0  0  0  0  0  0  0  0  0  0  0
    6.9192    9.1053   20.9073 O   0  0  0  0  0  0  0  0  0  0  0  0
   14.3979    6.0729   18.7784 C   0  0  0  0  0  0  0  0  0  0  0  0
    8.6811    9.5354   16.9998 C   0  0  0  0  0  0  0  0  0  0  0  0
    9.2512    4.2713   13.7653 O   0  0  0  0  0  0  0  0  0  0  0  0
    9.6495    8.6317   16.8332 N   0  0  0  0  0  0  0  0  0  0  0  0
    6.2934    8.6988   23.1988 O   0  0  0  0  0  0  0  0  0  0  0  0
    7.9806    8.6543   20.5437 C   0  0  0  0  0  0  0  0  0  0  0  0
   13.7270    5.7144   19.8610 O   0  0  0  0  0  0  0  0  0  0  0  0
    8.3351    5.5235   15.4478 C   0  0  0  0  0  0  0  0  0  0  0  0
    8.7700    7.8434   21.3915 C   0  0  0  0  0  0  0  0  0  0  0  0
   11.7856    6.8851   19.2401 C   0  0  0  0  0  0  0  0  0  0  0  0
   10.5281    7.4276   19.5649 C   0  0  0  0  0  0  0  0  0  0  0  0
   10.0256    7.2907   20.8484 C   0  0  0  0  0  0  0  0  0  0  0  0
    9.3113    5.3049   14.4911 C   0  0  0  0  0  0  0  0  0  0  0  0
    9.4607    7.5646   16.0139 C   0  0  0  0  0  0  0  0  0  0  0  0
   10.4192    7.3157   15.0955 C   0  0  0  0  0  0  0  0  0  0  0  0
   10.2489    6.4227   23.0218 N   0  0  0  0  0  0  0  0  0  0  0  0
    7.2472    8.0746   23.5050 C   0  0  0  0  0  0  0  0  0  0  0  0
    9.2051    6.9101   23.4604 C   0  0  0  0  0  0  0  0  0  0  0  0
   11.9646    6.0299   21.4251 C   0  0  0  0  0  0  0  0  0  0  0  0
  1  5  1  0
  1 13  1  0
  2 20  2  0
  2 28  1  0
  2 29  1  0
  3 19  4  0
  3 25  4  0
  4 23  4  0
  4 27  1  0
  4 30  4  0
  5 17  1  0
  6  8  1  0
  6 29  1  0
  7 24  4  0
  7 26  4  0
  8 28  1  0
  9 13  2  0
 10 18  1  0
 10 21  4  0
 10 30  4  0
 11 17  2  0
 12 18  1  0
 13 15  1  0
 14 24  1  0
 15 25  1  0
 16 28  2  0
 17 20  1  0
 19 24  4  0
 20 23  1  0
 21 22  4  0
 22 23  4  0
 25 26  4  0
 27 29  2  0
M  END
$$$$

 Created by Python create_sdf_string function

 30 33  0  0  0  0  0  0  0  0999 V2000
    8.3036    9.8571   18.4133 C   0  0  0  0  0  0  0  0  0  0  0  0
    8.3694    7.6612   22.6703 C   0  0  0  0  0  0  0  0  0  0  0  0
    8.4143    6.6863   16.2273 C   0  0  0  0  0  0  0  0  0  0  0  0
   10.7581    6.5674   21.7636 C   0  0  0  0  0  0  0  0  0  0  0  0
    8.4452    8.7960   19.2958 O   0  0  0  0  0  0  0  0  0  0  0  0
    8.7122    6.7842   24.8569 C   0  0  0  0  0  0  0  0  0  0  0  0
   10.3400    6.1726   14.3081 C   0  0  0  0  0  0  0  0  0  0  0  0
    7.4297    7.5873   24.8962 C   0  0  0  0  0  0  0  0  0  0  0  0
    8.1566   10.0536   16.0516 O   0  0  0  0  0  0  0  0  0  0  0  0
   12.4989    6.2074   20.1776 C   0  0  0  0  0  0  0  0  0  0  0  0
    6.9192    9.1053   20.9073 O   0  0  0  0  0  0  0  0  0  0  0  0
   14.3979    6.0729   18.7784 C   0  0  0  0  0  0  0  0  0  0  0  0
    8.6811    9.5354   16.9998 C   0  0  0  0  0  0  0  0  0  0  0  0
    9.2512    4.2713   13.7653 O   0  0  0  0  0  0  0  0  0  0  0  0
    9.6495    8.6317   16.8332 N   0  0  0  0  0  0  0  0  0  0  0  0
    6.2934    8.6988   23.1988 O   0  0  0  0  0  0  0  0  0  0  0  0
    7.9806    8.6543   20.5437 C   0  0  0  0  0  0  0  0  0  0  0  0
   13.7270    5.7144   19.8610 O   0  0  0  0  0  0  0  0  0  0  0  0
    8.3351    5.5235   15.4478 C   0  0  0  0  0  0  0  0  0  0  0  0
    8.7700    7.8434   21.3915 C   0  0  0  0  0  0  0  0  0  0  0  0
   11.7856    6.8851   19.2401 C   0  0  0  0  0  0  0  0  0  0  0  0
   10.5281    7.4276   19.5649 C   0  0  0  0  0  0  0  0  0  0  0  0
   10.0256    7.2907   20.8484 C   0  0  0  0  0  0  0  0  0  0  0  0
    9.3113    5.3049   14.4911 C   0  0  0  0  0  0  0  0  0  0  0  0
    9.4607    7.5646   16.0139 C   0  0  0  0  0  0  0  0  0  0  0  0
   10.4192    7.3157   15.0955 C   0  0  0  0  0  0  0  0  0  0  0  0
   10.2489    6.4227   23.0218 N   0  0  0  0  0  0  0  0  0  0  0  0
    7.2472    8.0746   23.5050 C   0  0  0  0  0  0  0  0  0  0  0  0
    9.2051    6.9101   23.4604 C   0  0  0  0  0  0  0  0  0  0  0  0
   11.9646    6.0299   21.4251 C   0  0  0  0  0  0  0  0  0  0  0  0
  1  5  1  0
  1 13  1  0
  2 20  2  0
  2 28  1  0
  2 29  1  0
  3 19  4  0
  3 25  4  0
  4 23  4  0
  4 27  1  0
  4 30  4  0
  5 17  1  0
  6  8  1  0
  6 29  1  0
  7 24  4  0
  7 26  4  0
  8 28  1  0
  9 13  2  0
 10 18  1  0
 10 21  4  0
 10 30  4  0
 11 17  2  0
 12 18  1  0
 13 15  1  0
 14 24  1  0
 15 25  1  0
 16 28  2  0
 17 20  1  0
 19 24  4  0
 20 23  1  0
 21 22  4  0
 22 23  4  0
 25 26  4  0
 27 29  2  0
M  END
$$$$

 Created by Python create_sdf_string function

 30 33  0  0  0  0  0  0  0  0999 V2000
    8.3036    9.8571   18.4133 C   0  0  0  0  0  0  0  0  0  0  0  0
    8.3694    7.6612   22.6703 C   0  0  0  0  0  0  0  0  0  0  0  0
    8.4143    6.6863   16.2273 C   0  0  0  0  0  0  0  0  0  0  0  0
   10.7581    6.5674   21.7636 C   0  0  0  0  0  0  0  0  0  0  0  0
    8.4452    8.7960   19.2958 O   0  0  0  0  0  0  0  0  0  0  0  0
    8.7122    6.7842   24.8569 C   0  0  0  0  0  0  0  0  0  0  0  0
   10.3400    6.1726   14.3081 C   0  0  0  0  0  0  0  0  0  0  0  0
    7.4297    7.5873   24.8962 C   0  0  0  0  0  0  0  0  0  0  0  0
    8.1566   10.0536   16.0516 O   0  0  0  0  0  0  0  0  0  0  0  0
   12.4989    6.2074   20.1776 C   0  0  0  0  0  0  0  0  0  0  0  0
    6.9192    9.1053   20.9073 O   0  0  0  0  0  0  0  0  0  0  0  0
   14.3979    6.0729   18.7784 C   0  0  0  0  0  0  0  0  0  0  0  0
    8.6811    9.5354   16.9998 C   0  0  0  0  0  0  0  0  0  0  0  0
    9.2512    4.2713   13.7653 O   0  0  0  0  0  0  0  0  0  0  0  0
    9.6495    8.6317   16.8332 N   0  0  0  0  0  0  0  0  0  0  0  0
    6.2934    8.6988   23.1988 O   0  0  0  0  0  0  0  0  0  0  0  0
    7.9806    8.6543   20.5437 C   0  0  0  0  0  0  0  0  0  0  0  0
   13.7270    5.7144   19.8610 O   0  0  0  0  0  0  0  0  0  0  0  0
    8.3351    5.5235   15.4478 C   0  0  0  0  0  0  0  0  0  0  0  0
    8.7700    7.8434   21.3915 C   0  0  0  0  0  0  0  0  0  0  0  0
   11.7856    6.8851   19.2401 C   0  0  0  0  0  0  0  0  0  0  0  0
   10.5281    7.4276   19.5649 C   0  0  0  0  0  0  0  0  0  0  0  0
   10.0256    7.2907   20.8484 C   0  0  0  0  0  0  0  0  0  0  0  0
    9.3113    5.3049   14.4911 C   0  0  0  0  0  0  0  0  0  0  0  0
    9.4607    7.5646   16.0139 C   0  0  0  0  0  0  0  0  0  0  0  0
   10.4192    7.3157   15.0955 C   0  0  0  0  0  0  0  0  0  0  0  0
   10.2489    6.4227   23.0218 N   0  0  0  0  0  0  0  0  0  0  0  0
    7.2472    8.0746   23.5050 C   0  0  0  0  0  0  0  0  0  0  0  0
    9.2051    6.9101   23.4604 C   0  0  0  0  0  0  0  0  0  0  0  0
   11.9646    6.0299   21.4251 C   0  0  0  0  0  0  0  0  0  0  0  0
  1  5  1  0
  1 13  1  0
  2 20  2  0
  2 28  1  0
  2 29  1  0
  3 19  4  0
  3 25  4  0
  4 23  4  0
  4 27  1  0
  4 30  4  0
  5 17  1  0
  6  8  1  0
  6 29  1  0
  7 24  4  0
  7 26  4  0
  8 28  1  0
  9 13  2  0
 10 18  1  0
 10 21  4  0
 10 30  4  0
 11 17  2  0
 12 18  1  0
 13 15  1  0
 14 24  1  0
 15 25  1  0
 16 28  2  0
 17 20  1  0
 19 24  4  0
 20 23  1  0
 21 22  4  0
 22 23  4  0
 25 26  4  0
 27 29  2  0
M  END
$$$$

 Created by Python create_sdf_string function

 30 33  0  0  0  0  0  0  0  0999 V2000
    8.3036    9.8571   18.4133 C   0  0  0  0  0  0  0  0  0  0  0  0
    8.3694    7.6612   22.6703 C   0  0  0  0  0  0  0  0  0  0  0  0
    8.4143    6.6863   16.2273 C   0  0  0  0  0  0  0  0  0  0  0  0
   10.7581    6.5674   21.7636 C   0  0  0  0  0  0  0  0  0  0  0  0
    8.4452    8.7960   19.2958 O   0  0  0  0  0  0  0  0  0  0  0  0
    8.7122    6.7842   24.8569 C   0  0  0  0  0  0  0  0  0  0  0  0
   10.3400    6.1726   14.3081 C   0  0  0  0  0  0  0  0  0  0  0  0
    7.4297    7.5873   24.8962 C   0  0  0  0  0  0  0  0  0  0  0  0
    8.1566   10.0536   16.0516 O   0  0  0  0  0  0  0  0  0  0  0  0
   12.4989    6.2074   20.1776 C   0  0  0  0  0  0  0  0  0  0  0  0
    6.9192    9.1053   20.9073 O   0  0  0  0  0  0  0  0  0  0  0  0
   14.3979    6.0729   18.7784 C   0  0  0  0  0  0  0  0  0  0  0  0
    8.6811    9.5354   16.9998 C   0  0  0  0  0  0  0  0  0  0  0  0
    9.2512    4.2713   13.7653 O   0  0  0  0  0  0  0  0  0  0  0  0
    9.6495    8.6317   16.8332 N   0  0  0  0  0  0  0  0  0  0  0  0
    6.2934    8.6988   23.1988 O   0  0  0  0  0  0  0  0  0  0  0  0
    7.9806    8.6543   20.5437 C   0  0  0  0  0  0  0  0  0  0  0  0
   13.7270    5.7144   19.8610 O   0  0  0  0  0  0  0  0  0  0  0  0
    8.3351    5.5235   15.4478 C   0  0  0  0  0  0  0  0  0  0  0  0
    8.7700    7.8434   21.3915 C   0  0  0  0  0  0  0  0  0  0  0  0
   11.7856    6.8851   19.2401 C   0  0  0  0  0  0  0  0  0  0  0  0
   10.5281    7.4276   19.5649 C   0  0  0  0  0  0  0  0  0  0  0  0
   10.0256    7.2907   20.8484 C   0  0  0  0  0  0  0  0  0  0  0  0
    9.3113    5.3049   14.4911 C   0  0  0  0  0  0  0  0  0  0  0  0
    9.4607    7.5646   16.0139 C   0  0  0  0  0  0  0  0  0  0  0  0
   10.4192    7.3157   15.0955 C   0  0  0  0  0  0  0  0  0  0  0  0
   10.2489    6.4227   23.0218 N   0  0  0  0  0  0  0  0  0  0  0  0
    7.2472    8.0746   23.5050 C   0  0  0  0  0  0  0  0  0  0  0  0
    9.2051    6.9101   23.4604 C   0  0  0  0  0  0  0  0  0  0  0  0
   11.9646    6.0299   21.4251 C   0  0  0  0  0  0  0  0  0  0  0  0
  1  5  1  0
  1 13  1  0
  2 20  2  0
  2 28  1  0
  2 29  1  0
  3 19  4  0
  3 25  4  0
  4 23  4  0
  4 27  1  0
  4 30  4  0
  5 17  1  0
  6  8  1  0
  6 29  1  0
  7 24  4  0
  7 26  4  0
  8 28  1  0
  9 13  2  0
 10 18  1  0
 10 21  4  0
 10 30  4  0
 11 17  2  0
 12 18  1  0
 13 15  1  0
 14 24  1  0
 15 25  1  0
 16 28  2  0
 17 20  1  0
 19 24  4  0
 20 23  1  0
 21 22  4  0
 22 23  4  0
 25 26  4  0
 27 29  2  0
M  END
$$$$

 Created by Python create_sdf_string function

 30 33  0  0  0  0  0  0  0  0999 V2000
    8.3036    9.8571   18.4133 C   0  0  0  0  0  0  0  0  0  0  0  0
    8.3694    7.6612   22.6703 C   0  0  0  0  0  0  0  0  0  0  0  0
    8.4143    6.6863   16.2273 C   0  0  0  0  0  0  0  0  0  0  0  0
   10.7581    6.5674   21.7636 C   0  0  0  0  0  0  0  0  0  0  0  0
    8.4452    8.7960   19.2958 O   0  0  0  0  0  0  0  0  0  0  0  0
    8.7122    6.7842   24.8569 C   0  0  0  0  0  0  0  0  0  0  0  0
   10.3400    6.1726   14.3081 C   0  0  0  0  0  0  0  0  0  0  0  0
    7.4297    7.5873   24.8962 C   0  0  0  0  0  0  0  0  0  0  0  0
    8.1566   10.0536   16.0516 O   0  0  0  0  0  0  0  0  0  0  0  0
   12.4989    6.2074   20.1776 C   0  0  0  0  0  0  0  0  0  0  0  0
    6.9192    9.1053   20.9073 O   0  0  0  0  0  0  0  0  0  0  0  0
   14.3979    6.0729   18.7784 C   0  0  0  0  0  0  0  0  0  0  0  0
    8.6811    9.5354   16.9998 C   0  0  0  0  0  0  0  0  0  0  0  0
    9.2512    4.2713   13.7653 O   0  0  0  0  0  0  0  0  0  0  0  0
    9.6495    8.6317   16.8332 N   0  0  0  0  0  0  0  0  0  0  0  0
    6.2934    8.6988   23.1988 O   0  0  0  0  0  0  0  0  0  0  0  0
    7.9806    8.6543   20.5437 C   0  0  0  0  0  0  0  0  0  0  0  0
   13.7270    5.7144   19.8610 O   0  0  0  0  0  0  0  0  0  0  0  0
    8.3351    5.5235   15.4478 C   0  0  0  0  0  0  0  0  0  0  0  0
    8.7700    7.8434   21.3915 C   0  0  0  0  0  0  0  0  0  0  0  0
   11.7856    6.8851   19.2401 C   0  0  0  0  0  0  0  0  0  0  0  0
   10.5281    7.4276   19.5649 C   0  0  0  0  0  0  0  0  0  0  0  0
   10.0256    7.2907   20.8484 C   0  0  0  0  0  0  0  0  0  0  0  0
    9.3113    5.3049   14.4911 C   0  0  0  0  0  0  0  0  0  0  0  0
    9.4607    7.5646   16.0139 C   0  0  0  0  0  0  0  0  0  0  0  0
   10.4192    7.3157   15.0955 C   0  0  0  0  0  0  0  0  0  0  0  0
   10.2489    6.4227   23.0218 N   0  0  0  0  0  0  0  0  0  0  0  0
    7.2472    8.0746   23.5050 C   0  0  0  0  0  0  0  0  0  0  0  0
    9.2051    6.9101   23.4604 C   0  0  0  0  0  0  0  0  0  0  0  0
   11.9646    6.0299   21.4251 C   0  0  0  0  0  0  0  0  0  0  0  0
  1  5  1  0
  1 13  1  0
  2 20  2  0
  2 28  1  0
  2 29  1  0
  3 19  4  0
  3 25  4  0
  4 23  4  0
  4 27  1  0
  4 30  4  0
  5 17  1  0
  6  8  1  0
  6 29  1  0
  7 24  4  0
  7 26  4  0
  8 28  1  0
  9 13  2  0
 10 18  1  0
 10 21  4  0
 10 30  4  0
 11 17  2  0
 12 18  1  0
 13 15  1  0
 14 24  1  0
 15 25  1  0
 16 28  2  0
 17 20  1  0
 19 24  4  0
 20 23  1  0
 21 22  4  0
 22 23  4  0
 25 26  4  0
 27 29  2  0
M  END
$$$$

 Created by Python create_sdf_string function

 30 33  0  0  0  0  0  0  0  0999 V2000
    8.3036    9.8571   18.4133 C   0  0  0  0  0  0  0  0  0  0  0  0
    8.3694    7.6612   22.6703 C   0  0  0  0  0  0  0  0  0  0  0  0
    8.4143    6.6863   16.2273 C   0  0  0  0  0  0  0  0  0  0  0  0
   10.7581    6.5674   21.7636 C   0  0  0  0  0  0  0  0  0  0  0  0
    8.4452    8.7960   19.2958 O   0  0  0  0  0  0  0  0  0  0  0  0
    8.7122    6.7842   24.8569 C   0  0  0  0  0  0  0  0  0  0  0  0
   10.3400    6.1726   14.3081 C   0  0  0  0  0  0  0  0  0  0  0  0
    7.4297    7.5873   24.8962 C   0  0  0  0  0  0  0  0  0  0  0  0
    8.1566   10.0536   16.0516 O   0  0  0  0  0  0  0  0  0  0  0  0
   12.4989    6.2074   20.1776 C   0  0  0  0  0  0  0  0  0  0  0  0
    6.9192    9.1053   20.9073 O   0  0  0  0  0  0  0  0  0  0  0  0
   14.3979    6.0729   18.7784 C   0  0  0  0  0  0  0  0  0  0  0  0
    8.6811    9.5354   16.9998 C   0  0  0  0  0  0  0  0  0  0  0  0
    9.2512    4.2713   13.7653 O   0  0  0  0  0  0  0  0  0  0  0  0
    9.6495    8.6317   16.8332 N   0  0  0  0  0  0  0  0  0  0  0  0
    6.2934    8.6988   23.1988 O   0  0  0  0  0  0  0  0  0  0  0  0
    7.9806    8.6543   20.5437 C   0  0  0  0  0  0  0  0  0  0  0  0
   13.7270    5.7144   19.8610 O   0  0  0  0  0  0  0  0  0  0  0  0
    8.3351    5.5235   15.4478 C   0  0  0  0  0  0  0  0  0  0  0  0
    8.7700    7.8434   21.3915 C   0  0  0  0  0  0  0  0  0  0  0  0
   11.7856    6.8851   19.2401 C   0  0  0  0  0  0  0  0  0  0  0  0
   10.5281    7.4276   19.5649 C   0  0  0  0  0  0  0  0  0  0  0  0
   10.0256    7.2907   20.8484 C   0  0  0  0  0  0  0  0  0  0  0  0
    9.3113    5.3049   14.4911 C   0  0  0  0  0  0  0  0  0  0  0  0
    9.4607    7.5646   16.0139 C   0  0  0  0  0  0  0  0  0  0  0  0
   10.4192    7.3157   15.0955 C   0  0  0  0  0  0  0  0  0  0  0  0
   10.2489    6.4227   23.0218 N   0  0  0  0  0  0  0  0  0  0  0  0
    7.2472    8.0746   23.5050 C   0  0  0  0  0  0  0  0  0  0  0  0
    9.2051    6.9101   23.4604 C   0  0  0  0  0  0  0  0  0  0  0  0
   11.9646    6.0299   21.4251 C   0  0  0  0  0  0  0  0  0  0  0  0
  1  5  1  0
  1 13  1  0
  2 20  2  0
  2 28  1  0
  2 29  1  0
  3 19  4  0
  3 25  4  0
  4 23  4  0
  4 27  1  0
  4 30  4  0
  5 17  1  0
  6  8  1  0
  6 29  1  0
  7 24  4  0
  7 26  4  0
  8 28  1  0
  9 13  2  0
 10 18  1  0
 10 21  4  0
 10 30  4  0
 11 17  2  0
 12 18  1  0
 13 15  1  0
 14 24  1  0
 15 25  1  0
 16 28  2  0
 17 20  1  0
 19 24  4  0
 20 23  1  0
 21 22  4  0
 22 23  4  0
 25 26  4  0
 27 29  2  0
M  END
$$$$

 Created by Python create_sdf_string function

 30 33  0  0  0  0  0  0  0  0999 V2000
    8.3036    9.8571   18.4133 C   0  0  0  0  0  0  0  0  0  0  0  0
    8.3694    7.6612   22.6703 C   0  0  0  0  0  0  0  0  0  0  0  0
    8.4143    6.6863   16.2273 C   0  0  0  0  0  0  0  0  0  0  0  0
   10.7581    6.5674   21.7636 C   0  0  0  0  0  0  0  0  0  0  0  0
    8.4452    8.7960   19.2958 O   0  0  0  0  0  0  0  0  0  0  0  0
    8.7122    6.7842   24.8569 C   0  0  0  0  0  0  0  0  0  0  0  0
   10.3400    6.1726   14.3081 C   0  0  0  0  0  0  0  0  0  0  0  0
    7.4297    7.5873   24.8962 C   0  0  0  0  0  0  0  0  0  0  0  0
    8.1566   10.0536   16.0516 O   0  0  0  0  0  0  0  0  0  0  0  0
   12.4989    6.2074   20.1776 C   0  0  0  0  0  0  0  0  0  0  0  0
    6.9192    9.1053   20.9073 O   0  0  0  0  0  0  0  0  0  0  0  0
   14.3979    6.0729   18.7784 C   0  0  0  0  0  0  0  0  0  0  0  0
    8.6811    9.5354   16.9998 C   0  0  0  0  0  0  0  0  0  0  0  0
    9.2512    4.2713   13.7653 O   0  0  0  0  0  0  0  0  0  0  0  0
    9.6495    8.6317   16.8332 N   0  0  0  0  0  0  0  0  0  0  0  0
    6.2934    8.6988   23.1988 O   0  0  0  0  0  0  0  0  0  0  0  0
    7.9806    8.6543   20.5437 C   0  0  0  0  0  0  0  0  0  0  0  0
   13.7270    5.7144   19.8610 O   0  0  0  0  0  0  0  0  0  0  0  0
    8.3351    5.5235   15.4478 C   0  0  0  0  0  0  0  0  0  0  0  0
    8.7700    7.8434   21.3915 C   0  0  0  0  0  0  0  0  0  0  0  0
   11.7856    6.8851   19.2401 C   0  0  0  0  0  0  0  0  0  0  0  0
   10.5281    7.4276   19.5649 C   0  0  0  0  0  0  0  0  0  0  0  0
   10.0256    7.2907   20.8484 C   0  0  0  0  0  0  0  0  0  0  0  0
    9.3113    5.3049   14.4911 C   0  0  0  0  0  0  0  0  0  0  0  0
    9.4607    7.5646   16.0139 C   0  0  0  0  0  0  0  0  0  0  0  0
   10.4192    7.3157   15.0955 C   0  0  0  0  0  0  0  0  0  0  0  0
   10.2489    6.4227   23.0218 N   0  0  0  0  0  0  0  0  0  0  0  0
    7.2472    8.0746   23.5050 C   0  0  0  0  0  0  0  0  0  0  0  0
    9.2051    6.9101   23.4604 C   0  0  0  0  0  0  0  0  0  0  0  0
   11.9646    6.0299   21.4251 C   0  0  0  0  0  0  0  0  0  0  0  0
  1  5  1  0
  1 13  1  0
  2 20  2  0
  2 28  1  0
  2 29  1  0
  3 19  4  0
  3 25  4  0
  4 23  4  0
  4 27  1  0
  4 30  4  0
  5 17  1  0
  6  8  1  0
  6 29  1  0
  7 24  4  0
  7 26  4  0
  8 28  1  0
  9 13  2  0
 10 18  1  0
 10 21  4  0
 10 30  4  0
 11 17  2  0
 12 18  1  0
 13 15  1  0
 14 24  1  0
 15 25  1  0
 16 28  2  0
 17 20  1  0
 19 24  4  0
 20 23  1  0
 21 22  4  0
 22 23  4  0
 25 26  4  0
 27 29  2  0
M  END
$$$$

 Created by Python create_sdf_string function

 30 33  0  0  0  0  0  0  0  0999 V2000
    8.3036    9.8571   18.4133 C   0  0  0  0  0  0  0  0  0  0  0  0
    8.3694    7.6612   22.6703 C   0  0  0  0  0  0  0  0  0  0  0  0
    8.4143    6.6863   16.2273 C   0  0  0  0  0  0  0  0  0  0  0  0
   10.7581    6.5674   21.7636 C   0  0  0  0  0  0  0  0  0  0  0  0
    8.4452    8.7960   19.2958 O   0  0  0  0  0  0  0  0  0  0  0  0
    8.7122    6.7842   24.8569 C   0  0  0  0  0  0  0  0  0  0  0  0
   10.3400    6.1726   14.3081 C   0  0  0  0  0  0  0  0  0  0  0  0
    7.4297    7.5873   24.8962 C   0  0  0  0  0  0  0  0  0  0  0  0
    8.1566   10.0536   16.0516 O   0  0  0  0  0  0  0  0  0  0  0  0
   12.4989    6.2074   20.1776 C   0  0  0  0  0  0  0  0  0  0  0  0
    6.9192    9.1053   20.9073 O   0  0  0  0  0  0  0  0  0  0  0  0
   14.3979    6.0729   18.7784 C   0  0  0  0  0  0  0  0  0  0  0  0
    8.6811    9.5354   16.9998 C   0  0  0  0  0  0  0  0  0  0  0  0
    9.2512    4.2713   13.7653 O   0  0  0  0  0  0  0  0  0  0  0  0
    9.6495    8.6317   16.8332 N   0  0  0  0  0  0  0  0  0  0  0  0
    6.2934    8.6988   23.1988 O   0  0  0  0  0  0  0  0  0  0  0  0
    7.9806    8.6543   20.5437 C   0  0  0  0  0  0  0  0  0  0  0  0
   13.7270    5.7144   19.8610 O   0  0  0  0  0  0  0  0  0  0  0  0
    8.3351    5.5235   15.4478 C   0  0  0  0  0  0  0  0  0  0  0  0
    8.7700    7.8434   21.3915 C   0  0  0  0  0  0  0  0  0  0  0  0
   11.7856    6.8851   19.2401 C   0  0  0  0  0  0  0  0  0  0  0  0
   10.5281    7.4276   19.5649 C   0  0  0  0  0  0  0  0  0  0  0  0
   10.0256    7.2907   20.8484 C   0  0  0  0  0  0  0  0  0  0  0  0
    9.3113    5.3049   14.4911 C   0  0  0  0  0  0  0  0  0  0  0  0
    9.4607    7.5646   16.0139 C   0  0  0  0  0  0  0  0  0  0  0  0
   10.4192    7.3157   15.0955 C   0  0  0  0  0  0  0  0  0  0  0  0
   10.2489    6.4227   23.0218 N   0  0  0  0  0  0  0  0  0  0  0  0
    7.2472    8.0746   23.5050 C   0  0  0  0  0  0  0  0  0  0  0  0
    9.2051    6.9101   23.4604 C   0  0  0  0  0  0  0  0  0  0  0  0
   11.9646    6.0299   21.4251 C   0  0  0  0  0  0  0  0  0  0  0  0
  1  5  1  0
  1 13  1  0
  2 20  2  0
  2 28  1  0
  2 29  1  0
  3 19  4  0
  3 25  4  0
  4 23  4  0
  4 27  1  0
  4 30  4  0
  5 17  1  0
  6  8  1  0
  6 29  1  0
  7 24  4  0
  7 26  4  0
  8 28  1  0
  9 13  2  0
 10 18  1  0
 10 21  4  0
 10 30  4  0
 11 17  2  0
 12 18  1  0
 13 15  1  0
 14 24  1  0
 15 25  1  0
 16 28  2  0
 17 20  1  0
 19 24  4  0
 20 23  1  0
 21 22  4  0
 22 23  4  0
 25 26  4  0
 27 29  2  0
M  END
$$$$

 Created by Python create_sdf_string function

 30 33  0  0  0  0  0  0  0  0999 V2000
    8.3036    9.8571   18.4133 C   0  0  0  0  0  0  0  0  0  0  0  0
    8.3694    7.6612   22.6703 C   0  0  0  0  0  0  0  0  0  0  0  0
    8.4143    6.6863   16.2273 C   0  0  0  0  0  0  0  0  0  0  0  0
   10.7581    6.5674   21.7636 C   0  0  0  0  0  0  0  0  0  0  0  0
    8.4452    8.7960   19.2958 O   0  0  0  0  0  0  0  0  0  0  0  0
    8.7122    6.7842   24.8569 C   0  0  0  0  0  0  0  0  0  0  0  0
   10.3400    6.1726   14.3081 C   0  0  0  0  0  0  0  0  0  0  0  0
    7.4297    7.5873   24.8962 C   0  0  0  0  0  0  0  0  0  0  0  0
    8.1566   10.0536   16.0516 O   0  0  0  0  0  0  0  0  0  0  0  0
   12.4989    6.2074   20.1776 C   0  0  0  0  0  0  0  0  0  0  0  0
    6.9192    9.1053   20.9073 O   0  0  0  0  0  0  0  0  0  0  0  0
   14.3979    6.0729   18.7784 C   0  0  0  0  0  0  0  0  0  0  0  0
    8.6811    9.5354   16.9998 C   0  0  0  0  0  0  0  0  0  0  0  0
    9.2512    4.2713   13.7653 O   0  0  0  0  0  0  0  0  0  0  0  0
    9.6495    8.6317   16.8332 N   0  0  0  0  0  0  0  0  0  0  0  0
    6.2934    8.6988   23.1988 O   0  0  0  0  0  0  0  0  0  0  0  0
    7.9806    8.6543   20.5437 C   0  0  0  0  0  0  0  0  0  0  0  0
   13.7270    5.7144   19.8610 O   0  0  0  0  0  0  0  0  0  0  0  0
    8.3351    5.5235   15.4478 C   0  0  0  0  0  0  0  0  0  0  0  0
    8.7700    7.8434   21.3915 C   0  0  0  0  0  0  0  0  0  0  0  0
   11.7856    6.8851   19.2401 C   0  0  0  0  0  0  0  0  0  0  0  0
   10.5281    7.4276   19.5649 C   0  0  0  0  0  0  0  0  0  0  0  0
   10.0256    7.2907   20.8484 C   0  0  0  0  0  0  0  0  0  0  0  0
    9.3113    5.3049   14.4911 C   0  0  0  0  0  0  0  0  0  0  0  0
    9.4607    7.5646   16.0139 C   0  0  0  0  0  0  0  0  0  0  0  0
   10.4192    7.3157   15.0955 C   0  0  0  0  0  0  0  0  0  0  0  0
   10.2489    6.4227   23.0218 N   0  0  0  0  0  0  0  0  0  0  0  0
    7.2472    8.0746   23.5050 C   0  0  0  0  0  0  0  0  0  0  0  0
    9.2051    6.9101   23.4604 C   0  0  0  0  0  0  0  0  0  0  0  0
   11.9646    6.0299   21.4251 C   0  0  0  0  0  0  0  0  0  0  0  0
  1  5  1  0
  1 13  1  0
  2 20  2  0
  2 28  1  0
  2 29  1  0
  3 19  4  0
  3 25  4  0
  4 23  4  0
  4 27  1  0
  4 30  4  0
  5 17  1  0
  6  8  1  0
  6 29  1  0
  7 24  4  0
  7 26  4  0
  8 28  1  0
  9 13  2  0
 10 18  1  0
 10 21  4  0
 10 30  4  0
 11 17  2  0
 12 18  1  0
 13 15  1  0
 14 24  1  0
 15 25  1  0
 16 28  2  0
 17 20  1  0
 19 24  4  0
 20 23  1  0
 21 22  4  0
 22 23  4  0
 25 26  4  0
 27 29  2  0
M  END
$$$$

 Created by Python create_sdf_string function

 30 33  0  0  0  0  0  0  0  0999 V2000
    8.3036    9.8571   18.4133 C   0  0  0  0  0  0  0  0  0  0  0  0
    8.3694    7.6612   22.6703 C   0  0  0  0  0  0  0  0  0  0  0  0
    8.4143    6.6863   16.2273 C   0  0  0  0  0  0  0  0  0  0  0  0
   10.7581    6.5674   21.7636 C   0  0  0  0  0  0  0  0  0  0  0  0
    8.4452    8.7960   19.2958 O   0  0  0  0  0  0  0  0  0  0  0  0
    8.7122    6.7842   24.8569 C   0  0  0  0  0  0  0  0  0  0  0  0
   10.3400    6.1726   14.3081 C   0  0  0  0  0  0  0  0  0  0  0  0
    7.4297    7.5873   24.8962 C   0  0  0  0  0  0  0  0  0  0  0  0
    8.1566   10.0536   16.0516 O   0  0  0  0  0  0  0  0  0  0  0  0
   12.4989    6.2074   20.1776 C   0  0  0  0  0  0  0  0  0  0  0  0
    6.9192    9.1053   20.9073 O   0  0  0  0  0  0  0  0  0  0  0  0
   14.3979    6.0729   18.7784 C   0  0  0  0  0  0  0  0  0  0  0  0
    8.6811    9.5354   16.9998 C   0  0  0  0  0  0  0  0  0  0  0  0
    9.2512    4.2713   13.7653 O   0  0  0  0  0  0  0  0  0  0  0  0
    9.6495    8.6317   16.8332 N   0  0  0  0  0  0  0  0  0  0  0  0
    6.2934    8.6988   23.1988 O   0  0  0  0  0  0  0  0  0  0  0  0
    7.9806    8.6543   20.5437 C   0  0  0  0  0  0  0  0  0  0  0  0
   13.7270    5.7144   19.8610 O   0  0  0  0  0  0  0  0  0  0  0  0
    8.3351    5.5235   15.4478 C   0  0  0  0  0  0  0  0  0  0  0  0
    8.7700    7.8434   21.3915 C   0  0  0  0  0  0  0  0  0  0  0  0
   11.7856    6.8851   19.2401 C   0  0  0  0  0  0  0  0  0  0  0  0
   10.5281    7.4276   19.5649 C   0  0  0  0  0  0  0  0  0  0  0  0
   10.0256    7.2907   20.8484 C   0  0  0  0  0  0  0  0  0  0  0  0
    9.3113    5.3049   14.4911 C   0  0  0  0  0  0  0  0  0  0  0  0
    9.4607    7.5646   16.0139 C   0  0  0  0  0  0  0  0  0  0  0  0
   10.4192    7.3157   15.0955 C   0  0  0  0  0  0  0  0  0  0  0  0
   10.2489    6.4227   23.0218 N   0  0  0  0  0  0  0  0  0  0  0  0
    7.2472    8.0746   23.5050 C   0  0  0  0  0  0  0  0  0  0  0  0
    9.2051    6.9101   23.4604 C   0  0  0  0  0  0  0  0  0  0  0  0
   11.9646    6.0299   21.4251 C   0  0  0  0  0  0  0  0  0  0  0  0
  1  5  1  0
  1 13  1  0
  2 20  2  0
  2 28  1  0
  2 29  1  0
  3 19  4  0
  3 25  4  0
  4 23  4  0
  4 27  1  0
  4 30  4  0
  5 17  1  0
  6  8  1  0
  6 29  1  0
  7 24  4  0
  7 26  4  0
  8 28  1  0
  9 13  2  0
 10 18  1  0
 10 21  4  0
 10 30  4  0
 11 17  2  0
 12 18  1  0
 13 15  1  0
 14 24  1  0
 15 25  1  0
 16 28  2  0
 17 20  1  0
 19 24  4  0
 20 23  1  0
 21 22  4  0
 22 23  4  0
 25 26  4  0
 27 29  2  0
M  END
$$$$

 Created by Python create_sdf_string function

 30 33  0  0  0  0  0  0  0  0999 V2000
    8.3036    9.8571   18.4133 C   0  0  0  0  0  0  0  0  0  0  0  0
    8.3694    7.6612   22.6703 C   0  0  0  0  0  0  0  0  0  0  0  0
    8.4143    6.6863   16.2273 C   0  0  0  0  0  0  0  0  0  0  0  0
   10.7581    6.5674   21.7636 C   0  0  0  0  0  0  0  0  0  0  0  0
    8.4452    8.7960   19.2958 O   0  0  0  0  0  0  0  0  0  0  0  0
    8.7122    6.7842   24.8569 C   0  0  0  0  0  0  0  0  0  0  0  0
   10.3400    6.1726   14.3081 C   0  0  0  0  0  0  0  0  0  0  0  0
    7.4297    7.5873   24.8962 C   0  0  0  0  0  0  0  0  0  0  0  0
    8.1566   10.0536   16.0516 O   0  0  0  0  0  0  0  0  0  0  0  0
   12.4989    6.2074   20.1776 C   0  0  0  0  0  0  0  0  0  0  0  0
    6.9192    9.1053   20.9073 O   0  0  0  0  0  0  0  0  0  0  0  0
   14.3979    6.0729   18.7784 C   0  0  0  0  0  0  0  0  0  0  0  0
    8.6811    9.5354   16.9998 C   0  0  0  0  0  0  0  0  0  0  0  0
    9.2512    4.2713   13.7653 O   0  0  0  0  0  0  0  0  0  0  0  0
    9.6495    8.6317   16.8332 N   0  0  0  0  0  0  0  0  0  0  0  0
    6.2934    8.6988   23.1988 O   0  0  0  0  0  0  0  0  0  0  0  0
    7.9806    8.6543   20.5437 C   0  0  0  0  0  0  0  0  0  0  0  0
   13.7270    5.7144   19.8610 O   0  0  0  0  0  0  0  0  0  0  0  0
    8.3351    5.5235   15.4478 C   0  0  0  0  0  0  0  0  0  0  0  0
    8.7700    7.8434   21.3915 C   0  0  0  0  0  0  0  0  0  0  0  0
   11.7856    6.8851   19.2401 C   0  0  0  0  0  0  0  0  0  0  0  0
   10.5281    7.4276   19.5649 C   0  0  0  0  0  0  0  0  0  0  0  0
   10.0256    7.2907   20.8484 C   0  0  0  0  0  0  0  0  0  0  0  0
    9.3113    5.3049   14.4911 C   0  0  0  0  0  0  0  0  0  0  0  0
    9.4607    7.5646   16.0139 C   0  0  0  0  0  0  0  0  0  0  0  0
   10.4192    7.3157   15.0955 C   0  0  0  0  0  0  0  0  0  0  0  0
   10.2489    6.4227   23.0218 N   0  0  0  0  0  0  0  0  0  0  0  0
    7.2472    8.0746   23.5050 C   0  0  0  0  0  0  0  0  0  0  0  0
    9.2051    6.9101   23.4604 C   0  0  0  0  0  0  0  0  0  0  0  0
   11.9646    6.0299   21.4251 C   0  0  0  0  0  0  0  0  0  0  0  0
  1  5  1  0
  1 13  1  0
  2 20  2  0
  2 28  1  0
  2 29  1  0
  3 19  4  0
  3 25  4  0
  4 23  4  0
  4 27  1  0
  4 30  4  0
  5 17  1  0
  6  8  1  0
  6 29  1  0
  7 24  4  0
  7 26  4  0
  8 28  1  0
  9 13  2  0
 10 18  1  0
 10 21  4  0
 10 30  4  0
 11 17  2  0
 12 18  1  0
 13 15  1  0
 14 24  1  0
 15 25  1  0
 16 28  2  0
 17 20  1  0
 19 24  4  0
 20 23  1  0
 21 22  4  0
 22 23  4  0
 25 26  4  0
 27 29  2  0
M  END
$$$$

 Created by Python create_sdf_string function

 30 33  0  0  0  0  0  0  0  0999 V2000
    8.3036    9.8571   18.4133 C   0  0  0  0  0  0  0  0  0  0  0  0
    8.3694    7.6612   22.6703 C   0  0  0  0  0  0  0  0  0  0  0  0
    8.4143    6.6863   16.2273 C   0  0  0  0  0  0  0  0  0  0  0  0
   10.7581    6.5674   21.7636 C   0  0  0  0  0  0  0  0  0  0  0  0
    8.4452    8.7960   19.2958 O   0  0  0  0  0  0  0  0  0  0  0  0
    8.7122    6.7842   24.8569 C   0  0  0  0  0  0  0  0  0  0  0  0
   10.3400    6.1726   14.3081 C   0  0  0  0  0  0  0  0  0  0  0  0
    7.4297    7.5873   24.8962 C   0  0  0  0  0  0  0  0  0  0  0  0
    8.1566   10.0536   16.0516 O   0  0  0  0  0  0  0  0  0  0  0  0
   12.4989    6.2074   20.1776 C   0  0  0  0  0  0  0  0  0  0  0  0
    6.9192    9.1053   20.9073 O   0  0  0  0  0  0  0  0  0  0  0  0
   14.3979    6.0729   18.7784 C   0  0  0  0  0  0  0  0  0  0  0  0
    8.6811    9.5354   16.9998 C   0  0  0  0  0  0  0  0  0  0  0  0
    9.2512    4.2713   13.7653 O   0  0  0  0  0  0  0  0  0  0  0  0
    9.6495    8.6317   16.8332 N   0  0  0  0  0  0  0  0  0  0  0  0
    6.2934    8.6988   23.1988 O   0  0  0  0  0  0  0  0  0  0  0  0
    7.9806    8.6543   20.5437 C   0  0  0  0  0  0  0  0  0  0  0  0
   13.7270    5.7144   19.8610 O   0  0  0  0  0  0  0  0  0  0  0  0
    8.3351    5.5235   15.4478 C   0  0  0  0  0  0  0  0  0  0  0  0
    8.7700    7.8434   21.3915 C   0  0  0  0  0  0  0  0  0  0  0  0
   11.7856    6.8851   19.2401 C   0  0  0  0  0  0  0  0  0  0  0  0
   10.5281    7.4276   19.5649 C   0  0  0  0  0  0  0  0  0  0  0  0
   10.0256    7.2907   20.8484 C   0  0  0  0  0  0  0  0  0  0  0  0
    9.3113    5.3049   14.4911 C   0  0  0  0  0  0  0  0  0  0  0  0
    9.4607    7.5646   16.0139 C   0  0  0  0  0  0  0  0  0  0  0  0
   10.4192    7.3157   15.0955 C   0  0  0  0  0  0  0  0  0  0  0  0
   10.2489    6.4227   23.0218 N   0  0  0  0  0  0  0  0  0  0  0  0
    7.2472    8.0746   23.5050 C   0  0  0  0  0  0  0  0  0  0  0  0
    9.2051    6.9101   23.4604 C   0  0  0  0  0  0  0  0  0  0  0  0
   11.9646    6.0299   21.4251 C   0  0  0  0  0  0  0  0  0  0  0  0
  1  5  1  0
  1 13  1  0
  2 20  2  0
  2 28  1  0
  2 29  1  0
  3 19  4  0
  3 25  4  0
  4 23  4  0
  4 27  1  0
  4 30  4  0
  5 17  1  0
  6  8  1  0
  6 29  1  0
  7 24  4  0
  7 26  4  0
  8 28  1  0
  9 13  2  0
 10 18  1  0
 10 21  4  0
 10 30  4  0
 11 17  2  0
 12 18  1  0
 13 15  1  0
 14 24  1  0
 15 25  1  0
 16 28  2  0
 17 20  1  0
 19 24  4  0
 20 23  1  0
 21 22  4  0
 22 23  4  0
 25 26  4  0
 27 29  2  0
M  END
$$$$

 Created by Python create_sdf_string function

 30 33  0  0  0  0  0  0  0  0999 V2000
    8.3036    9.8571   18.4133 C   0  0  0  0  0  0  0  0  0  0  0  0
    8.3694    7.6612   22.6703 C   0  0  0  0  0  0  0  0  0  0  0  0
    8.4143    6.6863   16.2273 C   0  0  0  0  0  0  0  0  0  0  0  0
   10.7581    6.5674   21.7636 C   0  0  0  0  0  0  0  0  0  0  0  0
    8.4452    8.7960   19.2958 O   0  0  0  0  0  0  0  0  0  0  0  0
    8.7122    6.7842   24.8569 C   0  0  0  0  0  0  0  0  0  0  0  0
   10.3400    6.1726   14.3081 C   0  0  0  0  0  0  0  0  0  0  0  0
    7.4297    7.5873   24.8962 C   0  0  0  0  0  0  0  0  0  0  0  0
    8.1566   10.0536   16.0516 O   0  0  0  0  0  0  0  0  0  0  0  0
   12.4989    6.2074   20.1776 C   0  0  0  0  0  0  0  0  0  0  0  0
    6.9192    9.1053   20.9073 O   0  0  0  0  0  0  0  0  0  0  0  0
   14.3979    6.0729   18.7784 C   0  0  0  0  0  0  0  0  0  0  0  0
    8.6811    9.5354   16.9998 C   0  0  0  0  0  0  0  0  0  0  0  0
    9.2512    4.2713   13.7653 O   0  0  0  0  0  0  0  0  0  0  0  0
    9.6495    8.6317   16.8332 N   0  0  0  0  0  0  0  0  0  0  0  0
    6.2934    8.6988   23.1988 O   0  0  0  0  0  0  0  0  0  0  0  0
    7.9806    8.6543   20.5437 C   0  0  0  0  0  0  0  0  0  0  0  0
   13.7270    5.7144   19.8610 O   0  0  0  0  0  0  0  0  0  0  0  0
    8.3351    5.5235   15.4478 C   0  0  0  0  0  0  0  0  0  0  0  0
    8.7700    7.8434   21.3915 C   0  0  0  0  0  0  0  0  0  0  0  0
   11.7856    6.8851   19.2401 C   0  0  0  0  0  0  0  0  0  0  0  0
   10.5281    7.4276   19.5649 C   0  0  0  0  0  0  0  0  0  0  0  0
   10.0256    7.2907   20.8484 C   0  0  0  0  0  0  0  0  0  0  0  0
    9.3113    5.3049   14.4911 C   0  0  0  0  0  0  0  0  0  0  0  0
    9.4607    7.5646   16.0139 C   0  0  0  0  0  0  0  0  0  0  0  0
   10.4192    7.3157   15.0955 C   0  0  0  0  0  0  0  0  0  0  0  0
   10.2489    6.4227   23.0218 N   0  0  0  0  0  0  0  0  0  0  0  0
    7.2472    8.0746   23.5050 C   0  0  0  0  0  0  0  0  0  0  0  0
    9.2051    6.9101   23.4604 C   0  0  0  0  0  0  0  0  0  0  0  0
   11.9646    6.0299   21.4251 C   0  0  0  0  0  0  0  0  0  0  0  0
  1  5  1  0
  1 13  1  0
  2 20  2  0
  2 28  1  0
  2 29  1  0
  3 19  4  0
  3 25  4  0
  4 23  4  0
  4 27  1  0
  4 30  4  0
  5 17  1  0
  6  8  1  0
  6 29  1  0
  7 24  4  0
  7 26  4  0
  8 28  1  0
  9 13  2  0
 10 18  1  0
 10 21  4  0
 10 30  4  0
 11 17  2  0
 12 18  1  0
 13 15  1  0
 14 24  1  0
 15 25  1  0
 16 28  2  0
 17 20  1  0
 19 24  4  0
 20 23  1  0
 21 22  4  0
 22 23  4  0
 25 26  4  0
 27 29  2  0
M  END
$$$$

 Created by Python create_sdf_string function

 30 33  0  0  0  0  0  0  0  0999 V2000
    8.3036    9.8571   18.4133 C   0  0  0  0  0  0  0  0  0  0  0  0
    8.3694    7.6612   22.6703 C   0  0  0  0  0  0  0  0  0  0  0  0
    8.4143    6.6863   16.2273 C   0  0  0  0  0  0  0  0  0  0  0  0
   10.7581    6.5674   21.7636 C   0  0  0  0  0  0  0  0  0  0  0  0
    8.4452    8.7960   19.2958 O   0  0  0  0  0  0  0  0  0  0  0  0
    8.7122    6.7842   24.8569 C   0  0  0  0  0  0  0  0  0  0  0  0
   10.3400    6.1726   14.3081 C   0  0  0  0  0  0  0  0  0  0  0  0
    7.4297    7.5873   24.8962 C   0  0  0  0  0  0  0  0  0  0  0  0
    8.1566   10.0536   16.0516 O   0  0  0  0  0  0  0  0  0  0  0  0
   12.4989    6.2074   20.1776 C   0  0  0  0  0  0  0  0  0  0  0  0
    6.9192    9.1053   20.9073 O   0  0  0  0  0  0  0  0  0  0  0  0
   14.3979    6.0729   18.7784 C   0  0  0  0  0  0  0  0  0  0  0  0
    8.6811    9.5354   16.9998 C   0  0  0  0  0  0  0  0  0  0  0  0
    9.2512    4.2713   13.7653 O   0  0  0  0  0  0  0  0  0  0  0  0
    9.6495    8.6317   16.8332 N   0  0  0  0  0  0  0  0  0  0  0  0
    6.2934    8.6988   23.1988 O   0  0  0  0  0  0  0  0  0  0  0  0
    7.9806    8.6543   20.5437 C   0  0  0  0  0  0  0  0  0  0  0  0
   13.7270    5.7144   19.8610 O   0  0  0  0  0  0  0  0  0  0  0  0
    8.3351    5.5235   15.4478 C   0  0  0  0  0  0  0  0  0  0  0  0
    8.7700    7.8434   21.3915 C   0  0  0  0  0  0  0  0  0  0  0  0
   11.7856    6.8851   19.2401 C   0  0  0  0  0  0  0  0  0  0  0  0
   10.5281    7.4276   19.5649 C   0  0  0  0  0  0  0  0  0  0  0  0
   10.0256    7.2907   20.8484 C   0  0  0  0  0  0  0  0  0  0  0  0
    9.3113    5.3049   14.4911 C   0  0  0  0  0  0  0  0  0  0  0  0
    9.4607    7.5646   16.0139 C   0  0  0  0  0  0  0  0  0  0  0  0
   10.4192    7.3157   15.0955 C   0  0  0  0  0  0  0  0  0  0  0  0
   10.2489    6.4227   23.0218 N   0  0  0  0  0  0  0  0  0  0  0  0
    7.2472    8.0746   23.5050 C   0  0  0  0  0  0  0  0  0  0  0  0
    9.2051    6.9101   23.4604 C   0  0  0  0  0  0  0  0  0  0  0  0
   11.9646    6.0299   21.4251 C   0  0  0  0  0  0  0  0  0  0  0  0
  1  5  1  0
  1 13  1  0
  2 20  2  0
  2 28  1  0
  2 29  1  0
  3 19  4  0
  3 25  4  0
  4 23  4  0
  4 27  1  0
  4 30  4  0
  5 17  1  0
  6  8  1  0
  6 29  1  0
  7 24  4  0
  7 26  4  0
  8 28  1  0
  9 13  2  0
 10 18  1  0
 10 21  4  0
 10 30  4  0
 11 17  2  0
 12 18  1  0
 13 15  1  0
 14 24  1  0
 15 25  1  0
 16 28  2  0
 17 20  1  0
 19 24  4  0
 20 23  1  0
 21 22  4  0
 22 23  4  0
 25 26  4  0
 27 29  2  0
M  END
$$$$

 Created by Python create_sdf_string function

 30 33  0  0  0  0  0  0  0  0999 V2000
    8.3036    9.8571   18.4133 C   0  0  0  0  0  0  0  0  0  0  0  0
    8.3694    7.6612   22.6703 C   0  0  0  0  0  0  0  0  0  0  0  0
    8.4143    6.6863   16.2273 C   0  0  0  0  0  0  0  0  0  0  0  0
   10.7581    6.5674   21.7636 C   0  0  0  0  0  0  0  0  0  0  0  0
    8.4452    8.7960   19.2958 O   0  0  0  0  0  0  0  0  0  0  0  0
    8.7122    6.7842   24.8569 C   0  0  0  0  0  0  0  0  0  0  0  0
   10.3400    6.1726   14.3081 C   0  0  0  0  0  0  0  0  0  0  0  0
    7.4297    7.5873   24.8962 C   0  0  0  0  0  0  0  0  0  0  0  0
    8.1566   10.0536   16.0516 O   0  0  0  0  0  0  0  0  0  0  0  0
   12.4989    6.2074   20.1776 C   0  0  0  0  0  0  0  0  0  0  0  0
    6.9192    9.1053   20.9073 O   0  0  0  0  0  0  0  0  0  0  0  0
   14.3979    6.0729   18.7784 C   0  0  0  0  0  0  0  0  0  0  0  0
    8.6811    9.5354   16.9998 C   0  0  0  0  0  0  0  0  0  0  0  0
    9.2512    4.2713   13.7653 O   0  0  0  0  0  0  0  0  0  0  0  0
    9.6495    8.6317   16.8332 N   0  0  0  0  0  0  0  0  0  0  0  0
    6.2934    8.6988   23.1988 O   0  0  0  0  0  0  0  0  0  0  0  0
    7.9806    8.6543   20.5437 C   0  0  0  0  0  0  0  0  0  0  0  0
   13.7270    5.7144   19.8610 O   0  0  0  0  0  0  0  0  0  0  0  0
    8.3351    5.5235   15.4478 C   0  0  0  0  0  0  0  0  0  0  0  0
    8.7700    7.8434   21.3915 C   0  0  0  0  0  0  0  0  0  0  0  0
   11.7856    6.8851   19.2401 C   0  0  0  0  0  0  0  0  0  0  0  0
   10.5281    7.4276   19.5649 C   0  0  0  0  0  0  0  0  0  0  0  0
   10.0256    7.2907   20.8484 C   0  0  0  0  0  0  0  0  0  0  0  0
    9.3113    5.3049   14.4911 C   0  0  0  0  0  0  0  0  0  0  0  0
    9.4607    7.5646   16.0139 C   0  0  0  0  0  0  0  0  0  0  0  0
   10.4192    7.3157   15.0955 C   0  0  0  0  0  0  0  0  0  0  0  0
   10.2489    6.4227   23.0218 N   0  0  0  0  0  0  0  0  0  0  0  0
    7.2472    8.0746   23.5050 C   0  0  0  0  0  0  0  0  0  0  0  0
    9.2051    6.9101   23.4604 C   0  0  0  0  0  0  0  0  0  0  0  0
   11.9646    6.0299   21.4251 C   0  0  0  0  0  0  0  0  0  0  0  0
  1  5  1  0
  1 13  1  0
  2 20  2  0
  2 28  1  0
  2 29  1  0
  3 19  4  0
  3 25  4  0
  4 23  4  0
  4 27  1  0
  4 30  4  0
  5 17  1  0
  6  8  1  0
  6 29  1  0
  7 24  4  0
  7 26  4  0
  8 28  1  0
  9 13  2  0
 10 18  1  0
 10 21  4  0
 10 30  4  0
 11 17  2  0
 12 18  1  0
 13 15  1  0
 14 24  1  0
 15 25  1  0
 16 28  2  0
 17 20  1  0
 19 24  4  0
 20 23  1  0
 21 22  4  0
 22 23  4  0
 25 26  4  0
 27 29  2  0
M  END
$$$$

 Created by Python create_sdf_string function

 30 33  0  0  0  0  0  0  0  0999 V2000
    8.3036    9.8571   18.4133 C   0  0  0  0  0  0  0  0  0  0  0  0
    8.3694    7.6612   22.6703 C   0  0  0  0  0  0  0  0  0  0  0  0
    8.4143    6.6863   16.2273 C   0  0  0  0  0  0  0  0  0  0  0  0
   10.7581    6.5674   21.7636 C   0  0  0  0  0  0  0  0  0  0  0  0
    8.4452    8.7960   19.2958 O   0  0  0  0  0  0  0  0  0  0  0  0
    8.7122    6.7842   24.8569 C   0  0  0  0  0  0  0  0  0  0  0  0
   10.3400    6.1726   14.3081 C   0  0  0  0  0  0  0  0  0  0  0  0
    7.4297    7.5873   24.8962 C   0  0  0  0  0  0  0  0  0  0  0  0
    8.1566   10.0536   16.0516 O   0  0  0  0  0  0  0  0  0  0  0  0
   12.4989    6.2074   20.1776 C   0  0  0  0  0  0  0  0  0  0  0  0
    6.9192    9.1053   20.9073 O   0  0  0  0  0  0  0  0  0  0  0  0
   14.3979    6.0729   18.7784 C   0  0  0  0  0  0  0  0  0  0  0  0
    8.6811    9.5354   16.9998 C   0  0  0  0  0  0  0  0  0  0  0  0
    9.2512    4.2713   13.7653 O   0  0  0  0  0  0  0  0  0  0  0  0
    9.6495    8.6317   16.8332 N   0  0  0  0  0  0  0  0  0  0  0  0
    6.2934    8.6988   23.1988 O   0  0  0  0  0  0  0  0  0  0  0  0
    7.9806    8.6543   20.5437 C   0  0  0  0  0  0  0  0  0  0  0  0
   13.7270    5.7144   19.8610 O   0  0  0  0  0  0  0  0  0  0  0  0
    8.3351    5.5235   15.4478 C   0  0  0  0  0  0  0  0  0  0  0  0
    8.7700    7.8434   21.3915 C   0  0  0  0  0  0  0  0  0  0  0  0
   11.7856    6.8851   19.2401 C   0  0  0  0  0  0  0  0  0  0  0  0
   10.5281    7.4276   19.5649 C   0  0  0  0  0  0  0  0  0  0  0  0
   10.0256    7.2907   20.8484 C   0  0  0  0  0  0  0  0  0  0  0  0
    9.3113    5.3049   14.4911 C   0  0  0  0  0  0  0  0  0  0  0  0
    9.4607    7.5646   16.0139 C   0  0  0  0  0  0  0  0  0  0  0  0
   10.4192    7.3157   15.0955 C   0  0  0  0  0  0  0  0  0  0  0  0
   10.2489    6.4227   23.0218 N   0  0  0  0  0  0  0  0  0  0  0  0
    7.2472    8.0746   23.5050 C   0  0  0  0  0  0  0  0  0  0  0  0
    9.2051    6.9101   23.4604 C   0  0  0  0  0  0  0  0  0  0  0  0
   11.9646    6.0299   21.4251 C   0  0  0  0  0  0  0  0  0  0  0  0
  1  5  1  0
  1 13  1  0
  2 20  2  0
  2 28  1  0
  2 29  1  0
  3 19  4  0
  3 25  4  0
  4 23  4  0
  4 27  1  0
  4 30  4  0
  5 17  1  0
  6  8  1  0
  6 29  1  0
  7 24  4  0
  7 26  4  0
  8 28  1  0
  9 13  2  0
 10 18  1  0
 10 21  4  0
 10 30  4  0
 11 17  2  0
 12 18  1  0
 13 15  1  0
 14 24  1  0
 15 25  1  0
 16 28  2  0
 17 20  1  0
 19 24  4  0
 20 23  1  0
 21 22  4  0
 22 23  4  0
 25 26  4  0
 27 29  2  0
M  END
$$$$

 Created by Python create_sdf_string function

 30 33  0  0  0  0  0  0  0  0999 V2000
    8.3036    9.8571   18.4133 C   0  0  0  0  0  0  0  0  0  0  0  0
    8.3694    7.6612   22.6703 C   0  0  0  0  0  0  0  0  0  0  0  0
    8.4143    6.6863   16.2273 C   0  0  0  0  0  0  0  0  0  0  0  0
   10.7581    6.5674   21.7636 C   0  0  0  0  0  0  0  0  0  0  0  0
    8.4452    8.7960   19.2958 O   0  0  0  0  0  0  0  0  0  0  0  0
    8.7122    6.7842   24.8569 C   0  0  0  0  0  0  0  0  0  0  0  0
   10.3400    6.1726   14.3081 C   0  0  0  0  0  0  0  0  0  0  0  0
    7.4297    7.5873   24.8962 C   0  0  0  0  0  0  0  0  0  0  0  0
    8.1566   10.0536   16.0516 O   0  0  0  0  0  0  0  0  0  0  0  0
   12.4989    6.2074   20.1776 C   0  0  0  0  0  0  0  0  0  0  0  0
    6.9192    9.1053   20.9073 O   0  0  0  0  0  0  0  0  0  0  0  0
   14.3979    6.0729   18.7784 C   0  0  0  0  0  0  0  0  0  0  0  0
    8.6811    9.5354   16.9998 C   0  0  0  0  0  0  0  0  0  0  0  0
    9.2512    4.2713   13.7653 O   0  0  0  0  0  0  0  0  0  0  0  0
    9.6495    8.6317   16.8332 N   0  0  0  0  0  0  0  0  0  0  0  0
    6.2934    8.6988   23.1988 O   0  0  0  0  0  0  0  0  0  0  0  0
    7.9806    8.6543   20.5437 C   0  0  0  0  0  0  0  0  0  0  0  0
   13.7270    5.7144   19.8610 O   0  0  0  0  0  0  0  0  0  0  0  0
    8.3351    5.5235   15.4478 C   0  0  0  0  0  0  0  0  0  0  0  0
    8.7700    7.8434   21.3915 C   0  0  0  0  0  0  0  0  0  0  0  0
   11.7856    6.8851   19.2401 C   0  0  0  0  0  0  0  0  0  0  0  0
   10.5281    7.4276   19.5649 C   0  0  0  0  0  0  0  0  0  0  0  0
   10.0256    7.2907   20.8484 C   0  0  0  0  0  0  0  0  0  0  0  0
    9.3113    5.3049   14.4911 C   0  0  0  0  0  0  0  0  0  0  0  0
    9.4607    7.5646   16.0139 C   0  0  0  0  0  0  0  0  0  0  0  0
   10.4192    7.3157   15.0955 C   0  0  0  0  0  0  0  0  0  0  0  0
   10.2489    6.4227   23.0218 N   0  0  0  0  0  0  0  0  0  0  0  0
    7.2472    8.0746   23.5050 C   0  0  0  0  0  0  0  0  0  0  0  0
    9.2051    6.9101   23.4604 C   0  0  0  0  0  0  0  0  0  0  0  0
   11.9646    6.0299   21.4251 C   0  0  0  0  0  0  0  0  0  0  0  0
  1  5  1  0
  1 13  1  0
  2 20  2  0
  2 28  1  0
  2 29  1  0
  3 19  4  0
  3 25  4  0
  4 23  4  0
  4 27  1  0
  4 30  4  0
  5 17  1  0
  6  8  1  0
  6 29  1  0
  7 24  4  0
  7 26  4  0
  8 28  1  0
  9 13  2  0
 10 18  1  0
 10 21  4  0
 10 30  4  0
 11 17  2  0
 12 18  1  0
 13 15  1  0
 14 24  1  0
 15 25  1  0
 16 28  2  0
 17 20  1  0
 19 24  4  0
 20 23  1  0
 21 22  4  0
 22 23  4  0
 25 26  4  0
 27 29  2  0
M  END
$$$$

 Created by Python create_sdf_string function

 30 33  0  0  0  0  0  0  0  0999 V2000
    8.3036    9.8571   18.4133 C   0  0  0  0  0  0  0  0  0  0  0  0
    8.3694    7.6612   22.6703 C   0  0  0  0  0  0  0  0  0  0  0  0
    8.4143    6.6863   16.2273 C   0  0  0  0  0  0  0  0  0  0  0  0
   10.7581    6.5674   21.7636 C   0  0  0  0  0  0  0  0  0  0  0  0
    8.4452    8.7960   19.2958 O   0  0  0  0  0  0  0  0  0  0  0  0
    8.7122    6.7842   24.8569 C   0  0  0  0  0  0  0  0  0  0  0  0
   10.3400    6.1726   14.3081 C   0  0  0  0  0  0  0  0  0  0  0  0
    7.4297    7.5873   24.8962 C   0  0  0  0  0  0  0  0  0  0  0  0
    8.1566   10.0536   16.0516 O   0  0  0  0  0  0  0  0  0  0  0  0
   12.4989    6.2074   20.1776 C   0  0  0  0  0  0  0  0  0  0  0  0
    6.9192    9.1053   20.9073 O   0  0  0  0  0  0  0  0  0  0  0  0
   14.3979    6.0729   18.7784 C   0  0  0  0  0  0  0  0  0  0  0  0
    8.6811    9.5354   16.9998 C   0  0  0  0  0  0  0  0  0  0  0  0
    9.2512    4.2713   13.7653 O   0  0  0  0  0  0  0  0  0  0  0  0
    9.6495    8.6317   16.8332 N   0  0  0  0  0  0  0  0  0  0  0  0
    6.2934    8.6988   23.1988 O   0  0  0  0  0  0  0  0  0  0  0  0
    7.9806    8.6543   20.5437 C   0  0  0  0  0  0  0  0  0  0  0  0
   13.7270    5.7144   19.8610 O   0  0  0  0  0  0  0  0  0  0  0  0
    8.3351    5.5235   15.4478 C   0  0  0  0  0  0  0  0  0  0  0  0
    8.7700    7.8434   21.3915 C   0  0  0  0  0  0  0  0  0  0  0  0
   11.7856    6.8851   19.2401 C   0  0  0  0  0  0  0  0  0  0  0  0
   10.5281    7.4276   19.5649 C   0  0  0  0  0  0  0  0  0  0  0  0
   10.0256    7.2907   20.8484 C   0  0  0  0  0  0  0  0  0  0  0  0
    9.3113    5.3049   14.4911 C   0  0  0  0  0  0  0  0  0  0  0  0
    9.4607    7.5646   16.0139 C   0  0  0  0  0  0  0  0  0  0  0  0
   10.4192    7.3157   15.0955 C   0  0  0  0  0  0  0  0  0  0  0  0
   10.2489    6.4227   23.0218 N   0  0  0  0  0  0  0  0  0  0  0  0
    7.2472    8.0746   23.5050 C   0  0  0  0  0  0  0  0  0  0  0  0
    9.2051    6.9101   23.4604 C   0  0  0  0  0  0  0  0  0  0  0  0
   11.9646    6.0299   21.4251 C   0  0  0  0  0  0  0  0  0  0  0  0
  1  5  1  0
  1 13  1  0
  2 20  2  0
  2 28  1  0
  2 29  1  0
  3 19  4  0
  3 25  4  0
  4 23  4  0
  4 27  1  0
  4 30  4  0
  5 17  1  0
  6  8  1  0
  6 29  1  0
  7 24  4  0
  7 26  4  0
  8 28  1  0
  9 13  2  0
 10 18  1  0
 10 21  4  0
 10 30  4  0
 11 17  2  0
 12 18  1  0
 13 15  1  0
 14 24  1  0
 15 25  1  0
 16 28  2  0
 17 20  1  0
 19 24  4  0
 20 23  1  0
 21 22  4  0
 22 23  4  0
 25 26  4  0
 27 29  2  0
M  END
$$$$

 Created by Python create_sdf_string function

 30 33  0  0  0  0  0  0  0  0999 V2000
    8.3036    9.8571   18.4133 C   0  0  0  0  0  0  0  0  0  0  0  0
    8.3694    7.6612   22.6703 C   0  0  0  0  0  0  0  0  0  0  0  0
    8.4143    6.6863   16.2273 C   0  0  0  0  0  0  0  0  0  0  0  0
   10.7581    6.5674   21.7636 C   0  0  0  0  0  0  0  0  0  0  0  0
    8.4452    8.7960   19.2958 O   0  0  0  0  0  0  0  0  0  0  0  0
    8.7122    6.7842   24.8569 C   0  0  0  0  0  0  0  0  0  0  0  0
   10.3400    6.1726   14.3081 C   0  0  0  0  0  0  0  0  0  0  0  0
    7.4297    7.5873   24.8962 C   0  0  0  0  0  0  0  0  0  0  0  0
    8.1566   10.0536   16.0516 O   0  0  0  0  0  0  0  0  0  0  0  0
   12.4989    6.2074   20.1776 C   0  0  0  0  0  0  0  0  0  0  0  0
    6.9192    9.1053   20.9073 O   0  0  0  0  0  0  0  0  0  0  0  0
   14.3979    6.0729   18.7784 C   0  0  0  0  0  0  0  0  0  0  0  0
    8.6811    9.5354   16.9998 C   0  0  0  0  0  0  0  0  0  0  0  0
    9.2512    4.2713   13.7653 O   0  0  0  0  0  0  0  0  0  0  0  0
    9.6495    8.6317   16.8332 N   0  0  0  0  0  0  0  0  0  0  0  0
    6.2934    8.6988   23.1988 O   0  0  0  0  0  0  0  0  0  0  0  0
    7.9806    8.6543   20.5437 C   0  0  0  0  0  0  0  0  0  0  0  0
   13.7270    5.7144   19.8610 O   0  0  0  0  0  0  0  0  0  0  0  0
    8.3351    5.5235   15.4478 C   0  0  0  0  0  0  0  0  0  0  0  0
    8.7700    7.8434   21.3915 C   0  0  0  0  0  0  0  0  0  0  0  0
   11.7856    6.8851   19.2401 C   0  0  0  0  0  0  0  0  0  0  0  0
   10.5281    7.4276   19.5649 C   0  0  0  0  0  0  0  0  0  0  0  0
   10.0256    7.2907   20.8484 C   0  0  0  0  0  0  0  0  0  0  0  0
    9.3113    5.3049   14.4911 C   0  0  0  0  0  0  0  0  0  0  0  0
    9.4607    7.5646   16.0139 C   0  0  0  0  0  0  0  0  0  0  0  0
   10.4192    7.3157   15.0955 C   0  0  0  0  0  0  0  0  0  0  0  0
   10.2489    6.4227   23.0218 N   0  0  0  0  0  0  0  0  0  0  0  0
    7.2472    8.0746   23.5050 C   0  0  0  0  0  0  0  0  0  0  0  0
    9.2051    6.9101   23.4604 C   0  0  0  0  0  0  0  0  0  0  0  0
   11.9646    6.0299   21.4251 C   0  0  0  0  0  0  0  0  0  0  0  0
  1  5  1  0
  1 13  1  0
  2 20  2  0
  2 28  1  0
  2 29  1  0
  3 19  4  0
  3 25  4  0
  4 23  4  0
  4 27  1  0
  4 30  4  0
  5 17  1  0
  6  8  1  0
  6 29  1  0
  7 24  4  0
  7 26  4  0
  8 28  1  0
  9 13  2  0
 10 18  1  0
 10 21  4  0
 10 30  4  0
 11 17  2  0
 12 18  1  0
 13 15  1  0
 14 24  1  0
 15 25  1  0
 16 28  2  0
 17 20  1  0
 19 24  4  0
 20 23  1  0
 21 22  4  0
 22 23  4  0
 25 26  4  0
 27 29  2  0
M  END
$$$$

 Created by Python create_sdf_string function

 30 33  0  0  0  0  0  0  0  0999 V2000
    8.3036    9.8571   18.4133 C   0  0  0  0  0  0  0  0  0  0  0  0
    8.3694    7.6612   22.6703 C   0  0  0  0  0  0  0  0  0  0  0  0
    8.4143    6.6863   16.2273 C   0  0  0  0  0  0  0  0  0  0  0  0
   10.7581    6.5674   21.7636 C   0  0  0  0  0  0  0  0  0  0  0  0
    8.4452    8.7960   19.2958 O   0  0  0  0  0  0  0  0  0  0  0  0
    8.7122    6.7842   24.8569 C   0  0  0  0  0  0  0  0  0  0  0  0
   10.3400    6.1726   14.3081 C   0  0  0  0  0  0  0  0  0  0  0  0
    7.4297    7.5873   24.8962 C   0  0  0  0  0  0  0  0  0  0  0  0
    8.1566   10.0536   16.0516 O   0  0  0  0  0  0  0  0  0  0  0  0
   12.4989    6.2074   20.1776 C   0  0  0  0  0  0  0  0  0  0  0  0
    6.9192    9.1053   20.9073 O   0  0  0  0  0  0  0  0  0  0  0  0
   14.3979    6.0729   18.7784 C   0  0  0  0  0  0  0  0  0  0  0  0
    8.6811    9.5354   16.9998 C   0  0  0  0  0  0  0  0  0  0  0  0
    9.2512    4.2713   13.7653 O   0  0  0  0  0  0  0  0  0  0  0  0
    9.6495    8.6317   16.8332 N   0  0  0  0  0  0  0  0  0  0  0  0
    6.2934    8.6988   23.1988 O   0  0  0  0  0  0  0  0  0  0  0  0
    7.9806    8.6543   20.5437 C   0  0  0  0  0  0  0  0  0  0  0  0
   13.7270    5.7144   19.8610 O   0  0  0  0  0  0  0  0  0  0  0  0
    8.3351    5.5235   15.4478 C   0  0  0  0  0  0  0  0  0  0  0  0
    8.7700    7.8434   21.3915 C   0  0  0  0  0  0  0  0  0  0  0  0
   11.7856    6.8851   19.2401 C   0  0  0  0  0  0  0  0  0  0  0  0
   10.5281    7.4276   19.5649 C   0  0  0  0  0  0  0  0  0  0  0  0
   10.0256    7.2907   20.8484 C   0  0  0  0  0  0  0  0  0  0  0  0
    9.3113    5.3049   14.4911 C   0  0  0  0  0  0  0  0  0  0  0  0
    9.4607    7.5646   16.0139 C   0  0  0  0  0  0  0  0  0  0  0  0
   10.4192    7.3157   15.0955 C   0  0  0  0  0  0  0  0  0  0  0  0
   10.2489    6.4227   23.0218 N   0  0  0  0  0  0  0  0  0  0  0  0
    7.2472    8.0746   23.5050 C   0  0  0  0  0  0  0  0  0  0  0  0
    9.2051    6.9101   23.4604 C   0  0  0  0  0  0  0  0  0  0  0  0
   11.9646    6.0299   21.4251 C   0  0  0  0  0  0  0  0  0  0  0  0
  1  5  1  0
  1 13  1  0
  2 20  2  0
  2 28  1  0
  2 29  1  0
  3 19  4  0
  3 25  4  0
  4 23  4  0
  4 27  1  0
  4 30  4  0
  5 17  1  0
  6  8  1  0
  6 29  1  0
  7 24  4  0
  7 26  4  0
  8 28  1  0
  9 13  2  0
 10 18  1  0
 10 21  4  0
 10 30  4  0
 11 17  2  0
 12 18  1  0
 13 15  1  0
 14 24  1  0
 15 25  1  0
 16 28  2  0
 17 20  1  0
 19 24  4  0
 20 23  1  0
 21 22  4  0
 22 23  4  0
 25 26  4  0
 27 29  2  0
M  END
$$$$

 Created by Python create_sdf_string function

 30 33  0  0  0  0  0  0  0  0999 V2000
    8.3036    9.8571   18.4133 C   0  0  0  0  0  0  0  0  0  0  0  0
    8.3694    7.6612   22.6703 C   0  0  0  0  0  0  0  0  0  0  0  0
    8.4143    6.6863   16.2273 C   0  0  0  0  0  0  0  0  0  0  0  0
   10.7581    6.5674   21.7636 C   0  0  0  0  0  0  0  0  0  0  0  0
    8.4452    8.7960   19.2958 O   0  0  0  0  0  0  0  0  0  0  0  0
    8.7122    6.7842   24.8569 C   0  0  0  0  0  0  0  0  0  0  0  0
   10.3400    6.1726   14.3081 C   0  0  0  0  0  0  0  0  0  0  0  0
    7.4297    7.5873   24.8962 C   0  0  0  0  0  0  0  0  0  0  0  0
    8.1566   10.0536   16.0516 O   0  0  0  0  0  0  0  0  0  0  0  0
   12.4989    6.2074   20.1776 C   0  0  0  0  0  0  0  0  0  0  0  0
    6.9192    9.1053   20.9073 O   0  0  0  0  0  0  0  0  0  0  0  0
   14.3979    6.0729   18.7784 C   0  0  0  0  0  0  0  0  0  0  0  0
    8.6811    9.5354   16.9998 C   0  0  0  0  0  0  0  0  0  0  0  0
    9.2512    4.2713   13.7653 O   0  0  0  0  0  0  0  0  0  0  0  0
    9.6495    8.6317   16.8332 N   0  0  0  0  0  0  0  0  0  0  0  0
    6.2934    8.6988   23.1988 O   0  0  0  0  0  0  0  0  0  0  0  0
    7.9806    8.6543   20.5437 C   0  0  0  0  0  0  0  0  0  0  0  0
   13.7270    5.7144   19.8610 O   0  0  0  0  0  0  0  0  0  0  0  0
    8.3351    5.5235   15.4478 C   0  0  0  0  0  0  0  0  0  0  0  0
    8.7700    7.8434   21.3915 C   0  0  0  0  0  0  0  0  0  0  0  0
   11.7856    6.8851   19.2401 C   0  0  0  0  0  0  0  0  0  0  0  0
   10.5281    7.4276   19.5649 C   0  0  0  0  0  0  0  0  0  0  0  0
   10.0256    7.2907   20.8484 C   0  0  0  0  0  0  0  0  0  0  0  0
    9.3113    5.3049   14.4911 C   0  0  0  0  0  0  0  0  0  0  0  0
    9.4607    7.5646   16.0139 C   0  0  0  0  0  0  0  0  0  0  0  0
   10.4192    7.3157   15.0955 C   0  0  0  0  0  0  0  0  0  0  0  0
   10.2489    6.4227   23.0218 N   0  0  0  0  0  0  0  0  0  0  0  0
    7.2472    8.0746   23.5050 C   0  0  0  0  0  0  0  0  0  0  0  0
    9.2051    6.9101   23.4604 C   0  0  0  0  0  0  0  0  0  0  0  0
   11.9646    6.0299   21.4251 C   0  0  0  0  0  0  0  0  0  0  0  0
  1  5  1  0
  1 13  1  0
  2 20  2  0
  2 28  1  0
  2 29  1  0
  3 19  4  0
  3 25  4  0
  4 23  4  0
  4 27  1  0
  4 30  4  0
  5 17  1  0
  6  8  1  0
  6 29  1  0
  7 24  4  0
  7 26  4  0
  8 28  1  0
  9 13  2  0
 10 18  1  0
 10 21  4  0
 10 30  4  0
 11 17  2  0
 12 18  1  0
 13 15  1  0
 14 24  1  0
 15 25  1  0
 16 28  2  0
 17 20  1  0
 19 24  4  0
 20 23  1  0
 21 22  4  0
 22 23  4  0
 25 26  4  0
 27 29  2  0
M  END
$$$$

 Created by Python create_sdf_string function

 30 33  0  0  0  0  0  0  0  0999 V2000
    8.3036    9.8571   18.4133 C   0  0  0  0  0  0  0  0  0  0  0  0
    8.3694    7.6612   22.6703 C   0  0  0  0  0  0  0  0  0  0  0  0
    8.4143    6.6863   16.2273 C   0  0  0  0  0  0  0  0  0  0  0  0
   10.7581    6.5674   21.7636 C   0  0  0  0  0  0  0  0  0  0  0  0
    8.4452    8.7960   19.2958 O   0  0  0  0  0  0  0  0  0  0  0  0
    8.7122    6.7842   24.8569 C   0  0  0  0  0  0  0  0  0  0  0  0
   10.3400    6.1726   14.3081 C   0  0  0  0  0  0  0  0  0  0  0  0
    7.4297    7.5873   24.8962 C   0  0  0  0  0  0  0  0  0  0  0  0
    8.1566   10.0536   16.0516 O   0  0  0  0  0  0  0  0  0  0  0  0
   12.4989    6.2074   20.1776 C   0  0  0  0  0  0  0  0  0  0  0  0
    6.9192    9.1053   20.9073 O   0  0  0  0  0  0  0  0  0  0  0  0
   14.3979    6.0729   18.7784 C   0  0  0  0  0  0  0  0  0  0  0  0
    8.6811    9.5354   16.9998 C   0  0  0  0  0  0  0  0  0  0  0  0
    9.2512    4.2713   13.7653 O   0  0  0  0  0  0  0  0  0  0  0  0
    9.6495    8.6317   16.8332 N   0  0  0  0  0  0  0  0  0  0  0  0
    6.2934    8.6988   23.1988 O   0  0  0  0  0  0  0  0  0  0  0  0
    7.9806    8.6543   20.5437 C   0  0  0  0  0  0  0  0  0  0  0  0
   13.7270    5.7144   19.8610 O   0  0  0  0  0  0  0  0  0  0  0  0
    8.3351    5.5235   15.4478 C   0  0  0  0  0  0  0  0  0  0  0  0
    8.7700    7.8434   21.3915 C   0  0  0  0  0  0  0  0  0  0  0  0
   11.7856    6.8851   19.2401 C   0  0  0  0  0  0  0  0  0  0  0  0
   10.5281    7.4276   19.5649 C   0  0  0  0  0  0  0  0  0  0  0  0
   10.0256    7.2907   20.8484 C   0  0  0  0  0  0  0  0  0  0  0  0
    9.3113    5.3049   14.4911 C   0  0  0  0  0  0  0  0  0  0  0  0
    9.4607    7.5646   16.0139 C   0  0  0  0  0  0  0  0  0  0  0  0
   10.4192    7.3157   15.0955 C   0  0  0  0  0  0  0  0  0  0  0  0
   10.2489    6.4227   23.0218 N   0  0  0  0  0  0  0  0  0  0  0  0
    7.2472    8.0746   23.5050 C   0  0  0  0  0  0  0  0  0  0  0  0
    9.2051    6.9101   23.4604 C   0  0  0  0  0  0  0  0  0  0  0  0
   11.9646    6.0299   21.4251 C   0  0  0  0  0  0  0  0  0  0  0  0
  1  5  1  0
  1 13  1  0
  2 20  2  0
  2 28  1  0
  2 29  1  0
  3 19  4  0
  3 25  4  0
  4 23  4  0
  4 27  1  0
  4 30  4  0
  5 17  1  0
  6  8  1  0
  6 29  1  0
  7 24  4  0
  7 26  4  0
  8 28  1  0
  9 13  2  0
 10 18  1  0
 10 21  4  0
 10 30  4  0
 11 17  2  0
 12 18  1  0
 13 15  1  0
 14 24  1  0
 15 25  1  0
 16 28  2  0
 17 20  1  0
 19 24  4  0
 20 23  1  0
 21 22  4  0
 22 23  4  0
 25 26  4  0
 27 29  2  0
M  END
$$$$

 Created by Python create_sdf_string function

 30 33  0  0  0  0  0  0  0  0999 V2000
    8.3036    9.8571   18.4133 C   0  0  0  0  0  0  0  0  0  0  0  0
    8.3694    7.6612   22.6703 C   0  0  0  0  0  0  0  0  0  0  0  0
    8.4143    6.6863   16.2273 C   0  0  0  0  0  0  0  0  0  0  0  0
   10.7581    6.5674   21.7636 C   0  0  0  0  0  0  0  0  0  0  0  0
    8.4452    8.7960   19.2958 O   0  0  0  0  0  0  0  0  0  0  0  0
    8.7122    6.7842   24.8569 C   0  0  0  0  0  0  0  0  0  0  0  0
   10.3400    6.1726   14.3081 C   0  0  0  0  0  0  0  0  0  0  0  0
    7.4297    7.5873   24.8962 C   0  0  0  0  0  0  0  0  0  0  0  0
    8.1566   10.0536   16.0516 O   0  0  0  0  0  0  0  0  0  0  0  0
   12.4989    6.2074   20.1776 C   0  0  0  0  0  0  0  0  0  0  0  0
    6.9192    9.1053   20.9073 O   0  0  0  0  0  0  0  0  0  0  0  0
   14.3979    6.0729   18.7784 C   0  0  0  0  0  0  0  0  0  0  0  0
    8.6811    9.5354   16.9998 C   0  0  0  0  0  0  0  0  0  0  0  0
    9.2512    4.2713   13.7653 O   0  0  0  0  0  0  0  0  0  0  0  0
    9.6495    8.6317   16.8332 N   0  0  0  0  0  0  0  0  0  0  0  0
    6.2934    8.6988   23.1988 O   0  0  0  0  0  0  0  0  0  0  0  0
    7.9806    8.6543   20.5437 C   0  0  0  0  0  0  0  0  0  0  0  0
   13.7270    5.7144   19.8610 O   0  0  0  0  0  0  0  0  0  0  0  0
    8.3351    5.5235   15.4478 C   0  0  0  0  0  0  0  0  0  0  0  0
    8.7700    7.8434   21.3915 C   0  0  0  0  0  0  0  0  0  0  0  0
   11.7856    6.8851   19.2401 C   0  0  0  0  0  0  0  0  0  0  0  0
   10.5281    7.4276   19.5649 C   0  0  0  0  0  0  0  0  0  0  0  0
   10.0256    7.2907   20.8484 C   0  0  0  0  0  0  0  0  0  0  0  0
    9.3113    5.3049   14.4911 C   0  0  0  0  0  0  0  0  0  0  0  0
    9.4607    7.5646   16.0139 C   0  0  0  0  0  0  0  0  0  0  0  0
   10.4192    7.3157   15.0955 C   0  0  0  0  0  0  0  0  0  0  0  0
   10.2489    6.4227   23.0218 N   0  0  0  0  0  0  0  0  0  0  0  0
    7.2472    8.0746   23.5050 C   0  0  0  0  0  0  0  0  0  0  0  0
    9.2051    6.9101   23.4604 C   0  0  0  0  0  0  0  0  0  0  0  0
   11.9646    6.0299   21.4251 C   0  0  0  0  0  0  0  0  0  0  0  0
  1  5  1  0
  1 13  1  0
  2 20  2  0
  2 28  1  0
  2 29  1  0
  3 19  4  0
  3 25  4  0
  4 23  4  0
  4 27  1  0
  4 30  4  0
  5 17  1  0
  6  8  1  0
  6 29  1  0
  7 24  4  0
  7 26  4  0
  8 28  1  0
  9 13  2  0
 10 18  1  0
 10 21  4  0
 10 30  4  0
 11 17  2  0
 12 18  1  0
 13 15  1  0
 14 24  1  0
 15 25  1  0
 16 28  2  0
 17 20  1  0
 19 24  4  0
 20 23  1  0
 21 22  4  0
 22 23  4  0
 25 26  4  0
 27 29  2  0
M  END
$$$$

 Created by Python create_sdf_string function

 30 33  0  0  0  0  0  0  0  0999 V2000
    8.3036    9.8571   18.4133 C   0  0  0  0  0  0  0  0  0  0  0  0
    8.3694    7.6612   22.6703 C   0  0  0  0  0  0  0  0  0  0  0  0
    8.4143    6.6863   16.2273 C   0  0  0  0  0  0  0  0  0  0  0  0
   10.7581    6.5674   21.7636 C   0  0  0  0  0  0  0  0  0  0  0  0
    8.4452    8.7960   19.2958 O   0  0  0  0  0  0  0  0  0  0  0  0
    8.7122    6.7842   24.8569 C   0  0  0  0  0  0  0  0  0  0  0  0
   10.3400    6.1726   14.3081 C   0  0  0  0  0  0  0  0  0  0  0  0
    7.4297    7.5873   24.8962 C   0  0  0  0  0  0  0  0  0  0  0  0
    8.1566   10.0536   16.0516 O   0  0  0  0  0  0  0  0  0  0  0  0
   12.4989    6.2074   20.1776 C   0  0  0  0  0  0  0  0  0  0  0  0
    6.9192    9.1053   20.9073 O   0  0  0  0  0  0  0  0  0  0  0  0
   14.3979    6.0729   18.7784 C   0  0  0  0  0  0  0  0  0  0  0  0
    8.6811    9.5354   16.9998 C   0  0  0  0  0  0  0  0  0  0  0  0
    9.2512    4.2713   13.7653 O   0  0  0  0  0  0  0  0  0  0  0  0
    9.6495    8.6317   16.8332 N   0  0  0  0  0  0  0  0  0  0  0  0
    6.2934    8.6988   23.1988 O   0  0  0  0  0  0  0  0  0  0  0  0
    7.9806    8.6543   20.5437 C   0  0  0  0  0  0  0  0  0  0  0  0
   13.7270    5.7144   19.8610 O   0  0  0  0  0  0  0  0  0  0  0  0
    8.3351    5.5235   15.4478 C   0  0  0  0  0  0  0  0  0  0  0  0
    8.7700    7.8434   21.3915 C   0  0  0  0  0  0  0  0  0  0  0  0
   11.7856    6.8851   19.2401 C   0  0  0  0  0  0  0  0  0  0  0  0
   10.5281    7.4276   19.5649 C   0  0  0  0  0  0  0  0  0  0  0  0
   10.0256    7.2907   20.8484 C   0  0  0  0  0  0  0  0  0  0  0  0
    9.3113    5.3049   14.4911 C   0  0  0  0  0  0  0  0  0  0  0  0
    9.4607    7.5646   16.0139 C   0  0  0  0  0  0  0  0  0  0  0  0
   10.4192    7.3157   15.0955 C   0  0  0  0  0  0  0  0  0  0  0  0
   10.2489    6.4227   23.0218 N   0  0  0  0  0  0  0  0  0  0  0  0
    7.2472    8.0746   23.5050 C   0  0  0  0  0  0  0  0  0  0  0  0
    9.2051    6.9101   23.4604 C   0  0  0  0  0  0  0  0  0  0  0  0
   11.9646    6.0299   21.4251 C   0  0  0  0  0  0  0  0  0  0  0  0
  1  5  1  0
  1 13  1  0
  2 20  2  0
  2 28  1  0
  2 29  1  0
  3 19  4  0
  3 25  4  0
  4 23  4  0
  4 27  1  0
  4 30  4  0
  5 17  1  0
  6  8  1  0
  6 29  1  0
  7 24  4  0
  7 26  4  0
  8 28  1  0
  9 13  2  0
 10 18  1  0
 10 21  4  0
 10 30  4  0
 11 17  2  0
 12 18  1  0
 13 15  1  0
 14 24  1  0
 15 25  1  0
 16 28  2  0
 17 20  1  0
 19 24  4  0
 20 23  1  0
 21 22  4  0
 22 23  4  0
 25 26  4  0
 27 29  2  0
M  END
$$$$

 Created by Python create_sdf_string function

 30 33  0  0  0  0  0  0  0  0999 V2000
    8.3036    9.8571   18.4133 C   0  0  0  0  0  0  0  0  0  0  0  0
    8.3694    7.6612   22.6703 C   0  0  0  0  0  0  0  0  0  0  0  0
    8.4143    6.6863   16.2273 C   0  0  0  0  0  0  0  0  0  0  0  0
   10.7581    6.5674   21.7636 C   0  0  0  0  0  0  0  0  0  0  0  0
    8.4452    8.7960   19.2958 O   0  0  0  0  0  0  0  0  0  0  0  0
    8.7122    6.7842   24.8569 C   0  0  0  0  0  0  0  0  0  0  0  0
   10.3400    6.1726   14.3081 C   0  0  0  0  0  0  0  0  0  0  0  0
    7.4297    7.5873   24.8962 C   0  0  0  0  0  0  0  0  0  0  0  0
    8.1566   10.0536   16.0516 O   0  0  0  0  0  0  0  0  0  0  0  0
   12.4989    6.2074   20.1776 C   0  0  0  0  0  0  0  0  0  0  0  0
    6.9192    9.1053   20.9073 O   0  0  0  0  0  0  0  0  0  0  0  0
   14.3979    6.0729   18.7784 C   0  0  0  0  0  0  0  0  0  0  0  0
    8.6811    9.5354   16.9998 C   0  0  0  0  0  0  0  0  0  0  0  0
    9.2512    4.2713   13.7653 O   0  0  0  0  0  0  0  0  0  0  0  0
    9.6495    8.6317   16.8332 N   0  0  0  0  0  0  0  0  0  0  0  0
    6.2934    8.6988   23.1988 O   0  0  0  0  0  0  0  0  0  0  0  0
    7.9806    8.6543   20.5437 C   0  0  0  0  0  0  0  0  0  0  0  0
   13.7270    5.7144   19.8610 O   0  0  0  0  0  0  0  0  0  0  0  0
    8.3351    5.5235   15.4478 C   0  0  0  0  0  0  0  0  0  0  0  0
    8.7700    7.8434   21.3915 C   0  0  0  0  0  0  0  0  0  0  0  0
   11.7856    6.8851   19.2401 C   0  0  0  0  0  0  0  0  0  0  0  0
   10.5281    7.4276   19.5649 C   0  0  0  0  0  0  0  0  0  0  0  0
   10.0256    7.2907   20.8484 C   0  0  0  0  0  0  0  0  0  0  0  0
    9.3113    5.3049   14.4911 C   0  0  0  0  0  0  0  0  0  0  0  0
    9.4607    7.5646   16.0139 C   0  0  0  0  0  0  0  0  0  0  0  0
   10.4192    7.3157   15.0955 C   0  0  0  0  0  0  0  0  0  0  0  0
   10.2489    6.4227   23.0218 N   0  0  0  0  0  0  0  0  0  0  0  0
    7.2472    8.0746   23.5050 C   0  0  0  0  0  0  0  0  0  0  0  0
    9.2051    6.9101   23.4604 C   0  0  0  0  0  0  0  0  0  0  0  0
   11.9646    6.0299   21.4251 C   0  0  0  0  0  0  0  0  0  0  0  0
  1  5  1  0
  1 13  1  0
  2 20  2  0
  2 28  1  0
  2 29  1  0
  3 19  4  0
  3 25  4  0
  4 23  4  0
  4 27  1  0
  4 30  4  0
  5 17  1  0
  6  8  1  0
  6 29  1  0
  7 24  4  0
  7 26  4  0
  8 28  1  0
  9 13  2  0
 10 18  1  0
 10 21  4  0
 10 30  4  0
 11 17  2  0
 12 18  1  0
 13 15  1  0
 14 24  1  0
 15 25  1  0
 16 28  2  0
 17 20  1  0
 19 24  4  0
 20 23  1  0
 21 22  4  0
 22 23  4  0
 25 26  4  0
 27 29  2  0
M  END
$$$$

 Created by Python create_sdf_string function

 30 33  0  0  0  0  0  0  0  0999 V2000
    8.3036    9.8571   18.4133 C   0  0  0  0  0  0  0  0  0  0  0  0
    8.3694    7.6612   22.6703 C   0  0  0  0  0  0  0  0  0  0  0  0
    8.4143    6.6863   16.2273 C   0  0  0  0  0  0  0  0  0  0  0  0
   10.7581    6.5674   21.7636 C   0  0  0  0  0  0  0  0  0  0  0  0
    8.4452    8.7960   19.2958 O   0  0  0  0  0  0  0  0  0  0  0  0
    8.7122    6.7842   24.8569 C   0  0  0  0  0  0  0  0  0  0  0  0
   10.3400    6.1726   14.3081 C   0  0  0  0  0  0  0  0  0  0  0  0
    7.4297    7.5873   24.8962 C   0  0  0  0  0  0  0  0  0  0  0  0
    8.1566   10.0536   16.0516 O   0  0  0  0  0  0  0  0  0  0  0  0
   12.4989    6.2074   20.1776 C   0  0  0  0  0  0  0  0  0  0  0  0
    6.9192    9.1053   20.9073 O   0  0  0  0  0  0  0  0  0  0  0  0
   14.3979    6.0729   18.7784 C   0  0  0  0  0  0  0  0  0  0  0  0
    8.6811    9.5354   16.9998 C   0  0  0  0  0  0  0  0  0  0  0  0
    9.2512    4.2713   13.7653 O   0  0  0  0  0  0  0  0  0  0  0  0
    9.6495    8.6317   16.8332 N   0  0  0  0  0  0  0  0  0  0  0  0
    6.2934    8.6988   23.1988 O   0  0  0  0  0  0  0  0  0  0  0  0
    7.9806    8.6543   20.5437 C   0  0  0  0  0  0  0  0  0  0  0  0
   13.7270    5.7144   19.8610 O   0  0  0  0  0  0  0  0  0  0  0  0
    8.3351    5.5235   15.4478 C   0  0  0  0  0  0  0  0  0  0  0  0
    8.7700    7.8434   21.3915 C   0  0  0  0  0  0  0  0  0  0  0  0
   11.7856    6.8851   19.2401 C   0  0  0  0  0  0  0  0  0  0  0  0
   10.5281    7.4276   19.5649 C   0  0  0  0  0  0  0  0  0  0  0  0
   10.0256    7.2907   20.8484 C   0  0  0  0  0  0  0  0  0  0  0  0
    9.3113    5.3049   14.4911 C   0  0  0  0  0  0  0  0  0  0  0  0
    9.4607    7.5646   16.0139 C   0  0  0  0  0  0  0  0  0  0  0  0
   10.4192    7.3157   15.0955 C   0  0  0  0  0  0  0  0  0  0  0  0
   10.2489    6.4227   23.0218 N   0  0  0  0  0  0  0  0  0  0  0  0
    7.2472    8.0746   23.5050 C   0  0  0  0  0  0  0  0  0  0  0  0
    9.2051    6.9101   23.4604 C   0  0  0  0  0  0  0  0  0  0  0  0
   11.9646    6.0299   21.4251 C   0  0  0  0  0  0  0  0  0  0  0  0
  1  5  1  0
  1 13  1  0
  2 20  2  0
  2 28  1  0
  2 29  1  0
  3 19  4  0
  3 25  4  0
  4 23  4  0
  4 27  1  0
  4 30  4  0
  5 17  1  0
  6  8  1  0
  6 29  1  0
  7 24  4  0
  7 26  4  0
  8 28  1  0
  9 13  2  0
 10 18  1  0
 10 21  4  0
 10 30  4  0
 11 17  2  0
 12 18  1  0
 13 15  1  0
 14 24  1  0
 15 25  1  0
 16 28  2  0
 17 20  1  0
 19 24  4  0
 20 23  1  0
 21 22  4  0
 22 23  4  0
 25 26  4  0
 27 29  2  0
M  END
$$$$

 Created by Python create_sdf_string function

 30 33  0  0  0  0  0  0  0  0999 V2000
    8.3036    9.8571   18.4133 C   0  0  0  0  0  0  0  0  0  0  0  0
    8.3694    7.6612   22.6703 C   0  0  0  0  0  0  0  0  0  0  0  0
    8.4143    6.6863   16.2273 C   0  0  0  0  0  0  0  0  0  0  0  0
   10.7581    6.5674   21.7636 C   0  0  0  0  0  0  0  0  0  0  0  0
    8.4452    8.7960   19.2958 O   0  0  0  0  0  0  0  0  0  0  0  0
    8.7122    6.7842   24.8569 C   0  0  0  0  0  0  0  0  0  0  0  0
   10.3400    6.1726   14.3081 C   0  0  0  0  0  0  0  0  0  0  0  0
    7.4297    7.5873   24.8962 C   0  0  0  0  0  0  0  0  0  0  0  0
    8.1566   10.0536   16.0516 O   0  0  0  0  0  0  0  0  0  0  0  0
   12.4989    6.2074   20.1776 C   0  0  0  0  0  0  0  0  0  0  0  0
    6.9192    9.1053   20.9073 O   0  0  0  0  0  0  0  0  0  0  0  0
   14.3979    6.0729   18.7784 C   0  0  0  0  0  0  0  0  0  0  0  0
    8.6811    9.5354   16.9998 C   0  0  0  0  0  0  0  0  0  0  0  0
    9.2512    4.2713   13.7653 O   0  0  0  0  0  0  0  0  0  0  0  0
    9.6495    8.6317   16.8332 N   0  0  0  0  0  0  0  0  0  0  0  0
    6.2934    8.6988   23.1988 O   0  0  0  0  0  0  0  0  0  0  0  0
    7.9806    8.6543   20.5437 C   0  0  0  0  0  0  0  0  0  0  0  0
   13.7270    5.7144   19.8610 O   0  0  0  0  0  0  0  0  0  0  0  0
    8.3351    5.5235   15.4478 C   0  0  0  0  0  0  0  0  0  0  0  0
    8.7700    7.8434   21.3915 C   0  0  0  0  0  0  0  0  0  0  0  0
   11.7856    6.8851   19.2401 C   0  0  0  0  0  0  0  0  0  0  0  0
   10.5281    7.4276   19.5649 C   0  0  0  0  0  0  0  0  0  0  0  0
   10.0256    7.2907   20.8484 C   0  0  0  0  0  0  0  0  0  0  0  0
    9.3113    5.3049   14.4911 C   0  0  0  0  0  0  0  0  0  0  0  0
    9.4607    7.5646   16.0139 C   0  0  0  0  0  0  0  0  0  0  0  0
   10.4192    7.3157   15.0955 C   0  0  0  0  0  0  0  0  0  0  0  0
   10.2489    6.4227   23.0218 N   0  0  0  0  0  0  0  0  0  0  0  0
    7.2472    8.0746   23.5050 C   0  0  0  0  0  0  0  0  0  0  0  0
    9.2051    6.9101   23.4604 C   0  0  0  0  0  0  0  0  0  0  0  0
   11.9646    6.0299   21.4251 C   0  0  0  0  0  0  0  0  0  0  0  0
  1  5  1  0
  1 13  1  0
  2 20  2  0
  2 28  1  0
  2 29  1  0
  3 19  4  0
  3 25  4  0
  4 23  4  0
  4 27  1  0
  4 30  4  0
  5 17  1  0
  6  8  1  0
  6 29  1  0
  7 24  4  0
  7 26  4  0
  8 28  1  0
  9 13  2  0
 10 18  1  0
 10 21  4  0
 10 30  4  0
 11 17  2  0
 12 18  1  0
 13 15  1  0
 14 24  1  0
 15 25  1  0
 16 28  2  0
 17 20  1  0
 19 24  4  0
 20 23  1  0
 21 22  4  0
 22 23  4  0
 25 26  4  0
 27 29  2  0
M  END
$$$$

 Created by Python create_sdf_string function

 30 33  0  0  0  0  0  0  0  0999 V2000
    8.3036    9.8571   18.4133 C   0  0  0  0  0  0  0  0  0  0  0  0
    8.3694    7.6612   22.6703 C   0  0  0  0  0  0  0  0  0  0  0  0
    8.4143    6.6863   16.2273 C   0  0  0  0  0  0  0  0  0  0  0  0
   10.7581    6.5674   21.7636 C   0  0  0  0  0  0  0  0  0  0  0  0
    8.4452    8.7960   19.2958 O   0  0  0  0  0  0  0  0  0  0  0  0
    8.7122    6.7842   24.8569 C   0  0  0  0  0  0  0  0  0  0  0  0
   10.3400    6.1726   14.3081 C   0  0  0  0  0  0  0  0  0  0  0  0
    7.4297    7.5873   24.8962 C   0  0  0  0  0  0  0  0  0  0  0  0
    8.1566   10.0536   16.0516 O   0  0  0  0  0  0  0  0  0  0  0  0
   12.4989    6.2074   20.1776 C   0  0  0  0  0  0  0  0  0  0  0  0
    6.9192    9.1053   20.9073 O   0  0  0  0  0  0  0  0  0  0  0  0
   14.3979    6.0729   18.7784 C   0  0  0  0  0  0  0  0  0  0  0  0
    8.6811    9.5354   16.9998 C   0  0  0  0  0  0  0  0  0  0  0  0
    9.2512    4.2713   13.7653 O   0  0  0  0  0  0  0  0  0  0  0  0
    9.6495    8.6317   16.8332 N   0  0  0  0  0  0  0  0  0  0  0  0
    6.2934    8.6988   23.1988 O   0  0  0  0  0  0  0  0  0  0  0  0
    7.9806    8.6543   20.5437 C   0  0  0  0  0  0  0  0  0  0  0  0
   13.7270    5.7144   19.8610 O   0  0  0  0  0  0  0  0  0  0  0  0
    8.3351    5.5235   15.4478 C   0  0  0  0  0  0  0  0  0  0  0  0
    8.7700    7.8434   21.3915 C   0  0  0  0  0  0  0  0  0  0  0  0
   11.7856    6.8851   19.2401 C   0  0  0  0  0  0  0  0  0  0  0  0
   10.5281    7.4276   19.5649 C   0  0  0  0  0  0  0  0  0  0  0  0
   10.0256    7.2907   20.8484 C   0  0  0  0  0  0  0  0  0  0  0  0
    9.3113    5.3049   14.4911 C   0  0  0  0  0  0  0  0  0  0  0  0
    9.4607    7.5646   16.0139 C   0  0  0  0  0  0  0  0  0  0  0  0
   10.4192    7.3157   15.0955 C   0  0  0  0  0  0  0  0  0  0  0  0
   10.2489    6.4227   23.0218 N   0  0  0  0  0  0  0  0  0  0  0  0
    7.2472    8.0746   23.5050 C   0  0  0  0  0  0  0  0  0  0  0  0
    9.2051    6.9101   23.4604 C   0  0  0  0  0  0  0  0  0  0  0  0
   11.9646    6.0299   21.4251 C   0  0  0  0  0  0  0  0  0  0  0  0
  1  5  1  0
  1 13  1  0
  2 20  2  0
  2 28  1  0
  2 29  1  0
  3 19  4  0
  3 25  4  0
  4 23  4  0
  4 27  1  0
  4 30  4  0
  5 17  1  0
  6  8  1  0
  6 29  1  0
  7 24  4  0
  7 26  4  0
  8 28  1  0
  9 13  2  0
 10 18  1  0
 10 21  4  0
 10 30  4  0
 11 17  2  0
 12 18  1  0
 13 15  1  0
 14 24  1  0
 15 25  1  0
 16 28  2  0
 17 20  1  0
 19 24  4  0
 20 23  1  0
 21 22  4  0
 22 23  4  0
 25 26  4  0
 27 29  2  0
M  END
$$$$

 Created by Python create_sdf_string function

 30 33  0  0  0  0  0  0  0  0999 V2000
    8.3036    9.8571   18.4133 C   0  0  0  0  0  0  0  0  0  0  0  0
    8.3694    7.6612   22.6703 C   0  0  0  0  0  0  0  0  0  0  0  0
    8.4143    6.6863   16.2273 C   0  0  0  0  0  0  0  0  0  0  0  0
   10.7581    6.5674   21.7636 C   0  0  0  0  0  0  0  0  0  0  0  0
    8.4452    8.7960   19.2958 O   0  0  0  0  0  0  0  0  0  0  0  0
    8.7122    6.7842   24.8569 C   0  0  0  0  0  0  0  0  0  0  0  0
   10.3400    6.1726   14.3081 C   0  0  0  0  0  0  0  0  0  0  0  0
    7.4297    7.5873   24.8962 C   0  0  0  0  0  0  0  0  0  0  0  0
    8.1566   10.0536   16.0516 O   0  0  0  0  0  0  0  0  0  0  0  0
   12.4989    6.2074   20.1776 C   0  0  0  0  0  0  0  0  0  0  0  0
    6.9192    9.1053   20.9073 O   0  0  0  0  0  0  0  0  0  0  0  0
   14.3979    6.0729   18.7784 C   0  0  0  0  0  0  0  0  0  0  0  0
    8.6811    9.5354   16.9998 C   0  0  0  0  0  0  0  0  0  0  0  0
    9.2512    4.2713   13.7653 O   0  0  0  0  0  0  0  0  0  0  0  0
    9.6495    8.6317   16.8332 N   0  0  0  0  0  0  0  0  0  0  0  0
    6.2934    8.6988   23.1988 O   0  0  0  0  0  0  0  0  0  0  0  0
    7.9806    8.6543   20.5437 C   0  0  0  0  0  0  0  0  0  0  0  0
   13.7270    5.7144   19.8610 O   0  0  0  0  0  0  0  0  0  0  0  0
    8.3351    5.5235   15.4478 C   0  0  0  0  0  0  0  0  0  0  0  0
    8.7700    7.8434   21.3915 C   0  0  0  0  0  0  0  0  0  0  0  0
   11.7856    6.8851   19.2401 C   0  0  0  0  0  0  0  0  0  0  0  0
   10.5281    7.4276   19.5649 C   0  0  0  0  0  0  0  0  0  0  0  0
   10.0256    7.2907   20.8484 C   0  0  0  0  0  0  0  0  0  0  0  0
    9.3113    5.3049   14.4911 C   0  0  0  0  0  0  0  0  0  0  0  0
    9.4607    7.5646   16.0139 C   0  0  0  0  0  0  0  0  0  0  0  0
   10.4192    7.3157   15.0955 C   0  0  0  0  0  0  0  0  0  0  0  0
   10.2489    6.4227   23.0218 N   0  0  0  0  0  0  0  0  0  0  0  0
    7.2472    8.0746   23.5050 C   0  0  0  0  0  0  0  0  0  0  0  0
    9.2051    6.9101   23.4604 C   0  0  0  0  0  0  0  0  0  0  0  0
   11.9646    6.0299   21.4251 C   0  0  0  0  0  0  0  0  0  0  0  0
  1  5  1  0
  1 13  1  0
  2 20  2  0
  2 28  1  0
  2 29  1  0
  3 19  4  0
  3 25  4  0
  4 23  4  0
  4 27  1  0
  4 30  4  0
  5 17  1  0
  6  8  1  0
  6 29  1  0
  7 24  4  0
  7 26  4  0
  8 28  1  0
  9 13  2  0
 10 18  1  0
 10 21  4  0
 10 30  4  0
 11 17  2  0
 12 18  1  0
 13 15  1  0
 14 24  1  0
 15 25  1  0
 16 28  2  0
 17 20  1  0
 19 24  4  0
 20 23  1  0
 21 22  4  0
 22 23  4  0
 25 26  4  0
 27 29  2  0
M  END
$$$$

 Created by Python create_sdf_string function

 30 33  0  0  0  0  0  0  0  0999 V2000
    8.3036    9.8571   18.4133 C   0  0  0  0  0  0  0  0  0  0  0  0
    8.3694    7.6612   22.6703 C   0  0  0  0  0  0  0  0  0  0  0  0
    8.4143    6.6863   16.2273 C   0  0  0  0  0  0  0  0  0  0  0  0
   10.7581    6.5674   21.7636 C   0  0  0  0  0  0  0  0  0  0  0  0
    8.4452    8.7960   19.2958 O   0  0  0  0  0  0  0  0  0  0  0  0
    8.7122    6.7842   24.8569 C   0  0  0  0  0  0  0  0  0  0  0  0
   10.3400    6.1726   14.3081 C   0  0  0  0  0  0  0  0  0  0  0  0
    7.4297    7.5873   24.8962 C   0  0  0  0  0  0  0  0  0  0  0  0
    8.1566   10.0536   16.0516 O   0  0  0  0  0  0  0  0  0  0  0  0
   12.4989    6.2074   20.1776 C   0  0  0  0  0  0  0  0  0  0  0  0
    6.9192    9.1053   20.9073 O   0  0  0  0  0  0  0  0  0  0  0  0
   14.3979    6.0729   18.7784 C   0  0  0  0  0  0  0  0  0  0  0  0
    8.6811    9.5354   16.9998 C   0  0  0  0  0  0  0  0  0  0  0  0
    9.2512    4.2713   13.7653 O   0  0  0  0  0  0  0  0  0  0  0  0
    9.6495    8.6317   16.8332 N   0  0  0  0  0  0  0  0  0  0  0  0
    6.2934    8.6988   23.1988 O   0  0  0  0  0  0  0  0  0  0  0  0
    7.9806    8.6543   20.5437 C   0  0  0  0  0  0  0  0  0  0  0  0
   13.7270    5.7144   19.8610 O   0  0  0  0  0  0  0  0  0  0  0  0
    8.3351    5.5235   15.4478 C   0  0  0  0  0  0  0  0  0  0  0  0
    8.7700    7.8434   21.3915 C   0  0  0  0  0  0  0  0  0  0  0  0
   11.7856    6.8851   19.2401 C   0  0  0  0  0  0  0  0  0  0  0  0
   10.5281    7.4276   19.5649 C   0  0  0  0  0  0  0  0  0  0  0  0
   10.0256    7.2907   20.8484 C   0  0  0  0  0  0  0  0  0  0  0  0
    9.3113    5.3049   14.4911 C   0  0  0  0  0  0  0  0  0  0  0  0
    9.4607    7.5646   16.0139 C   0  0  0  0  0  0  0  0  0  0  0  0
   10.4192    7.3157   15.0955 C   0  0  0  0  0  0  0  0  0  0  0  0
   10.2489    6.4227   23.0218 N   0  0  0  0  0  0  0  0  0  0  0  0
    7.2472    8.0746   23.5050 C   0  0  0  0  0  0  0  0  0  0  0  0
    9.2051    6.9101   23.4604 C   0  0  0  0  0  0  0  0  0  0  0  0
   11.9646    6.0299   21.4251 C   0  0  0  0  0  0  0  0  0  0  0  0
  1  5  1  0
  1 13  1  0
  2 20  2  0
  2 28  1  0
  2 29  1  0
  3 19  4  0
  3 25  4  0
  4 23  4  0
  4 27  1  0
  4 30  4  0
  5 17  1  0
  6  8  1  0
  6 29  1  0
  7 24  4  0
  7 26  4  0
  8 28  1  0
  9 13  2  0
 10 18  1  0
 10 21  4  0
 10 30  4  0
 11 17  2  0
 12 18  1  0
 13 15  1  0
 14 24  1  0
 15 25  1  0
 16 28  2  0
 17 20  1  0
 19 24  4  0
 20 23  1  0
 21 22  4  0
 22 23  4  0
 25 26  4  0
 27 29  2  0
M  END
$$$$

 Created by Python create_sdf_string function

 30 33  0  0  0  0  0  0  0  0999 V2000
    8.3036    9.8571   18.4133 C   0  0  0  0  0  0  0  0  0  0  0  0
    8.3694    7.6612   22.6703 C   0  0  0  0  0  0  0  0  0  0  0  0
    8.4143    6.6863   16.2273 C   0  0  0  0  0  0  0  0  0  0  0  0
   10.7581    6.5674   21.7636 C   0  0  0  0  0  0  0  0  0  0  0  0
    8.4452    8.7960   19.2958 O   0  0  0  0  0  0  0  0  0  0  0  0
    8.7122    6.7842   24.8569 C   0  0  0  0  0  0  0  0  0  0  0  0
   10.3400    6.1726   14.3081 C   0  0  0  0  0  0  0  0  0  0  0  0
    7.4297    7.5873   24.8962 C   0  0  0  0  0  0  0  0  0  0  0  0
    8.1566   10.0536   16.0516 O   0  0  0  0  0  0  0  0  0  0  0  0
   12.4989    6.2074   20.1776 C   0  0  0  0  0  0  0  0  0  0  0  0
    6.9192    9.1053   20.9073 O   0  0  0  0  0  0  0  0  0  0  0  0
   14.3979    6.0729   18.7784 C   0  0  0  0  0  0  0  0  0  0  0  0
    8.6811    9.5354   16.9998 C   0  0  0  0  0  0  0  0  0  0  0  0
    9.2512    4.2713   13.7653 O   0  0  0  0  0  0  0  0  0  0  0  0
    9.6495    8.6317   16.8332 N   0  0  0  0  0  0  0  0  0  0  0  0
    6.2934    8.6988   23.1988 O   0  0  0  0  0  0  0  0  0  0  0  0
    7.9806    8.6543   20.5437 C   0  0  0  0  0  0  0  0  0  0  0  0
   13.7270    5.7144   19.8610 O   0  0  0  0  0  0  0  0  0  0  0  0
    8.3351    5.5235   15.4478 C   0  0  0  0  0  0  0  0  0  0  0  0
    8.7700    7.8434   21.3915 C   0  0  0  0  0  0  0  0  0  0  0  0
   11.7856    6.8851   19.2401 C   0  0  0  0  0  0  0  0  0  0  0  0
   10.5281    7.4276   19.5649 C   0  0  0  0  0  0  0  0  0  0  0  0
   10.0256    7.2907   20.8484 C   0  0  0  0  0  0  0  0  0  0  0  0
    9.3113    5.3049   14.4911 C   0  0  0  0  0  0  0  0  0  0  0  0
    9.4607    7.5646   16.0139 C   0  0  0  0  0  0  0  0  0  0  0  0
   10.4192    7.3157   15.0955 C   0  0  0  0  0  0  0  0  0  0  0  0
   10.2489    6.4227   23.0218 N   0  0  0  0  0  0  0  0  0  0  0  0
    7.2472    8.0746   23.5050 C   0  0  0  0  0  0  0  0  0  0  0  0
    9.2051    6.9101   23.4604 C   0  0  0  0  0  0  0  0  0  0  0  0
   11.9646    6.0299   21.4251 C   0  0  0  0  0  0  0  0  0  0  0  0
  1  5  1  0
  1 13  1  0
  2 20  2  0
  2 28  1  0
  2 29  1  0
  3 19  4  0
  3 25  4  0
  4 23  4  0
  4 27  1  0
  4 30  4  0
  5 17  1  0
  6  8  1  0
  6 29  1  0
  7 24  4  0
  7 26  4  0
  8 28  1  0
  9 13  2  0
 10 18  1  0
 10 21  4  0
 10 30  4  0
 11 17  2  0
 12 18  1  0
 13 15  1  0
 14 24  1  0
 15 25  1  0
 16 28  2  0
 17 20  1  0
 19 24  4  0
 20 23  1  0
 21 22  4  0
 22 23  4  0
 25 26  4  0
 27 29  2  0
M  END
$$$$

 Created by Python create_sdf_string function

 30 33  0  0  0  0  0  0  0  0999 V2000
    8.3036    9.8571   18.4133 C   0  0  0  0  0  0  0  0  0  0  0  0
    8.3694    7.6612   22.6703 C   0  0  0  0  0  0  0  0  0  0  0  0
    8.4143    6.6863   16.2273 C   0  0  0  0  0  0  0  0  0  0  0  0
   10.7581    6.5674   21.7636 C   0  0  0  0  0  0  0  0  0  0  0  0
    8.4452    8.7960   19.2958 O   0  0  0  0  0  0  0  0  0  0  0  0
    8.7122    6.7842   24.8569 C   0  0  0  0  0  0  0  0  0  0  0  0
   10.3400    6.1726   14.3081 C   0  0  0  0  0  0  0  0  0  0  0  0
    7.4297    7.5873   24.8962 C   0  0  0  0  0  0  0  0  0  0  0  0
    8.1566   10.0536   16.0516 O   0  0  0  0  0  0  0  0  0  0  0  0
   12.4989    6.2074   20.1776 C   0  0  0  0  0  0  0  0  0  0  0  0
    6.9192    9.1053   20.9073 O   0  0  0  0  0  0  0  0  0  0  0  0
   14.3979    6.0729   18.7784 C   0  0  0  0  0  0  0  0  0  0  0  0
    8.6811    9.5354   16.9998 C   0  0  0  0  0  0  0  0  0  0  0  0
    9.2512    4.2713   13.7653 O   0  0  0  0  0  0  0  0  0  0  0  0
    9.6495    8.6317   16.8332 N   0  0  0  0  0  0  0  0  0  0  0  0
    6.2934    8.6988   23.1988 O   0  0  0  0  0  0  0  0  0  0  0  0
    7.9806    8.6543   20.5437 C   0  0  0  0  0  0  0  0  0  0  0  0
   13.7270    5.7144   19.8610 O   0  0  0  0  0  0  0  0  0  0  0  0
    8.3351    5.5235   15.4478 C   0  0  0  0  0  0  0  0  0  0  0  0
    8.7700    7.8434   21.3915 C   0  0  0  0  0  0  0  0  0  0  0  0
   11.7856    6.8851   19.2401 C   0  0  0  0  0  0  0  0  0  0  0  0
   10.5281    7.4276   19.5649 C   0  0  0  0  0  0  0  0  0  0  0  0
   10.0256    7.2907   20.8484 C   0  0  0  0  0  0  0  0  0  0  0  0
    9.3113    5.3049   14.4911 C   0  0  0  0  0  0  0  0  0  0  0  0
    9.4607    7.5646   16.0139 C   0  0  0  0  0  0  0  0  0  0  0  0
   10.4192    7.3157   15.0955 C   0  0  0  0  0  0  0  0  0  0  0  0
   10.2489    6.4227   23.0218 N   0  0  0  0  0  0  0  0  0  0  0  0
    7.2472    8.0746   23.5050 C   0  0  0  0  0  0  0  0  0  0  0  0
    9.2051    6.9101   23.4604 C   0  0  0  0  0  0  0  0  0  0  0  0
   11.9646    6.0299   21.4251 C   0  0  0  0  0  0  0  0  0  0  0  0
  1  5  1  0
  1 13  1  0
  2 20  2  0
  2 28  1  0
  2 29  1  0
  3 19  4  0
  3 25  4  0
  4 23  4  0
  4 27  1  0
  4 30  4  0
  5 17  1  0
  6  8  1  0
  6 29  1  0
  7 24  4  0
  7 26  4  0
  8 28  1  0
  9 13  2  0
 10 18  1  0
 10 21  4  0
 10 30  4  0
 11 17  2  0
 12 18  1  0
 13 15  1  0
 14 24  1  0
 15 25  1  0
 16 28  2  0
 17 20  1  0
 19 24  4  0
 20 23  1  0
 21 22  4  0
 22 23  4  0
 25 26  4  0
 27 29  2  0
M  END
$$$$

 Created by Python create_sdf_string function

 30 33  0  0  0  0  0  0  0  0999 V2000
    8.3036    9.8571   18.4133 C   0  0  0  0  0  0  0  0  0  0  0  0
    8.3694    7.6612   22.6703 C   0  0  0  0  0  0  0  0  0  0  0  0
    8.4143    6.6863   16.2273 C   0  0  0  0  0  0  0  0  0  0  0  0
   10.7581    6.5674   21.7636 C   0  0  0  0  0  0  0  0  0  0  0  0
    8.4452    8.7960   19.2958 O   0  0  0  0  0  0  0  0  0  0  0  0
    8.7122    6.7842   24.8569 C   0  0  0  0  0  0  0  0  0  0  0  0
   10.3400    6.1726   14.3081 C   0  0  0  0  0  0  0  0  0  0  0  0
    7.4297    7.5873   24.8962 C   0  0  0  0  0  0  0  0  0  0  0  0
    8.1566   10.0536   16.0516 O   0  0  0  0  0  0  0  0  0  0  0  0
   12.4989    6.2074   20.1776 C   0  0  0  0  0  0  0  0  0  0  0  0
    6.9192    9.1053   20.9073 O   0  0  0  0  0  0  0  0  0  0  0  0
   14.3979    6.0729   18.7784 C   0  0  0  0  0  0  0  0  0  0  0  0
    8.6811    9.5354   16.9998 C   0  0  0  0  0  0  0  0  0  0  0  0
    9.2512    4.2713   13.7653 O   0  0  0  0  0  0  0  0  0  0  0  0
    9.6495    8.6317   16.8332 N   0  0  0  0  0  0  0  0  0  0  0  0
    6.2934    8.6988   23.1988 O   0  0  0  0  0  0  0  0  0  0  0  0
    7.9806    8.6543   20.5437 C   0  0  0  0  0  0  0  0  0  0  0  0
   13.7270    5.7144   19.8610 O   0  0  0  0  0  0  0  0  0  0  0  0
    8.3351    5.5235   15.4478 C   0  0  0  0  0  0  0  0  0  0  0  0
    8.7700    7.8434   21.3915 C   0  0  0  0  0  0  0  0  0  0  0  0
   11.7856    6.8851   19.2401 C   0  0  0  0  0  0  0  0  0  0  0  0
   10.5281    7.4276   19.5649 C   0  0  0  0  0  0  0  0  0  0  0  0
   10.0256    7.2907   20.8484 C   0  0  0  0  0  0  0  0  0  0  0  0
    9.3113    5.3049   14.4911 C   0  0  0  0  0  0  0  0  0  0  0  0
    9.4607    7.5646   16.0139 C   0  0  0  0  0  0  0  0  0  0  0  0
   10.4192    7.3157   15.0955 C   0  0  0  0  0  0  0  0  0  0  0  0
   10.2489    6.4227   23.0218 N   0  0  0  0  0  0  0  0  0  0  0  0
    7.2472    8.0746   23.5050 C   0  0  0  0  0  0  0  0  0  0  0  0
    9.2051    6.9101   23.4604 C   0  0  0  0  0  0  0  0  0  0  0  0
   11.9646    6.0299   21.4251 C   0  0  0  0  0  0  0  0  0  0  0  0
  1  5  1  0
  1 13  1  0
  2 20  2  0
  2 28  1  0
  2 29  1  0
  3 19  4  0
  3 25  4  0
  4 23  4  0
  4 27  1  0
  4 30  4  0
  5 17  1  0
  6  8  1  0
  6 29  1  0
  7 24  4  0
  7 26  4  0
  8 28  1  0
  9 13  2  0
 10 18  1  0
 10 21  4  0
 10 30  4  0
 11 17  2  0
 12 18  1  0
 13 15  1  0
 14 24  1  0
 15 25  1  0
 16 28  2  0
 17 20  1  0
 19 24  4  0
 20 23  1  0
 21 22  4  0
 22 23  4  0
 25 26  4  0
 27 29  2  0
M  END
$$$$

 Created by Python create_sdf_string function

 30 33  0  0  0  0  0  0  0  0999 V2000
    8.3036    9.8571   18.4133 C   0  0  0  0  0  0  0  0  0  0  0  0
    8.3694    7.6612   22.6703 C   0  0  0  0  0  0  0  0  0  0  0  0
    8.4143    6.6863   16.2273 C   0  0  0  0  0  0  0  0  0  0  0  0
   10.7581    6.5674   21.7636 C   0  0  0  0  0  0  0  0  0  0  0  0
    8.4452    8.7960   19.2958 O   0  0  0  0  0  0  0  0  0  0  0  0
    8.7122    6.7842   24.8569 C   0  0  0  0  0  0  0  0  0  0  0  0
   10.3400    6.1726   14.3081 C   0  0  0  0  0  0  0  0  0  0  0  0
    7.4297    7.5873   24.8962 C   0  0  0  0  0  0  0  0  0  0  0  0
    8.1566   10.0536   16.0516 O   0  0  0  0  0  0  0  0  0  0  0  0
   12.4989    6.2074   20.1776 C   0  0  0  0  0  0  0  0  0  0  0  0
    6.9192    9.1053   20.9073 O   0  0  0  0  0  0  0  0  0  0  0  0
   14.3979    6.0729   18.7784 C   0  0  0  0  0  0  0  0  0  0  0  0
    8.6811    9.5354   16.9998 C   0  0  0  0  0  0  0  0  0  0  0  0
    9.2512    4.2713   13.7653 O   0  0  0  0  0  0  0  0  0  0  0  0
    9.6495    8.6317   16.8332 N   0  0  0  0  0  0  0  0  0  0  0  0
    6.2934    8.6988   23.1988 O   0  0  0  0  0  0  0  0  0  0  0  0
    7.9806    8.6543   20.5437 C   0  0  0  0  0  0  0  0  0  0  0  0
   13.7270    5.7144   19.8610 O   0  0  0  0  0  0  0  0  0  0  0  0
    8.3351    5.5235   15.4478 C   0  0  0  0  0  0  0  0  0  0  0  0
    8.7700    7.8434   21.3915 C   0  0  0  0  0  0  0  0  0  0  0  0
   11.7856    6.8851   19.2401 C   0  0  0  0  0  0  0  0  0  0  0  0
   10.5281    7.4276   19.5649 C   0  0  0  0  0  0  0  0  0  0  0  0
   10.0256    7.2907   20.8484 C   0  0  0  0  0  0  0  0  0  0  0  0
    9.3113    5.3049   14.4911 C   0  0  0  0  0  0  0  0  0  0  0  0
    9.4607    7.5646   16.0139 C   0  0  0  0  0  0  0  0  0  0  0  0
   10.4192    7.3157   15.0955 C   0  0  0  0  0  0  0  0  0  0  0  0
   10.2489    6.4227   23.0218 N   0  0  0  0  0  0  0  0  0  0  0  0
    7.2472    8.0746   23.5050 C   0  0  0  0  0  0  0  0  0  0  0  0
    9.2051    6.9101   23.4604 C   0  0  0  0  0  0  0  0  0  0  0  0
   11.9646    6.0299   21.4251 C   0  0  0  0  0  0  0  0  0  0  0  0
  1  5  1  0
  1 13  1  0
  2 20  2  0
  2 28  1  0
  2 29  1  0
  3 19  4  0
  3 25  4  0
  4 23  4  0
  4 27  1  0
  4 30  4  0
  5 17  1  0
  6  8  1  0
  6 29  1  0
  7 24  4  0
  7 26  4  0
  8 28  1  0
  9 13  2  0
 10 18  1  0
 10 21  4  0
 10 30  4  0
 11 17  2  0
 12 18  1  0
 13 15  1  0
 14 24  1  0
 15 25  1  0
 16 28  2  0
 17 20  1  0
 19 24  4  0
 20 23  1  0
 21 22  4  0
 22 23  4  0
 25 26  4  0
 27 29  2  0
M  END
$$$$

 Created by Python create_sdf_string function

 30 33  0  0  0  0  0  0  0  0999 V2000
    8.3036    9.8571   18.4133 C   0  0  0  0  0  0  0  0  0  0  0  0
    8.3694    7.6612   22.6703 C   0  0  0  0  0  0  0  0  0  0  0  0
    8.4143    6.6863   16.2273 C   0  0  0  0  0  0  0  0  0  0  0  0
   10.7581    6.5674   21.7636 C   0  0  0  0  0  0  0  0  0  0  0  0
    8.4452    8.7960   19.2958 O   0  0  0  0  0  0  0  0  0  0  0  0
    8.7122    6.7842   24.8569 C   0  0  0  0  0  0  0  0  0  0  0  0
   10.3400    6.1726   14.3081 C   0  0  0  0  0  0  0  0  0  0  0  0
    7.4297    7.5873   24.8962 C   0  0  0  0  0  0  0  0  0  0  0  0
    8.1566   10.0536   16.0516 O   0  0  0  0  0  0  0  0  0  0  0  0
   12.4989    6.2074   20.1776 C   0  0  0  0  0  0  0  0  0  0  0  0
    6.9192    9.1053   20.9073 O   0  0  0  0  0  0  0  0  0  0  0  0
   14.3979    6.0729   18.7784 C   0  0  0  0  0  0  0  0  0  0  0  0
    8.6811    9.5354   16.9998 C   0  0  0  0  0  0  0  0  0  0  0  0
    9.2512    4.2713   13.7653 O   0  0  0  0  0  0  0  0  0  0  0  0
    9.6495    8.6317   16.8332 N   0  0  0  0  0  0  0  0  0  0  0  0
    6.2934    8.6988   23.1988 O   0  0  0  0  0  0  0  0  0  0  0  0
    7.9806    8.6543   20.5437 C   0  0  0  0  0  0  0  0  0  0  0  0
   13.7270    5.7144   19.8610 O   0  0  0  0  0  0  0  0  0  0  0  0
    8.3351    5.5235   15.4478 C   0  0  0  0  0  0  0  0  0  0  0  0
    8.7700    7.8434   21.3915 C   0  0  0  0  0  0  0  0  0  0  0  0
   11.7856    6.8851   19.2401 C   0  0  0  0  0  0  0  0  0  0  0  0
   10.5281    7.4276   19.5649 C   0  0  0  0  0  0  0  0  0  0  0  0
   10.0256    7.2907   20.8484 C   0  0  0  0  0  0  0  0  0  0  0  0
    9.3113    5.3049   14.4911 C   0  0  0  0  0  0  0  0  0  0  0  0
    9.4607    7.5646   16.0139 C   0  0  0  0  0  0  0  0  0  0  0  0
   10.4192    7.3157   15.0955 C   0  0  0  0  0  0  0  0  0  0  0  0
   10.2489    6.4227   23.0218 N   0  0  0  0  0  0  0  0  0  0  0  0
    7.2472    8.0746   23.5050 C   0  0  0  0  0  0  0  0  0  0  0  0
    9.2051    6.9101   23.4604 C   0  0  0  0  0  0  0  0  0  0  0  0
   11.9646    6.0299   21.4251 C   0  0  0  0  0  0  0  0  0  0  0  0
  1  5  1  0
  1 13  1  0
  2 20  2  0
  2 28  1  0
  2 29  1  0
  3 19  4  0
  3 25  4  0
  4 23  4  0
  4 27  1  0
  4 30  4  0
  5 17  1  0
  6  8  1  0
  6 29  1  0
  7 24  4  0
  7 26  4  0
  8 28  1  0
  9 13  2  0
 10 18  1  0
 10 21  4  0
 10 30  4  0
 11 17  2  0
 12 18  1  0
 13 15  1  0
 14 24  1  0
 15 25  1  0
 16 28  2  0
 17 20  1  0
 19 24  4  0
 20 23  1  0
 21 22  4  0
 22 23  4  0
 25 26  4  0
 27 29  2  0
M  END
$$$$

 Created by Python create_sdf_string function

 30 33  0  0  0  0  0  0  0  0999 V2000
    8.3036    9.8571   18.4133 C   0  0  0  0  0  0  0  0  0  0  0  0
    8.3694    7.6612   22.6703 C   0  0  0  0  0  0  0  0  0  0  0  0
    8.4143    6.6863   16.2273 C   0  0  0  0  0  0  0  0  0  0  0  0
   10.7581    6.5674   21.7636 C   0  0  0  0  0  0  0  0  0  0  0  0
    8.4452    8.7960   19.2958 O   0  0  0  0  0  0  0  0  0  0  0  0
    8.7122    6.7842   24.8569 C   0  0  0  0  0  0  0  0  0  0  0  0
   10.3400    6.1726   14.3081 C   0  0  0  0  0  0  0  0  0  0  0  0
    7.4297    7.5873   24.8962 C   0  0  0  0  0  0  0  0  0  0  0  0
    8.1566   10.0536   16.0516 O   0  0  0  0  0  0  0  0  0  0  0  0
   12.4989    6.2074   20.1776 C   0  0  0  0  0  0  0  0  0  0  0  0
    6.9192    9.1053   20.9073 O   0  0  0  0  0  0  0  0  0  0  0  0
   14.3979    6.0729   18.7784 C   0  0  0  0  0  0  0  0  0  0  0  0
    8.6811    9.5354   16.9998 C   0  0  0  0  0  0  0  0  0  0  0  0
    9.2512    4.2713   13.7653 O   0  0  0  0  0  0  0  0  0  0  0  0
    9.6495    8.6317   16.8332 N   0  0  0  0  0  0  0  0  0  0  0  0
    6.2934    8.6988   23.1988 O   0  0  0  0  0  0  0  0  0  0  0  0
    7.9806    8.6543   20.5437 C   0  0  0  0  0  0  0  0  0  0  0  0
   13.7270    5.7144   19.8610 O   0  0  0  0  0  0  0  0  0  0  0  0
    8.3351    5.5235   15.4478 C   0  0  0  0  0  0  0  0  0  0  0  0
    8.7700    7.8434   21.3915 C   0  0  0  0  0  0  0  0  0  0  0  0
   11.7856    6.8851   19.2401 C   0  0  0  0  0  0  0  0  0  0  0  0
   10.5281    7.4276   19.5649 C   0  0  0  0  0  0  0  0  0  0  0  0
   10.0256    7.2907   20.8484 C   0  0  0  0  0  0  0  0  0  0  0  0
    9.3113    5.3049   14.4911 C   0  0  0  0  0  0  0  0  0  0  0  0
    9.4607    7.5646   16.0139 C   0  0  0  0  0  0  0  0  0  0  0  0
   10.4192    7.3157   15.0955 C   0  0  0  0  0  0  0  0  0  0  0  0
   10.2489    6.4227   23.0218 N   0  0  0  0  0  0  0  0  0  0  0  0
    7.2472    8.0746   23.5050 C   0  0  0  0  0  0  0  0  0  0  0  0
    9.2051    6.9101   23.4604 C   0  0  0  0  0  0  0  0  0  0  0  0
   11.9646    6.0299   21.4251 C   0  0  0  0  0  0  0  0  0  0  0  0
  1  5  1  0
  1 13  1  0
  2 20  2  0
  2 28  1  0
  2 29  1  0
  3 19  4  0
  3 25  4  0
  4 23  4  0
  4 27  1  0
  4 30  4  0
  5 17  1  0
  6  8  1  0
  6 29  1  0
  7 24  4  0
  7 26  4  0
  8 28  1  0
  9 13  2  0
 10 18  1  0
 10 21  4  0
 10 30  4  0
 11 17  2  0
 12 18  1  0
 13 15  1  0
 14 24  1  0
 15 25  1  0
 16 28  2  0
 17 20  1  0
 19 24  4  0
 20 23  1  0
 21 22  4  0
 22 23  4  0
 25 26  4  0
 27 29  2  0
M  END
$$$$

 Created by Python create_sdf_string function

 30 33  0  0  0  0  0  0  0  0999 V2000
    8.3036    9.8571   18.4133 C   0  0  0  0  0  0  0  0  0  0  0  0
    8.3694    7.6612   22.6703 C   0  0  0  0  0  0  0  0  0  0  0  0
    8.4143    6.6863   16.2273 C   0  0  0  0  0  0  0  0  0  0  0  0
   10.7581    6.5674   21.7636 C   0  0  0  0  0  0  0  0  0  0  0  0
    8.4452    8.7960   19.2958 O   0  0  0  0  0  0  0  0  0  0  0  0
    8.7122    6.7842   24.8569 C   0  0  0  0  0  0  0  0  0  0  0  0
   10.3400    6.1726   14.3081 C   0  0  0  0  0  0  0  0  0  0  0  0
    7.4297    7.5873   24.8962 C   0  0  0  0  0  0  0  0  0  0  0  0
    8.1566   10.0536   16.0516 O   0  0  0  0  0  0  0  0  0  0  0  0
   12.4989    6.2074   20.1776 C   0  0  0  0  0  0  0  0  0  0  0  0
    6.9192    9.1053   20.9073 O   0  0  0  0  0  0  0  0  0  0  0  0
   14.3979    6.0729   18.7784 C   0  0  0  0  0  0  0  0  0  0  0  0
    8.6811    9.5354   16.9998 C   0  0  0  0  0  0  0  0  0  0  0  0
    9.2512    4.2713   13.7653 O   0  0  0  0  0  0  0  0  0  0  0  0
    9.6495    8.6317   16.8332 N   0  0  0  0  0  0  0  0  0  0  0  0
    6.2934    8.6988   23.1988 O   0  0  0  0  0  0  0  0  0  0  0  0
    7.9806    8.6543   20.5437 C   0  0  0  0  0  0  0  0  0  0  0  0
   13.7270    5.7144   19.8610 O   0  0  0  0  0  0  0  0  0  0  0  0
    8.3351    5.5235   15.4478 C   0  0  0  0  0  0  0  0  0  0  0  0
    8.7700    7.8434   21.3915 C   0  0  0  0  0  0  0  0  0  0  0  0
   11.7856    6.8851   19.2401 C   0  0  0  0  0  0  0  0  0  0  0  0
   10.5281    7.4276   19.5649 C   0  0  0  0  0  0  0  0  0  0  0  0
   10.0256    7.2907   20.8484 C   0  0  0  0  0  0  0  0  0  0  0  0
    9.3113    5.3049   14.4911 C   0  0  0  0  0  0  0  0  0  0  0  0
    9.4607    7.5646   16.0139 C   0  0  0  0  0  0  0  0  0  0  0  0
   10.4192    7.3157   15.0955 C   0  0  0  0  0  0  0  0  0  0  0  0
   10.2489    6.4227   23.0218 N   0  0  0  0  0  0  0  0  0  0  0  0
    7.2472    8.0746   23.5050 C   0  0  0  0  0  0  0  0  0  0  0  0
    9.2051    6.9101   23.4604 C   0  0  0  0  0  0  0  0  0  0  0  0
   11.9646    6.0299   21.4251 C   0  0  0  0  0  0  0  0  0  0  0  0
  1  5  1  0
  1 13  1  0
  2 20  2  0
  2 28  1  0
  2 29  1  0
  3 19  4  0
  3 25  4  0
  4 23  4  0
  4 27  1  0
  4 30  4  0
  5 17  1  0
  6  8  1  0
  6 29  1  0
  7 24  4  0
  7 26  4  0
  8 28  1  0
  9 13  2  0
 10 18  1  0
 10 21  4  0
 10 30  4  0
 11 17  2  0
 12 18  1  0
 13 15  1  0
 14 24  1  0
 15 25  1  0
 16 28  2  0
 17 20  1  0
 19 24  4  0
 20 23  1  0
 21 22  4  0
 22 23  4  0
 25 26  4  0
 27 29  2  0
M  END
$$$$

 Created by Python create_sdf_string function

 30 33  0  0  0  0  0  0  0  0999 V2000
    8.3036    9.8571   18.4133 C   0  0  0  0  0  0  0  0  0  0  0  0
    8.3694    7.6612   22.6703 C   0  0  0  0  0  0  0  0  0  0  0  0
    8.4143    6.6863   16.2273 C   0  0  0  0  0  0  0  0  0  0  0  0
   10.7581    6.5674   21.7636 C   0  0  0  0  0  0  0  0  0  0  0  0
    8.4452    8.7960   19.2958 O   0  0  0  0  0  0  0  0  0  0  0  0
    8.7122    6.7842   24.8569 C   0  0  0  0  0  0  0  0  0  0  0  0
   10.3400    6.1726   14.3081 C   0  0  0  0  0  0  0  0  0  0  0  0
    7.4297    7.5873   24.8962 C   0  0  0  0  0  0  0  0  0  0  0  0
    8.1566   10.0536   16.0516 O   0  0  0  0  0  0  0  0  0  0  0  0
   12.4989    6.2074   20.1776 C   0  0  0  0  0  0  0  0  0  0  0  0
    6.9192    9.1053   20.9073 O   0  0  0  0  0  0  0  0  0  0  0  0
   14.3979    6.0729   18.7784 C   0  0  0  0  0  0  0  0  0  0  0  0
    8.6811    9.5354   16.9998 C   0  0  0  0  0  0  0  0  0  0  0  0
    9.2512    4.2713   13.7653 O   0  0  0  0  0  0  0  0  0  0  0  0
    9.6495    8.6317   16.8332 N   0  0  0  0  0  0  0  0  0  0  0  0
    6.2934    8.6988   23.1988 O   0  0  0  0  0  0  0  0  0  0  0  0
    7.9806    8.6543   20.5437 C   0  0  0  0  0  0  0  0  0  0  0  0
   13.7270    5.7144   19.8610 O   0  0  0  0  0  0  0  0  0  0  0  0
    8.3351    5.5235   15.4478 C   0  0  0  0  0  0  0  0  0  0  0  0
    8.7700    7.8434   21.3915 C   0  0  0  0  0  0  0  0  0  0  0  0
   11.7856    6.8851   19.2401 C   0  0  0  0  0  0  0  0  0  0  0  0
   10.5281    7.4276   19.5649 C   0  0  0  0  0  0  0  0  0  0  0  0
   10.0256    7.2907   20.8484 C   0  0  0  0  0  0  0  0  0  0  0  0
    9.3113    5.3049   14.4911 C   0  0  0  0  0  0  0  0  0  0  0  0
    9.4607    7.5646   16.0139 C   0  0  0  0  0  0  0  0  0  0  0  0
   10.4192    7.3157   15.0955 C   0  0  0  0  0  0  0  0  0  0  0  0
   10.2489    6.4227   23.0218 N   0  0  0  0  0  0  0  0  0  0  0  0
    7.2472    8.0746   23.5050 C   0  0  0  0  0  0  0  0  0  0  0  0
    9.2051    6.9101   23.4604 C   0  0  0  0  0  0  0  0  0  0  0  0
   11.9646    6.0299   21.4251 C   0  0  0  0  0  0  0  0  0  0  0  0
  1  5  1  0
  1 13  1  0
  2 20  2  0
  2 28  1  0
  2 29  1  0
  3 19  4  0
  3 25  4  0
  4 23  4  0
  4 27  1  0
  4 30  4  0
  5 17  1  0
  6  8  1  0
  6 29  1  0
  7 24  4  0
  7 26  4  0
  8 28  1  0
  9 13  2  0
 10 18  1  0
 10 21  4  0
 10 30  4  0
 11 17  2  0
 12 18  1  0
 13 15  1  0
 14 24  1  0
 15 25  1  0
 16 28  2  0
 17 20  1  0
 19 24  4  0
 20 23  1  0
 21 22  4  0
 22 23  4  0
 25 26  4  0
 27 29  2  0
M  END
$$$$

 Created by Python create_sdf_string function

 30 33  0  0  0  0  0  0  0  0999 V2000
    8.3036    9.8571   18.4133 C   0  0  0  0  0  0  0  0  0  0  0  0
    8.3694    7.6612   22.6703 C   0  0  0  0  0  0  0  0  0  0  0  0
    8.4143    6.6863   16.2273 C   0  0  0  0  0  0  0  0  0  0  0  0
   10.7581    6.5674   21.7636 C   0  0  0  0  0  0  0  0  0  0  0  0
    8.4452    8.7960   19.2958 O   0  0  0  0  0  0  0  0  0  0  0  0
    8.7122    6.7842   24.8569 C   0  0  0  0  0  0  0  0  0  0  0  0
   10.3400    6.1726   14.3081 C   0  0  0  0  0  0  0  0  0  0  0  0
    7.4297    7.5873   24.8962 C   0  0  0  0  0  0  0  0  0  0  0  0
    8.1566   10.0536   16.0516 O   0  0  0  0  0  0  0  0  0  0  0  0
   12.4989    6.2074   20.1776 C   0  0  0  0  0  0  0  0  0  0  0  0
    6.9192    9.1053   20.9073 O   0  0  0  0  0  0  0  0  0  0  0  0
   14.3979    6.0729   18.7784 C   0  0  0  0  0  0  0  0  0  0  0  0
    8.6811    9.5354   16.9998 C   0  0  0  0  0  0  0  0  0  0  0  0
    9.2512    4.2713   13.7653 O   0  0  0  0  0  0  0  0  0  0  0  0
    9.6495    8.6317   16.8332 N   0  0  0  0  0  0  0  0  0  0  0  0
    6.2934    8.6988   23.1988 O   0  0  0  0  0  0  0  0  0  0  0  0
    7.9806    8.6543   20.5437 C   0  0  0  0  0  0  0  0  0  0  0  0
   13.7270    5.7144   19.8610 O   0  0  0  0  0  0  0  0  0  0  0  0
    8.3351    5.5235   15.4478 C   0  0  0  0  0  0  0  0  0  0  0  0
    8.7700    7.8434   21.3915 C   0  0  0  0  0  0  0  0  0  0  0  0
   11.7856    6.8851   19.2401 C   0  0  0  0  0  0  0  0  0  0  0  0
   10.5281    7.4276   19.5649 C   0  0  0  0  0  0  0  0  0  0  0  0
   10.0256    7.2907   20.8484 C   0  0  0  0  0  0  0  0  0  0  0  0
    9.3113    5.3049   14.4911 C   0  0  0  0  0  0  0  0  0  0  0  0
    9.4607    7.5646   16.0139 C   0  0  0  0  0  0  0  0  0  0  0  0
   10.4192    7.3157   15.0955 C   0  0  0  0  0  0  0  0  0  0  0  0
   10.2489    6.4227   23.0218 N   0  0  0  0  0  0  0  0  0  0  0  0
    7.2472    8.0746   23.5050 C   0  0  0  0  0  0  0  0  0  0  0  0
    9.2051    6.9101   23.4604 C   0  0  0  0  0  0  0  0  0  0  0  0
   11.9646    6.0299   21.4251 C   0  0  0  0  0  0  0  0  0  0  0  0
  1  5  1  0
  1 13  1  0
  2 20  2  0
  2 28  1  0
  2 29  1  0
  3 19  4  0
  3 25  4  0
  4 23  4  0
  4 27  1  0
  4 30  4  0
  5 17  1  0
  6  8  1  0
  6 29  1  0
  7 24  4  0
  7 26  4  0
  8 28  1  0
  9 13  2  0
 10 18  1  0
 10 21  4  0
 10 30  4  0
 11 17  2  0
 12 18  1  0
 13 15  1  0
 14 24  1  0
 15 25  1  0
 16 28  2  0
 17 20  1  0
 19 24  4  0
 20 23  1  0
 21 22  4  0
 22 23  4  0
 25 26  4  0
 27 29  2  0
M  END
$$$$

 Created by Python create_sdf_string function

 30 33  0  0  0  0  0  0  0  0999 V2000
    8.3036    9.8571   18.4133 C   0  0  0  0  0  0  0  0  0  0  0  0
    8.3694    7.6612   22.6703 C   0  0  0  0  0  0  0  0  0  0  0  0
    8.4143    6.6863   16.2273 C   0  0  0  0  0  0  0  0  0  0  0  0
   10.7581    6.5674   21.7636 C   0  0  0  0  0  0  0  0  0  0  0  0
    8.4452    8.7960   19.2958 O   0  0  0  0  0  0  0  0  0  0  0  0
    8.7122    6.7842   24.8569 C   0  0  0  0  0  0  0  0  0  0  0  0
   10.3400    6.1726   14.3081 C   0  0  0  0  0  0  0  0  0  0  0  0
    7.4297    7.5873   24.8962 C   0  0  0  0  0  0  0  0  0  0  0  0
    8.1566   10.0536   16.0516 O   0  0  0  0  0  0  0  0  0  0  0  0
   12.4989    6.2074   20.1776 C   0  0  0  0  0  0  0  0  0  0  0  0
    6.9192    9.1053   20.9073 O   0  0  0  0  0  0  0  0  0  0  0  0
   14.3979    6.0729   18.7784 C   0  0  0  0  0  0  0  0  0  0  0  0
    8.6811    9.5354   16.9998 C   0  0  0  0  0  0  0  0  0  0  0  0
    9.2512    4.2713   13.7653 O   0  0  0  0  0  0  0  0  0  0  0  0
    9.6495    8.6317   16.8332 N   0  0  0  0  0  0  0  0  0  0  0  0
    6.2934    8.6988   23.1988 O   0  0  0  0  0  0  0  0  0  0  0  0
    7.9806    8.6543   20.5437 C   0  0  0  0  0  0  0  0  0  0  0  0
   13.7270    5.7144   19.8610 O   0  0  0  0  0  0  0  0  0  0  0  0
    8.3351    5.5235   15.4478 C   0  0  0  0  0  0  0  0  0  0  0  0
    8.7700    7.8434   21.3915 C   0  0  0  0  0  0  0  0  0  0  0  0
   11.7856    6.8851   19.2401 C   0  0  0  0  0  0  0  0  0  0  0  0
   10.5281    7.4276   19.5649 C   0  0  0  0  0  0  0  0  0  0  0  0
   10.0256    7.2907   20.8484 C   0  0  0  0  0  0  0  0  0  0  0  0
    9.3113    5.3049   14.4911 C   0  0  0  0  0  0  0  0  0  0  0  0
    9.4607    7.5646   16.0139 C   0  0  0  0  0  0  0  0  0  0  0  0
   10.4192    7.3157   15.0955 C   0  0  0  0  0  0  0  0  0  0  0  0
   10.2489    6.4227   23.0218 N   0  0  0  0  0  0  0  0  0  0  0  0
    7.2472    8.0746   23.5050 C   0  0  0  0  0  0  0  0  0  0  0  0
    9.2051    6.9101   23.4604 C   0  0  0  0  0  0  0  0  0  0  0  0
   11.9646    6.0299   21.4251 C   0  0  0  0  0  0  0  0  0  0  0  0
  1  5  1  0
  1 13  1  0
  2 20  2  0
  2 28  1  0
  2 29  1  0
  3 19  4  0
  3 25  4  0
  4 23  4  0
  4 27  1  0
  4 30  4  0
  5 17  1  0
  6  8  1  0
  6 29  1  0
  7 24  4  0
  7 26  4  0
  8 28  1  0
  9 13  2  0
 10 18  1  0
 10 21  4  0
 10 30  4  0
 11 17  2  0
 12 18  1  0
 13 15  1  0
 14 24  1  0
 15 25  1  0
 16 28  2  0
 17 20  1  0
 19 24  4  0
 20 23  1  0
 21 22  4  0
 22 23  4  0
 25 26  4  0
 27 29  2  0
M  END
$$$$

 Created by Python create_sdf_string function

 30 33  0  0  0  0  0  0  0  0999 V2000
    8.3036    9.8571   18.4133 C   0  0  0  0  0  0  0  0  0  0  0  0
    8.3694    7.6612   22.6703 C   0  0  0  0  0  0  0  0  0  0  0  0
    8.4143    6.6863   16.2273 C   0  0  0  0  0  0  0  0  0  0  0  0
   10.7581    6.5674   21.7636 C   0  0  0  0  0  0  0  0  0  0  0  0
    8.4452    8.7960   19.2958 O   0  0  0  0  0  0  0  0  0  0  0  0
    8.7122    6.7842   24.8569 C   0  0  0  0  0  0  0  0  0  0  0  0
   10.3400    6.1726   14.3081 C   0  0  0  0  0  0  0  0  0  0  0  0
    7.4297    7.5873   24.8962 C   0  0  0  0  0  0  0  0  0  0  0  0
    8.1566   10.0536   16.0516 O   0  0  0  0  0  0  0  0  0  0  0  0
   12.4989    6.2074   20.1776 C   0  0  0  0  0  0  0  0  0  0  0  0
    6.9192    9.1053   20.9073 O   0  0  0  0  0  0  0  0  0  0  0  0
   14.3979    6.0729   18.7784 C   0  0  0  0  0  0  0  0  0  0  0  0
    8.6811    9.5354   16.9998 C   0  0  0  0  0  0  0  0  0  0  0  0
    9.2512    4.2713   13.7653 O   0  0  0  0  0  0  0  0  0  0  0  0
    9.6495    8.6317   16.8332 N   0  0  0  0  0  0  0  0  0  0  0  0
    6.2934    8.6988   23.1988 O   0  0  0  0  0  0  0  0  0  0  0  0
    7.9806    8.6543   20.5437 C   0  0  0  0  0  0  0  0  0  0  0  0
   13.7270    5.7144   19.8610 O   0  0  0  0  0  0  0  0  0  0  0  0
    8.3351    5.5235   15.4478 C   0  0  0  0  0  0  0  0  0  0  0  0
    8.7700    7.8434   21.3915 C   0  0  0  0  0  0  0  0  0  0  0  0
   11.7856    6.8851   19.2401 C   0  0  0  0  0  0  0  0  0  0  0  0
   10.5281    7.4276   19.5649 C   0  0  0  0  0  0  0  0  0  0  0  0
   10.0256    7.2907   20.8484 C   0  0  0  0  0  0  0  0  0  0  0  0
    9.3113    5.3049   14.4911 C   0  0  0  0  0  0  0  0  0  0  0  0
    9.4607    7.5646   16.0139 C   0  0  0  0  0  0  0  0  0  0  0  0
   10.4192    7.3157   15.0955 C   0  0  0  0  0  0  0  0  0  0  0  0
   10.2489    6.4227   23.0218 N   0  0  0  0  0  0  0  0  0  0  0  0
    7.2472    8.0746   23.5050 C   0  0  0  0  0  0  0  0  0  0  0  0
    9.2051    6.9101   23.4604 C   0  0  0  0  0  0  0  0  0  0  0  0
   11.9646    6.0299   21.4251 C   0  0  0  0  0  0  0  0  0  0  0  0
  1  5  1  0
  1 13  1  0
  2 20  2  0
  2 28  1  0
  2 29  1  0
  3 19  4  0
  3 25  4  0
  4 23  4  0
  4 27  1  0
  4 30  4  0
  5 17  1  0
  6  8  1  0
  6 29  1  0
  7 24  4  0
  7 26  4  0
  8 28  1  0
  9 13  2  0
 10 18  1  0
 10 21  4  0
 10 30  4  0
 11 17  2  0
 12 18  1  0
 13 15  1  0
 14 24  1  0
 15 25  1  0
 16 28  2  0
 17 20  1  0
 19 24  4  0
 20 23  1  0
 21 22  4  0
 22 23  4  0
 25 26  4  0
 27 29  2  0
M  END
$$$$

 Created by Python create_sdf_string function

 30 33  0  0  0  0  0  0  0  0999 V2000
    8.3036    9.8571   18.4133 C   0  0  0  0  0  0  0  0  0  0  0  0
    8.3694    7.6612   22.6703 C   0  0  0  0  0  0  0  0  0  0  0  0
    8.4143    6.6863   16.2273 C   0  0  0  0  0  0  0  0  0  0  0  0
   10.7581    6.5674   21.7636 C   0  0  0  0  0  0  0  0  0  0  0  0
    8.4452    8.7960   19.2958 O   0  0  0  0  0  0  0  0  0  0  0  0
    8.7122    6.7842   24.8569 C   0  0  0  0  0  0  0  0  0  0  0  0
   10.3400    6.1726   14.3081 C   0  0  0  0  0  0  0  0  0  0  0  0
    7.4297    7.5873   24.8962 C   0  0  0  0  0  0  0  0  0  0  0  0
    8.1566   10.0536   16.0516 O   0  0  0  0  0  0  0  0  0  0  0  0
   12.4989    6.2074   20.1776 C   0  0  0  0  0  0  0  0  0  0  0  0
    6.9192    9.1053   20.9073 O   0  0  0  0  0  0  0  0  0  0  0  0
   14.3979    6.0729   18.7784 C   0  0  0  0  0  0  0  0  0  0  0  0
    8.6811    9.5354   16.9998 C   0  0  0  0  0  0  0  0  0  0  0  0
    9.2512    4.2713   13.7653 O   0  0  0  0  0  0  0  0  0  0  0  0
    9.6495    8.6317   16.8332 N   0  0  0  0  0  0  0  0  0  0  0  0
    6.2934    8.6988   23.1988 O   0  0  0  0  0  0  0  0  0  0  0  0
    7.9806    8.6543   20.5437 C   0  0  0  0  0  0  0  0  0  0  0  0
   13.7270    5.7144   19.8610 O   0  0  0  0  0  0  0  0  0  0  0  0
    8.3351    5.5235   15.4478 C   0  0  0  0  0  0  0  0  0  0  0  0
    8.7700    7.8434   21.3915 C   0  0  0  0  0  0  0  0  0  0  0  0
   11.7856    6.8851   19.2401 C   0  0  0  0  0  0  0  0  0  0  0  0
   10.5281    7.4276   19.5649 C   0  0  0  0  0  0  0  0  0  0  0  0
   10.0256    7.2907   20.8484 C   0  0  0  0  0  0  0  0  0  0  0  0
    9.3113    5.3049   14.4911 C   0  0  0  0  0  0  0  0  0  0  0  0
    9.4607    7.5646   16.0139 C   0  0  0  0  0  0  0  0  0  0  0  0
   10.4192    7.3157   15.0955 C   0  0  0  0  0  0  0  0  0  0  0  0
   10.2489    6.4227   23.0218 N   0  0  0  0  0  0  0  0  0  0  0  0
    7.2472    8.0746   23.5050 C   0  0  0  0  0  0  0  0  0  0  0  0
    9.2051    6.9101   23.4604 C   0  0  0  0  0  0  0  0  0  0  0  0
   11.9646    6.0299   21.4251 C   0  0  0  0  0  0  0  0  0  0  0  0
  1  5  1  0
  1 13  1  0
  2 20  2  0
  2 28  1  0
  2 29  1  0
  3 19  4  0
  3 25  4  0
  4 23  4  0
  4 27  1  0
  4 30  4  0
  5 17  1  0
  6  8  1  0
  6 29  1  0
  7 24  4  0
  7 26  4  0
  8 28  1  0
  9 13  2  0
 10 18  1  0
 10 21  4  0
 10 30  4  0
 11 17  2  0
 12 18  1  0
 13 15  1  0
 14 24  1  0
 15 25  1  0
 16 28  2  0
 17 20  1  0
 19 24  4  0
 20 23  1  0
 21 22  4  0
 22 23  4  0
 25 26  4  0
 27 29  2  0
M  END
$$$$

 Created by Python create_sdf_string function

 30 33  0  0  0  0  0  0  0  0999 V2000
    8.3036    9.8571   18.4133 C   0  0  0  0  0  0  0  0  0  0  0  0
    8.3694    7.6612   22.6703 C   0  0  0  0  0  0  0  0  0  0  0  0
    8.4143    6.6863   16.2273 C   0  0  0  0  0  0  0  0  0  0  0  0
   10.7581    6.5674   21.7636 C   0  0  0  0  0  0  0  0  0  0  0  0
    8.4452    8.7960   19.2958 O   0  0  0  0  0  0  0  0  0  0  0  0
    8.7122    6.7842   24.8569 C   0  0  0  0  0  0  0  0  0  0  0  0
   10.3400    6.1726   14.3081 C   0  0  0  0  0  0  0  0  0  0  0  0
    7.4297    7.5873   24.8962 C   0  0  0  0  0  0  0  0  0  0  0  0
    8.1566   10.0536   16.0516 O   0  0  0  0  0  0  0  0  0  0  0  0
   12.4989    6.2074   20.1776 C   0  0  0  0  0  0  0  0  0  0  0  0
    6.9192    9.1053   20.9073 O   0  0  0  0  0  0  0  0  0  0  0  0
   14.3979    6.0729   18.7784 C   0  0  0  0  0  0  0  0  0  0  0  0
    8.6811    9.5354   16.9998 C   0  0  0  0  0  0  0  0  0  0  0  0
    9.2512    4.2713   13.7653 O   0  0  0  0  0  0  0  0  0  0  0  0
    9.6495    8.6317   16.8332 N   0  0  0  0  0  0  0  0  0  0  0  0
    6.2934    8.6988   23.1988 O   0  0  0  0  0  0  0  0  0  0  0  0
    7.9806    8.6543   20.5437 C   0  0  0  0  0  0  0  0  0  0  0  0
   13.7270    5.7144   19.8610 O   0  0  0  0  0  0  0  0  0  0  0  0
    8.3351    5.5235   15.4478 C   0  0  0  0  0  0  0  0  0  0  0  0
    8.7700    7.8434   21.3915 C   0  0  0  0  0  0  0  0  0  0  0  0
   11.7856    6.8851   19.2401 C   0  0  0  0  0  0  0  0  0  0  0  0
   10.5281    7.4276   19.5649 C   0  0  0  0  0  0  0  0  0  0  0  0
   10.0256    7.2907   20.8484 C   0  0  0  0  0  0  0  0  0  0  0  0
    9.3113    5.3049   14.4911 C   0  0  0  0  0  0  0  0  0  0  0  0
    9.4607    7.5646   16.0139 C   0  0  0  0  0  0  0  0  0  0  0  0
   10.4192    7.3157   15.0955 C   0  0  0  0  0  0  0  0  0  0  0  0
   10.2489    6.4227   23.0218 N   0  0  0  0  0  0  0  0  0  0  0  0
    7.2472    8.0746   23.5050 C   0  0  0  0  0  0  0  0  0  0  0  0
    9.2051    6.9101   23.4604 C   0  0  0  0  0  0  0  0  0  0  0  0
   11.9646    6.0299   21.4251 C   0  0  0  0  0  0  0  0  0  0  0  0
  1  5  1  0
  1 13  1  0
  2 20  2  0
  2 28  1  0
  2 29  1  0
  3 19  4  0
  3 25  4  0
  4 23  4  0
  4 27  1  0
  4 30  4  0
  5 17  1  0
  6  8  1  0
  6 29  1  0
  7 24  4  0
  7 26  4  0
  8 28  1  0
  9 13  2  0
 10 18  1  0
 10 21  4  0
 10 30  4  0
 11 17  2  0
 12 18  1  0
 13 15  1  0
 14 24  1  0
 15 25  1  0
 16 28  2  0
 17 20  1  0
 19 24  4  0
 20 23  1  0
 21 22  4  0
 22 23  4  0
 25 26  4  0
 27 29  2  0
M  END
$$$$

 Created by Python create_sdf_string function

 30 33  0  0  0  0  0  0  0  0999 V2000
    8.3036    9.8571   18.4133 C   0  0  0  0  0  0  0  0  0  0  0  0
    8.3694    7.6612   22.6703 C   0  0  0  0  0  0  0  0  0  0  0  0
    8.4143    6.6863   16.2273 C   0  0  0  0  0  0  0  0  0  0  0  0
   10.7581    6.5674   21.7636 C   0  0  0  0  0  0  0  0  0  0  0  0
    8.4452    8.7960   19.2958 O   0  0  0  0  0  0  0  0  0  0  0  0
    8.7122    6.7842   24.8569 C   0  0  0  0  0  0  0  0  0  0  0  0
   10.3400    6.1726   14.3081 C   0  0  0  0  0  0  0  0  0  0  0  0
    7.4297    7.5873   24.8962 C   0  0  0  0  0  0  0  0  0  0  0  0
    8.1566   10.0536   16.0516 O   0  0  0  0  0  0  0  0  0  0  0  0
   12.4989    6.2074   20.1776 C   0  0  0  0  0  0  0  0  0  0  0  0
    6.9192    9.1053   20.9073 O   0  0  0  0  0  0  0  0  0  0  0  0
   14.3979    6.0729   18.7784 C   0  0  0  0  0  0  0  0  0  0  0  0
    8.6811    9.5354   16.9998 C   0  0  0  0  0  0  0  0  0  0  0  0
    9.2512    4.2713   13.7653 O   0  0  0  0  0  0  0  0  0  0  0  0
    9.6495    8.6317   16.8332 N   0  0  0  0  0  0  0  0  0  0  0  0
    6.2934    8.6988   23.1988 O   0  0  0  0  0  0  0  0  0  0  0  0
    7.9806    8.6543   20.5437 C   0  0  0  0  0  0  0  0  0  0  0  0
   13.7270    5.7144   19.8610 O   0  0  0  0  0  0  0  0  0  0  0  0
    8.3351    5.5235   15.4478 C   0  0  0  0  0  0  0  0  0  0  0  0
    8.7700    7.8434   21.3915 C   0  0  0  0  0  0  0  0  0  0  0  0
   11.7856    6.8851   19.2401 C   0  0  0  0  0  0  0  0  0  0  0  0
   10.5281    7.4276   19.5649 C   0  0  0  0  0  0  0  0  0  0  0  0
   10.0256    7.2907   20.8484 C   0  0  0  0  0  0  0  0  0  0  0  0
    9.3113    5.3049   14.4911 C   0  0  0  0  0  0  0  0  0  0  0  0
    9.4607    7.5646   16.0139 C   0  0  0  0  0  0  0  0  0  0  0  0
   10.4192    7.3157   15.0955 C   0  0  0  0  0  0  0  0  0  0  0  0
   10.2489    6.4227   23.0218 N   0  0  0  0  0  0  0  0  0  0  0  0
    7.2472    8.0746   23.5050 C   0  0  0  0  0  0  0  0  0  0  0  0
    9.2051    6.9101   23.4604 C   0  0  0  0  0  0  0  0  0  0  0  0
   11.9646    6.0299   21.4251 C   0  0  0  0  0  0  0  0  0  0  0  0
  1  5  1  0
  1 13  1  0
  2 20  2  0
  2 28  1  0
  2 29  1  0
  3 19  4  0
  3 25  4  0
  4 23  4  0
  4 27  1  0
  4 30  4  0
  5 17  1  0
  6  8  1  0
  6 29  1  0
  7 24  4  0
  7 26  4  0
  8 28  1  0
  9 13  2  0
 10 18  1  0
 10 21  4  0
 10 30  4  0
 11 17  2  0
 12 18  1  0
 13 15  1  0
 14 24  1  0
 15 25  1  0
 16 28  2  0
 17 20  1  0
 19 24  4  0
 20 23  1  0
 21 22  4  0
 22 23  4  0
 25 26  4  0
 27 29  2  0
M  END
$$$$

 Created by Python create_sdf_string function

 30 33  0  0  0  0  0  0  0  0999 V2000
    8.3036    9.8571   18.4133 C   0  0  0  0  0  0  0  0  0  0  0  0
    8.3694    7.6612   22.6703 C   0  0  0  0  0  0  0  0  0  0  0  0
    8.4143    6.6863   16.2273 C   0  0  0  0  0  0  0  0  0  0  0  0
   10.7581    6.5674   21.7636 C   0  0  0  0  0  0  0  0  0  0  0  0
    8.4452    8.7960   19.2958 O   0  0  0  0  0  0  0  0  0  0  0  0
    8.7122    6.7842   24.8569 C   0  0  0  0  0  0  0  0  0  0  0  0
   10.3400    6.1726   14.3081 C   0  0  0  0  0  0  0  0  0  0  0  0
    7.4297    7.5873   24.8962 C   0  0  0  0  0  0  0  0  0  0  0  0
    8.1566   10.0536   16.0516 O   0  0  0  0  0  0  0  0  0  0  0  0
   12.4989    6.2074   20.1776 C   0  0  0  0  0  0  0  0  0  0  0  0
    6.9192    9.1053   20.9073 O   0  0  0  0  0  0  0  0  0  0  0  0
   14.3979    6.0729   18.7784 C   0  0  0  0  0  0  0  0  0  0  0  0
    8.6811    9.5354   16.9998 C   0  0  0  0  0  0  0  0  0  0  0  0
    9.2512    4.2713   13.7653 O   0  0  0  0  0  0  0  0  0  0  0  0
    9.6495    8.6317   16.8332 N   0  0  0  0  0  0  0  0  0  0  0  0
    6.2934    8.6988   23.1988 O   0  0  0  0  0  0  0  0  0  0  0  0
    7.9806    8.6543   20.5437 C   0  0  0  0  0  0  0  0  0  0  0  0
   13.7270    5.7144   19.8610 O   0  0  0  0  0  0  0  0  0  0  0  0
    8.3351    5.5235   15.4478 C   0  0  0  0  0  0  0  0  0  0  0  0
    8.7700    7.8434   21.3915 C   0  0  0  0  0  0  0  0  0  0  0  0
   11.7856    6.8851   19.2401 C   0  0  0  0  0  0  0  0  0  0  0  0
   10.5281    7.4276   19.5649 C   0  0  0  0  0  0  0  0  0  0  0  0
   10.0256    7.2907   20.8484 C   0  0  0  0  0  0  0  0  0  0  0  0
    9.3113    5.3049   14.4911 C   0  0  0  0  0  0  0  0  0  0  0  0
    9.4607    7.5646   16.0139 C   0  0  0  0  0  0  0  0  0  0  0  0
   10.4192    7.3157   15.0955 C   0  0  0  0  0  0  0  0  0  0  0  0
   10.2489    6.4227   23.0218 N   0  0  0  0  0  0  0  0  0  0  0  0
    7.2472    8.0746   23.5050 C   0  0  0  0  0  0  0  0  0  0  0  0
    9.2051    6.9101   23.4604 C   0  0  0  0  0  0  0  0  0  0  0  0
   11.9646    6.0299   21.4251 C   0  0  0  0  0  0  0  0  0  0  0  0
  1  5  1  0
  1 13  1  0
  2 20  2  0
  2 28  1  0
  2 29  1  0
  3 19  4  0
  3 25  4  0
  4 23  4  0
  4 27  1  0
  4 30  4  0
  5 17  1  0
  6  8  1  0
  6 29  1  0
  7 24  4  0
  7 26  4  0
  8 28  1  0
  9 13  2  0
 10 18  1  0
 10 21  4  0
 10 30  4  0
 11 17  2  0
 12 18  1  0
 13 15  1  0
 14 24  1  0
 15 25  1  0
 16 28  2  0
 17 20  1  0
 19 24  4  0
 20 23  1  0
 21 22  4  0
 22 23  4  0
 25 26  4  0
 27 29  2  0
M  END
$$$$

 Created by Python create_sdf_string function

 30 33  0  0  0  0  0  0  0  0999 V2000
    8.3036    9.8571   18.4133 C   0  0  0  0  0  0  0  0  0  0  0  0
    8.3694    7.6612   22.6703 C   0  0  0  0  0  0  0  0  0  0  0  0
    8.4143    6.6863   16.2273 C   0  0  0  0  0  0  0  0  0  0  0  0
   10.7581    6.5674   21.7636 C   0  0  0  0  0  0  0  0  0  0  0  0
    8.4452    8.7960   19.2958 O   0  0  0  0  0  0  0  0  0  0  0  0
    8.7122    6.7842   24.8569 C   0  0  0  0  0  0  0  0  0  0  0  0
   10.3400    6.1726   14.3081 C   0  0  0  0  0  0  0  0  0  0  0  0
    7.4297    7.5873   24.8962 C   0  0  0  0  0  0  0  0  0  0  0  0
    8.1566   10.0536   16.0516 O   0  0  0  0  0  0  0  0  0  0  0  0
   12.4989    6.2074   20.1776 C   0  0  0  0  0  0  0  0  0  0  0  0
    6.9192    9.1053   20.9073 O   0  0  0  0  0  0  0  0  0  0  0  0
   14.3979    6.0729   18.7784 C   0  0  0  0  0  0  0  0  0  0  0  0
    8.6811    9.5354   16.9998 C   0  0  0  0  0  0  0  0  0  0  0  0
    9.2512    4.2713   13.7653 O   0  0  0  0  0  0  0  0  0  0  0  0
    9.6495    8.6317   16.8332 N   0  0  0  0  0  0  0  0  0  0  0  0
    6.2934    8.6988   23.1988 O   0  0  0  0  0  0  0  0  0  0  0  0
    7.9806    8.6543   20.5437 C   0  0  0  0  0  0  0  0  0  0  0  0
   13.7270    5.7144   19.8610 O   0  0  0  0  0  0  0  0  0  0  0  0
    8.3351    5.5235   15.4478 C   0  0  0  0  0  0  0  0  0  0  0  0
    8.7700    7.8434   21.3915 C   0  0  0  0  0  0  0  0  0  0  0  0
   11.7856    6.8851   19.2401 C   0  0  0  0  0  0  0  0  0  0  0  0
   10.5281    7.4276   19.5649 C   0  0  0  0  0  0  0  0  0  0  0  0
   10.0256    7.2907   20.8484 C   0  0  0  0  0  0  0  0  0  0  0  0
    9.3113    5.3049   14.4911 C   0  0  0  0  0  0  0  0  0  0  0  0
    9.4607    7.5646   16.0139 C   0  0  0  0  0  0  0  0  0  0  0  0
   10.4192    7.3157   15.0955 C   0  0  0  0  0  0  0  0  0  0  0  0
   10.2489    6.4227   23.0218 N   0  0  0  0  0  0  0  0  0  0  0  0
    7.2472    8.0746   23.5050 C   0  0  0  0  0  0  0  0  0  0  0  0
    9.2051    6.9101   23.4604 C   0  0  0  0  0  0  0  0  0  0  0  0
   11.9646    6.0299   21.4251 C   0  0  0  0  0  0  0  0  0  0  0  0
  1  5  1  0
  1 13  1  0
  2 20  2  0
  2 28  1  0
  2 29  1  0
  3 19  4  0
  3 25  4  0
  4 23  4  0
  4 27  1  0
  4 30  4  0
  5 17  1  0
  6  8  1  0
  6 29  1  0
  7 24  4  0
  7 26  4  0
  8 28  1  0
  9 13  2  0
 10 18  1  0
 10 21  4  0
 10 30  4  0
 11 17  2  0
 12 18  1  0
 13 15  1  0
 14 24  1  0
 15 25  1  0
 16 28  2  0
 17 20  1  0
 19 24  4  0
 20 23  1  0
 21 22  4  0
 22 23  4  0
 25 26  4  0
 27 29  2  0
M  END
$$$$

 Created by Python create_sdf_string function

 30 33  0  0  0  0  0  0  0  0999 V2000
    8.3036    9.8571   18.4133 C   0  0  0  0  0  0  0  0  0  0  0  0
    8.3694    7.6612   22.6703 C   0  0  0  0  0  0  0  0  0  0  0  0
    8.4143    6.6863   16.2273 C   0  0  0  0  0  0  0  0  0  0  0  0
   10.7581    6.5674   21.7636 C   0  0  0  0  0  0  0  0  0  0  0  0
    8.4452    8.7960   19.2958 O   0  0  0  0  0  0  0  0  0  0  0  0
    8.7122    6.7842   24.8569 C   0  0  0  0  0  0  0  0  0  0  0  0
   10.3400    6.1726   14.3081 C   0  0  0  0  0  0  0  0  0  0  0  0
    7.4297    7.5873   24.8962 C   0  0  0  0  0  0  0  0  0  0  0  0
    8.1566   10.0536   16.0516 O   0  0  0  0  0  0  0  0  0  0  0  0
   12.4989    6.2074   20.1776 C   0  0  0  0  0  0  0  0  0  0  0  0
    6.9192    9.1053   20.9073 O   0  0  0  0  0  0  0  0  0  0  0  0
   14.3979    6.0729   18.7784 C   0  0  0  0  0  0  0  0  0  0  0  0
    8.6811    9.5354   16.9998 C   0  0  0  0  0  0  0  0  0  0  0  0
    9.2512    4.2713   13.7653 O   0  0  0  0  0  0  0  0  0  0  0  0
    9.6495    8.6317   16.8332 N   0  0  0  0  0  0  0  0  0  0  0  0
    6.2934    8.6988   23.1988 O   0  0  0  0  0  0  0  0  0  0  0  0
    7.9806    8.6543   20.5437 C   0  0  0  0  0  0  0  0  0  0  0  0
   13.7270    5.7144   19.8610 O   0  0  0  0  0  0  0  0  0  0  0  0
    8.3351    5.5235   15.4478 C   0  0  0  0  0  0  0  0  0  0  0  0
    8.7700    7.8434   21.3915 C   0  0  0  0  0  0  0  0  0  0  0  0
   11.7856    6.8851   19.2401 C   0  0  0  0  0  0  0  0  0  0  0  0
   10.5281    7.4276   19.5649 C   0  0  0  0  0  0  0  0  0  0  0  0
   10.0256    7.2907   20.8484 C   0  0  0  0  0  0  0  0  0  0  0  0
    9.3113    5.3049   14.4911 C   0  0  0  0  0  0  0  0  0  0  0  0
    9.4607    7.5646   16.0139 C   0  0  0  0  0  0  0  0  0  0  0  0
   10.4192    7.3157   15.0955 C   0  0  0  0  0  0  0  0  0  0  0  0
   10.2489    6.4227   23.0218 N   0  0  0  0  0  0  0  0  0  0  0  0
    7.2472    8.0746   23.5050 C   0  0  0  0  0  0  0  0  0  0  0  0
    9.2051    6.9101   23.4604 C   0  0  0  0  0  0  0  0  0  0  0  0
   11.9646    6.0299   21.4251 C   0  0  0  0  0  0  0  0  0  0  0  0
  1  5  1  0
  1 13  1  0
  2 20  2  0
  2 28  1  0
  2 29  1  0
  3 19  4  0
  3 25  4  0
  4 23  4  0
  4 27  1  0
  4 30  4  0
  5 17  1  0
  6  8  1  0
  6 29  1  0
  7 24  4  0
  7 26  4  0
  8 28  1  0
  9 13  2  0
 10 18  1  0
 10 21  4  0
 10 30  4  0
 11 17  2  0
 12 18  1  0
 13 15  1  0
 14 24  1  0
 15 25  1  0
 16 28  2  0
 17 20  1  0
 19 24  4  0
 20 23  1  0
 21 22  4  0
 22 23  4  0
 25 26  4  0
 27 29  2  0
M  END
$$$$

 Created by Python create_sdf_string function

 30 33  0  0  0  0  0  0  0  0999 V2000
    8.3036    9.8571   18.4133 C   0  0  0  0  0  0  0  0  0  0  0  0
    8.3694    7.6612   22.6703 C   0  0  0  0  0  0  0  0  0  0  0  0
    8.4143    6.6863   16.2273 C   0  0  0  0  0  0  0  0  0  0  0  0
   10.7581    6.5674   21.7636 C   0  0  0  0  0  0  0  0  0  0  0  0
    8.4452    8.7960   19.2958 O   0  0  0  0  0  0  0  0  0  0  0  0
    8.7122    6.7842   24.8569 C   0  0  0  0  0  0  0  0  0  0  0  0
   10.3400    6.1726   14.3081 C   0  0  0  0  0  0  0  0  0  0  0  0
    7.4297    7.5873   24.8962 C   0  0  0  0  0  0  0  0  0  0  0  0
    8.1566   10.0536   16.0516 O   0  0  0  0  0  0  0  0  0  0  0  0
   12.4989    6.2074   20.1776 C   0  0  0  0  0  0  0  0  0  0  0  0
    6.9192    9.1053   20.9073 O   0  0  0  0  0  0  0  0  0  0  0  0
   14.3979    6.0729   18.7784 C   0  0  0  0  0  0  0  0  0  0  0  0
    8.6811    9.5354   16.9998 C   0  0  0  0  0  0  0  0  0  0  0  0
    9.2512    4.2713   13.7653 O   0  0  0  0  0  0  0  0  0  0  0  0
    9.6495    8.6317   16.8332 N   0  0  0  0  0  0  0  0  0  0  0  0
    6.2934    8.6988   23.1988 O   0  0  0  0  0  0  0  0  0  0  0  0
    7.9806    8.6543   20.5437 C   0  0  0  0  0  0  0  0  0  0  0  0
   13.7270    5.7144   19.8610 O   0  0  0  0  0  0  0  0  0  0  0  0
    8.3351    5.5235   15.4478 C   0  0  0  0  0  0  0  0  0  0  0  0
    8.7700    7.8434   21.3915 C   0  0  0  0  0  0  0  0  0  0  0  0
   11.7856    6.8851   19.2401 C   0  0  0  0  0  0  0  0  0  0  0  0
   10.5281    7.4276   19.5649 C   0  0  0  0  0  0  0  0  0  0  0  0
   10.0256    7.2907   20.8484 C   0  0  0  0  0  0  0  0  0  0  0  0
    9.3113    5.3049   14.4911 C   0  0  0  0  0  0  0  0  0  0  0  0
    9.4607    7.5646   16.0139 C   0  0  0  0  0  0  0  0  0  0  0  0
   10.4192    7.3157   15.0955 C   0  0  0  0  0  0  0  0  0  0  0  0
   10.2489    6.4227   23.0218 N   0  0  0  0  0  0  0  0  0  0  0  0
    7.2472    8.0746   23.5050 C   0  0  0  0  0  0  0  0  0  0  0  0
    9.2051    6.9101   23.4604 C   0  0  0  0  0  0  0  0  0  0  0  0
   11.9646    6.0299   21.4251 C   0  0  0  0  0  0  0  0  0  0  0  0
  1  5  1  0
  1 13  1  0
  2 20  2  0
  2 28  1  0
  2 29  1  0
  3 19  4  0
  3 25  4  0
  4 23  4  0
  4 27  1  0
  4 30  4  0
  5 17  1  0
  6  8  1  0
  6 29  1  0
  7 24  4  0
  7 26  4  0
  8 28  1  0
  9 13  2  0
 10 18  1  0
 10 21  4  0
 10 30  4  0
 11 17  2  0
 12 18  1  0
 13 15  1  0
 14 24  1  0
 15 25  1  0
 16 28  2  0
 17 20  1  0
 19 24  4  0
 20 23  1  0
 21 22  4  0
 22 23  4  0
 25 26  4  0
 27 29  2  0
M  END
$$$$

 Created by Python create_sdf_string function

 30 33  0  0  0  0  0  0  0  0999 V2000
    8.3036    9.8571   18.4133 C   0  0  0  0  0  0  0  0  0  0  0  0
    8.3694    7.6612   22.6703 C   0  0  0  0  0  0  0  0  0  0  0  0
    8.4143    6.6863   16.2273 C   0  0  0  0  0  0  0  0  0  0  0  0
   10.7581    6.5674   21.7636 C   0  0  0  0  0  0  0  0  0  0  0  0
    8.4452    8.7960   19.2958 O   0  0  0  0  0  0  0  0  0  0  0  0
    8.7122    6.7842   24.8569 C   0  0  0  0  0  0  0  0  0  0  0  0
   10.3400    6.1726   14.3081 C   0  0  0  0  0  0  0  0  0  0  0  0
    7.4297    7.5873   24.8962 C   0  0  0  0  0  0  0  0  0  0  0  0
    8.1566   10.0536   16.0516 O   0  0  0  0  0  0  0  0  0  0  0  0
   12.4989    6.2074   20.1776 C   0  0  0  0  0  0  0  0  0  0  0  0
    6.9192    9.1053   20.9073 O   0  0  0  0  0  0  0  0  0  0  0  0
   14.3979    6.0729   18.7784 C   0  0  0  0  0  0  0  0  0  0  0  0
    8.6811    9.5354   16.9998 C   0  0  0  0  0  0  0  0  0  0  0  0
    9.2512    4.2713   13.7653 O   0  0  0  0  0  0  0  0  0  0  0  0
    9.6495    8.6317   16.8332 N   0  0  0  0  0  0  0  0  0  0  0  0
    6.2934    8.6988   23.1988 O   0  0  0  0  0  0  0  0  0  0  0  0
    7.9806    8.6543   20.5437 C   0  0  0  0  0  0  0  0  0  0  0  0
   13.7270    5.7144   19.8610 O   0  0  0  0  0  0  0  0  0  0  0  0
    8.3351    5.5235   15.4478 C   0  0  0  0  0  0  0  0  0  0  0  0
    8.7700    7.8434   21.3915 C   0  0  0  0  0  0  0  0  0  0  0  0
   11.7856    6.8851   19.2401 C   0  0  0  0  0  0  0  0  0  0  0  0
   10.5281    7.4276   19.5649 C   0  0  0  0  0  0  0  0  0  0  0  0
   10.0256    7.2907   20.8484 C   0  0  0  0  0  0  0  0  0  0  0  0
    9.3113    5.3049   14.4911 C   0  0  0  0  0  0  0  0  0  0  0  0
    9.4607    7.5646   16.0139 C   0  0  0  0  0  0  0  0  0  0  0  0
   10.4192    7.3157   15.0955 C   0  0  0  0  0  0  0  0  0  0  0  0
   10.2489    6.4227   23.0218 N   0  0  0  0  0  0  0  0  0  0  0  0
    7.2472    8.0746   23.5050 C   0  0  0  0  0  0  0  0  0  0  0  0
    9.2051    6.9101   23.4604 C   0  0  0  0  0  0  0  0  0  0  0  0
   11.9646    6.0299   21.4251 C   0  0  0  0  0  0  0  0  0  0  0  0
  1  5  1  0
  1 13  1  0
  2 20  2  0
  2 28  1  0
  2 29  1  0
  3 19  4  0
  3 25  4  0
  4 23  4  0
  4 27  1  0
  4 30  4  0
  5 17  1  0
  6  8  1  0
  6 29  1  0
  7 24  4  0
  7 26  4  0
  8 28  1  0
  9 13  2  0
 10 18  1  0
 10 21  4  0
 10 30  4  0
 11 17  2  0
 12 18  1  0
 13 15  1  0
 14 24  1  0
 15 25  1  0
 16 28  2  0
 17 20  1  0
 19 24  4  0
 20 23  1  0
 21 22  4  0
 22 23  4  0
 25 26  4  0
 27 29  2  0
M  END
$$$$

 Created by Python create_sdf_string function

 30 33  0  0  0  0  0  0  0  0999 V2000
    8.3036    9.8571   18.4133 C   0  0  0  0  0  0  0  0  0  0  0  0
    8.3694    7.6612   22.6703 C   0  0  0  0  0  0  0  0  0  0  0  0
    8.4143    6.6863   16.2273 C   0  0  0  0  0  0  0  0  0  0  0  0
   10.7581    6.5674   21.7636 C   0  0  0  0  0  0  0  0  0  0  0  0
    8.4452    8.7960   19.2958 O   0  0  0  0  0  0  0  0  0  0  0  0
    8.7122    6.7842   24.8569 C   0  0  0  0  0  0  0  0  0  0  0  0
   10.3400    6.1726   14.3081 C   0  0  0  0  0  0  0  0  0  0  0  0
    7.4297    7.5873   24.8962 C   0  0  0  0  0  0  0  0  0  0  0  0
    8.1566   10.0536   16.0516 O   0  0  0  0  0  0  0  0  0  0  0  0
   12.4989    6.2074   20.1776 C   0  0  0  0  0  0  0  0  0  0  0  0
    6.9192    9.1053   20.9073 O   0  0  0  0  0  0  0  0  0  0  0  0
   14.3979    6.0729   18.7784 C   0  0  0  0  0  0  0  0  0  0  0  0
    8.6811    9.5354   16.9998 C   0  0  0  0  0  0  0  0  0  0  0  0
    9.2512    4.2713   13.7653 O   0  0  0  0  0  0  0  0  0  0  0  0
    9.6495    8.6317   16.8332 N   0  0  0  0  0  0  0  0  0  0  0  0
    6.2934    8.6988   23.1988 O   0  0  0  0  0  0  0  0  0  0  0  0
    7.9806    8.6543   20.5437 C   0  0  0  0  0  0  0  0  0  0  0  0
   13.7270    5.7144   19.8610 O   0  0  0  0  0  0  0  0  0  0  0  0
    8.3351    5.5235   15.4478 C   0  0  0  0  0  0  0  0  0  0  0  0
    8.7700    7.8434   21.3915 C   0  0  0  0  0  0  0  0  0  0  0  0
   11.7856    6.8851   19.2401 C   0  0  0  0  0  0  0  0  0  0  0  0
   10.5281    7.4276   19.5649 C   0  0  0  0  0  0  0  0  0  0  0  0
   10.0256    7.2907   20.8484 C   0  0  0  0  0  0  0  0  0  0  0  0
    9.3113    5.3049   14.4911 C   0  0  0  0  0  0  0  0  0  0  0  0
    9.4607    7.5646   16.0139 C   0  0  0  0  0  0  0  0  0  0  0  0
   10.4192    7.3157   15.0955 C   0  0  0  0  0  0  0  0  0  0  0  0
   10.2489    6.4227   23.0218 N   0  0  0  0  0  0  0  0  0  0  0  0
    7.2472    8.0746   23.5050 C   0  0  0  0  0  0  0  0  0  0  0  0
    9.2051    6.9101   23.4604 C   0  0  0  0  0  0  0  0  0  0  0  0
   11.9646    6.0299   21.4251 C   0  0  0  0  0  0  0  0  0  0  0  0
  1  5  1  0
  1 13  1  0
  2 20  2  0
  2 28  1  0
  2 29  1  0
  3 19  4  0
  3 25  4  0
  4 23  4  0
  4 27  1  0
  4 30  4  0
  5 17  1  0
  6  8  1  0
  6 29  1  0
  7 24  4  0
  7 26  4  0
  8 28  1  0
  9 13  2  0
 10 18  1  0
 10 21  4  0
 10 30  4  0
 11 17  2  0
 12 18  1  0
 13 15  1  0
 14 24  1  0
 15 25  1  0
 16 28  2  0
 17 20  1  0
 19 24  4  0
 20 23  1  0
 21 22  4  0
 22 23  4  0
 25 26  4  0
 27 29  2  0
M  END
$$$$

 Created by Python create_sdf_string function

 30 33  0  0  0  0  0  0  0  0999 V2000
    8.3036    9.8571   18.4133 C   0  0  0  0  0  0  0  0  0  0  0  0
    8.3694    7.6612   22.6703 C   0  0  0  0  0  0  0  0  0  0  0  0
    8.4143    6.6863   16.2273 C   0  0  0  0  0  0  0  0  0  0  0  0
   10.7581    6.5674   21.7636 C   0  0  0  0  0  0  0  0  0  0  0  0
    8.4452    8.7960   19.2958 O   0  0  0  0  0  0  0  0  0  0  0  0
    8.7122    6.7842   24.8569 C   0  0  0  0  0  0  0  0  0  0  0  0
   10.3400    6.1726   14.3081 C   0  0  0  0  0  0  0  0  0  0  0  0
    7.4297    7.5873   24.8962 C   0  0  0  0  0  0  0  0  0  0  0  0
    8.1566   10.0536   16.0516 O   0  0  0  0  0  0  0  0  0  0  0  0
   12.4989    6.2074   20.1776 C   0  0  0  0  0  0  0  0  0  0  0  0
    6.9192    9.1053   20.9073 O   0  0  0  0  0  0  0  0  0  0  0  0
   14.3979    6.0729   18.7784 C   0  0  0  0  0  0  0  0  0  0  0  0
    8.6811    9.5354   16.9998 C   0  0  0  0  0  0  0  0  0  0  0  0
    9.2512    4.2713   13.7653 O   0  0  0  0  0  0  0  0  0  0  0  0
    9.6495    8.6317   16.8332 N   0  0  0  0  0  0  0  0  0  0  0  0
    6.2934    8.6988   23.1988 O   0  0  0  0  0  0  0  0  0  0  0  0
    7.9806    8.6543   20.5437 C   0  0  0  0  0  0  0  0  0  0  0  0
   13.7270    5.7144   19.8610 O   0  0  0  0  0  0  0  0  0  0  0  0
    8.3351    5.5235   15.4478 C   0  0  0  0  0  0  0  0  0  0  0  0
    8.7700    7.8434   21.3915 C   0  0  0  0  0  0  0  0  0  0  0  0
   11.7856    6.8851   19.2401 C   0  0  0  0  0  0  0  0  0  0  0  0
   10.5281    7.4276   19.5649 C   0  0  0  0  0  0  0  0  0  0  0  0
   10.0256    7.2907   20.8484 C   0  0  0  0  0  0  0  0  0  0  0  0
    9.3113    5.3049   14.4911 C   0  0  0  0  0  0  0  0  0  0  0  0
    9.4607    7.5646   16.0139 C   0  0  0  0  0  0  0  0  0  0  0  0
   10.4192    7.3157   15.0955 C   0  0  0  0  0  0  0  0  0  0  0  0
   10.2489    6.4227   23.0218 N   0  0  0  0  0  0  0  0  0  0  0  0
    7.2472    8.0746   23.5050 C   0  0  0  0  0  0  0  0  0  0  0  0
    9.2051    6.9101   23.4604 C   0  0  0  0  0  0  0  0  0  0  0  0
   11.9646    6.0299   21.4251 C   0  0  0  0  0  0  0  0  0  0  0  0
  1  5  1  0
  1 13  1  0
  2 20  2  0
  2 28  1  0
  2 29  1  0
  3 19  4  0
  3 25  4  0
  4 23  4  0
  4 27  1  0
  4 30  4  0
  5 17  1  0
  6  8  1  0
  6 29  1  0
  7 24  4  0
  7 26  4  0
  8 28  1  0
  9 13  2  0
 10 18  1  0
 10 21  4  0
 10 30  4  0
 11 17  2  0
 12 18  1  0
 13 15  1  0
 14 24  1  0
 15 25  1  0
 16 28  2  0
 17 20  1  0
 19 24  4  0
 20 23  1  0
 21 22  4  0
 22 23  4  0
 25 26  4  0
 27 29  2  0
M  END
$$$$

 Created by Python create_sdf_string function

 30 33  0  0  0  0  0  0  0  0999 V2000
    8.3036    9.8571   18.4133 C   0  0  0  0  0  0  0  0  0  0  0  0
    8.3694    7.6612   22.6703 C   0  0  0  0  0  0  0  0  0  0  0  0
    8.4143    6.6863   16.2273 C   0  0  0  0  0  0  0  0  0  0  0  0
   10.7581    6.5674   21.7636 C   0  0  0  0  0  0  0  0  0  0  0  0
    8.4452    8.7960   19.2958 O   0  0  0  0  0  0  0  0  0  0  0  0
    8.7122    6.7842   24.8569 C   0  0  0  0  0  0  0  0  0  0  0  0
   10.3400    6.1726   14.3081 C   0  0  0  0  0  0  0  0  0  0  0  0
    7.4297    7.5873   24.8962 C   0  0  0  0  0  0  0  0  0  0  0  0
    8.1566   10.0536   16.0516 O   0  0  0  0  0  0  0  0  0  0  0  0
   12.4989    6.2074   20.1776 C   0  0  0  0  0  0  0  0  0  0  0  0
    6.9192    9.1053   20.9073 O   0  0  0  0  0  0  0  0  0  0  0  0
   14.3979    6.0729   18.7784 C   0  0  0  0  0  0  0  0  0  0  0  0
    8.6811    9.5354   16.9998 C   0  0  0  0  0  0  0  0  0  0  0  0
    9.2512    4.2713   13.7653 O   0  0  0  0  0  0  0  0  0  0  0  0
    9.6495    8.6317   16.8332 N   0  0  0  0  0  0  0  0  0  0  0  0
    6.2934    8.6988   23.1988 O   0  0  0  0  0  0  0  0  0  0  0  0
    7.9806    8.6543   20.5437 C   0  0  0  0  0  0  0  0  0  0  0  0
   13.7270    5.7144   19.8610 O   0  0  0  0  0  0  0  0  0  0  0  0
    8.3351    5.5235   15.4478 C   0  0  0  0  0  0  0  0  0  0  0  0
    8.7700    7.8434   21.3915 C   0  0  0  0  0  0  0  0  0  0  0  0
   11.7856    6.8851   19.2401 C   0  0  0  0  0  0  0  0  0  0  0  0
   10.5281    7.4276   19.5649 C   0  0  0  0  0  0  0  0  0  0  0  0
   10.0256    7.2907   20.8484 C   0  0  0  0  0  0  0  0  0  0  0  0
    9.3113    5.3049   14.4911 C   0  0  0  0  0  0  0  0  0  0  0  0
    9.4607    7.5646   16.0139 C   0  0  0  0  0  0  0  0  0  0  0  0
   10.4192    7.3157   15.0955 C   0  0  0  0  0  0  0  0  0  0  0  0
   10.2489    6.4227   23.0218 N   0  0  0  0  0  0  0  0  0  0  0  0
    7.2472    8.0746   23.5050 C   0  0  0  0  0  0  0  0  0  0  0  0
    9.2051    6.9101   23.4604 C   0  0  0  0  0  0  0  0  0  0  0  0
   11.9646    6.0299   21.4251 C   0  0  0  0  0  0  0  0  0  0  0  0
  1  5  1  0
  1 13  1  0
  2 20  2  0
  2 28  1  0
  2 29  1  0
  3 19  4  0
  3 25  4  0
  4 23  4  0
  4 27  1  0
  4 30  4  0
  5 17  1  0
  6  8  1  0
  6 29  1  0
  7 24  4  0
  7 26  4  0
  8 28  1  0
  9 13  2  0
 10 18  1  0
 10 21  4  0
 10 30  4  0
 11 17  2  0
 12 18  1  0
 13 15  1  0
 14 24  1  0
 15 25  1  0
 16 28  2  0
 17 20  1  0
 19 24  4  0
 20 23  1  0
 21 22  4  0
 22 23  4  0
 25 26  4  0
 27 29  2  0
M  END
$$$$

 Created by Python create_sdf_string function

 30 33  0  0  0  0  0  0  0  0999 V2000
    8.3036    9.8571   18.4133 C   0  0  0  0  0  0  0  0  0  0  0  0
    8.3694    7.6612   22.6703 C   0  0  0  0  0  0  0  0  0  0  0  0
    8.4143    6.6863   16.2273 C   0  0  0  0  0  0  0  0  0  0  0  0
   10.7581    6.5674   21.7636 C   0  0  0  0  0  0  0  0  0  0  0  0
    8.4452    8.7960   19.2958 O   0  0  0  0  0  0  0  0  0  0  0  0
    8.7122    6.7842   24.8569 C   0  0  0  0  0  0  0  0  0  0  0  0
   10.3400    6.1726   14.3081 C   0  0  0  0  0  0  0  0  0  0  0  0
    7.4297    7.5873   24.8962 C   0  0  0  0  0  0  0  0  0  0  0  0
    8.1566   10.0536   16.0516 O   0  0  0  0  0  0  0  0  0  0  0  0
   12.4989    6.2074   20.1776 C   0  0  0  0  0  0  0  0  0  0  0  0
    6.9192    9.1053   20.9073 O   0  0  0  0  0  0  0  0  0  0  0  0
   14.3979    6.0729   18.7784 C   0  0  0  0  0  0  0  0  0  0  0  0
    8.6811    9.5354   16.9998 C   0  0  0  0  0  0  0  0  0  0  0  0
    9.2512    4.2713   13.7653 O   0  0  0  0  0  0  0  0  0  0  0  0
    9.6495    8.6317   16.8332 N   0  0  0  0  0  0  0  0  0  0  0  0
    6.2934    8.6988   23.1988 O   0  0  0  0  0  0  0  0  0  0  0  0
    7.9806    8.6543   20.5437 C   0  0  0  0  0  0  0  0  0  0  0  0
   13.7270    5.7144   19.8610 O   0  0  0  0  0  0  0  0  0  0  0  0
    8.3351    5.5235   15.4478 C   0  0  0  0  0  0  0  0  0  0  0  0
    8.7700    7.8434   21.3915 C   0  0  0  0  0  0  0  0  0  0  0  0
   11.7856    6.8851   19.2401 C   0  0  0  0  0  0  0  0  0  0  0  0
   10.5281    7.4276   19.5649 C   0  0  0  0  0  0  0  0  0  0  0  0
   10.0256    7.2907   20.8484 C   0  0  0  0  0  0  0  0  0  0  0  0
    9.3113    5.3049   14.4911 C   0  0  0  0  0  0  0  0  0  0  0  0
    9.4607    7.5646   16.0139 C   0  0  0  0  0  0  0  0  0  0  0  0
   10.4192    7.3157   15.0955 C   0  0  0  0  0  0  0  0  0  0  0  0
   10.2489    6.4227   23.0218 N   0  0  0  0  0  0  0  0  0  0  0  0
    7.2472    8.0746   23.5050 C   0  0  0  0  0  0  0  0  0  0  0  0
    9.2051    6.9101   23.4604 C   0  0  0  0  0  0  0  0  0  0  0  0
   11.9646    6.0299   21.4251 C   0  0  0  0  0  0  0  0  0  0  0  0
  1  5  1  0
  1 13  1  0
  2 20  2  0
  2 28  1  0
  2 29  1  0
  3 19  4  0
  3 25  4  0
  4 23  4  0
  4 27  1  0
  4 30  4  0
  5 17  1  0
  6  8  1  0
  6 29  1  0
  7 24  4  0
  7 26  4  0
  8 28  1  0
  9 13  2  0
 10 18  1  0
 10 21  4  0
 10 30  4  0
 11 17  2  0
 12 18  1  0
 13 15  1  0
 14 24  1  0
 15 25  1  0
 16 28  2  0
 17 20  1  0
 19 24  4  0
 20 23  1  0
 21 22  4  0
 22 23  4  0
 25 26  4  0
 27 29  2  0
M  END
$$$$

 Created by Python create_sdf_string function

 30 33  0  0  0  0  0  0  0  0999 V2000
    8.3036    9.8571   18.4133 C   0  0  0  0  0  0  0  0  0  0  0  0
    8.3694    7.6612   22.6703 C   0  0  0  0  0  0  0  0  0  0  0  0
    8.4143    6.6863   16.2273 C   0  0  0  0  0  0  0  0  0  0  0  0
   10.7581    6.5674   21.7636 C   0  0  0  0  0  0  0  0  0  0  0  0
    8.4452    8.7960   19.2958 O   0  0  0  0  0  0  0  0  0  0  0  0
    8.7122    6.7842   24.8569 C   0  0  0  0  0  0  0  0  0  0  0  0
   10.3400    6.1726   14.3081 C   0  0  0  0  0  0  0  0  0  0  0  0
    7.4297    7.5873   24.8962 C   0  0  0  0  0  0  0  0  0  0  0  0
    8.1566   10.0536   16.0516 O   0  0  0  0  0  0  0  0  0  0  0  0
   12.4989    6.2074   20.1776 C   0  0  0  0  0  0  0  0  0  0  0  0
    6.9192    9.1053   20.9073 O   0  0  0  0  0  0  0  0  0  0  0  0
   14.3979    6.0729   18.7784 C   0  0  0  0  0  0  0  0  0  0  0  0
    8.6811    9.5354   16.9998 C   0  0  0  0  0  0  0  0  0  0  0  0
    9.2512    4.2713   13.7653 O   0  0  0  0  0  0  0  0  0  0  0  0
    9.6495    8.6317   16.8332 N   0  0  0  0  0  0  0  0  0  0  0  0
    6.2934    8.6988   23.1988 O   0  0  0  0  0  0  0  0  0  0  0  0
    7.9806    8.6543   20.5437 C   0  0  0  0  0  0  0  0  0  0  0  0
   13.7270    5.7144   19.8610 O   0  0  0  0  0  0  0  0  0  0  0  0
    8.3351    5.5235   15.4478 C   0  0  0  0  0  0  0  0  0  0  0  0
    8.7700    7.8434   21.3915 C   0  0  0  0  0  0  0  0  0  0  0  0
   11.7856    6.8851   19.2401 C   0  0  0  0  0  0  0  0  0  0  0  0
   10.5281    7.4276   19.5649 C   0  0  0  0  0  0  0  0  0  0  0  0
   10.0256    7.2907   20.8484 C   0  0  0  0  0  0  0  0  0  0  0  0
    9.3113    5.3049   14.4911 C   0  0  0  0  0  0  0  0  0  0  0  0
    9.4607    7.5646   16.0139 C   0  0  0  0  0  0  0  0  0  0  0  0
   10.4192    7.3157   15.0955 C   0  0  0  0  0  0  0  0  0  0  0  0
   10.2489    6.4227   23.0218 N   0  0  0  0  0  0  0  0  0  0  0  0
    7.2472    8.0746   23.5050 C   0  0  0  0  0  0  0  0  0  0  0  0
    9.2051    6.9101   23.4604 C   0  0  0  0  0  0  0  0  0  0  0  0
   11.9646    6.0299   21.4251 C   0  0  0  0  0  0  0  0  0  0  0  0
  1  5  1  0
  1 13  1  0
  2 20  2  0
  2 28  1  0
  2 29  1  0
  3 19  4  0
  3 25  4  0
  4 23  4  0
  4 27  1  0
  4 30  4  0
  5 17  1  0
  6  8  1  0
  6 29  1  0
  7 24  4  0
  7 26  4  0
  8 28  1  0
  9 13  2  0
 10 18  1  0
 10 21  4  0
 10 30  4  0
 11 17  2  0
 12 18  1  0
 13 15  1  0
 14 24  1  0
 15 25  1  0
 16 28  2  0
 17 20  1  0
 19 24  4  0
 20 23  1  0
 21 22  4  0
 22 23  4  0
 25 26  4  0
 27 29  2  0
M  END
$$$$

 Created by Python create_sdf_string function

 30 33  0  0  0  0  0  0  0  0999 V2000
    8.3036    9.8571   18.4133 C   0  0  0  0  0  0  0  0  0  0  0  0
    8.3694    7.6612   22.6703 C   0  0  0  0  0  0  0  0  0  0  0  0
    8.4143    6.6863   16.2273 C   0  0  0  0  0  0  0  0  0  0  0  0
   10.7581    6.5674   21.7636 C   0  0  0  0  0  0  0  0  0  0  0  0
    8.4452    8.7960   19.2958 O   0  0  0  0  0  0  0  0  0  0  0  0
    8.7122    6.7842   24.8569 C   0  0  0  0  0  0  0  0  0  0  0  0
   10.3400    6.1726   14.3081 C   0  0  0  0  0  0  0  0  0  0  0  0
    7.4297    7.5873   24.8962 C   0  0  0  0  0  0  0  0  0  0  0  0
    8.1566   10.0536   16.0516 O   0  0  0  0  0  0  0  0  0  0  0  0
   12.4989    6.2074   20.1776 C   0  0  0  0  0  0  0  0  0  0  0  0
    6.9192    9.1053   20.9073 O   0  0  0  0  0  0  0  0  0  0  0  0
   14.3979    6.0729   18.7784 C   0  0  0  0  0  0  0  0  0  0  0  0
    8.6811    9.5354   16.9998 C   0  0  0  0  0  0  0  0  0  0  0  0
    9.2512    4.2713   13.7653 O   0  0  0  0  0  0  0  0  0  0  0  0
    9.6495    8.6317   16.8332 N   0  0  0  0  0  0  0  0  0  0  0  0
    6.2934    8.6988   23.1988 O   0  0  0  0  0  0  0  0  0  0  0  0
    7.9806    8.6543   20.5437 C   0  0  0  0  0  0  0  0  0  0  0  0
   13.7270    5.7144   19.8610 O   0  0  0  0  0  0  0  0  0  0  0  0
    8.3351    5.5235   15.4478 C   0  0  0  0  0  0  0  0  0  0  0  0
    8.7700    7.8434   21.3915 C   0  0  0  0  0  0  0  0  0  0  0  0
   11.7856    6.8851   19.2401 C   0  0  0  0  0  0  0  0  0  0  0  0
   10.5281    7.4276   19.5649 C   0  0  0  0  0  0  0  0  0  0  0  0
   10.0256    7.2907   20.8484 C   0  0  0  0  0  0  0  0  0  0  0  0
    9.3113    5.3049   14.4911 C   0  0  0  0  0  0  0  0  0  0  0  0
    9.4607    7.5646   16.0139 C   0  0  0  0  0  0  0  0  0  0  0  0
   10.4192    7.3157   15.0955 C   0  0  0  0  0  0  0  0  0  0  0  0
   10.2489    6.4227   23.0218 N   0  0  0  0  0  0  0  0  0  0  0  0
    7.2472    8.0746   23.5050 C   0  0  0  0  0  0  0  0  0  0  0  0
    9.2051    6.9101   23.4604 C   0  0  0  0  0  0  0  0  0  0  0  0
   11.9646    6.0299   21.4251 C   0  0  0  0  0  0  0  0  0  0  0  0
  1  5  1  0
  1 13  1  0
  2 20  2  0
  2 28  1  0
  2 29  1  0
  3 19  4  0
  3 25  4  0
  4 23  4  0
  4 27  1  0
  4 30  4  0
  5 17  1  0
  6  8  1  0
  6 29  1  0
  7 24  4  0
  7 26  4  0
  8 28  1  0
  9 13  2  0
 10 18  1  0
 10 21  4  0
 10 30  4  0
 11 17  2  0
 12 18  1  0
 13 15  1  0
 14 24  1  0
 15 25  1  0
 16 28  2  0
 17 20  1  0
 19 24  4  0
 20 23  1  0
 21 22  4  0
 22 23  4  0
 25 26  4  0
 27 29  2  0
M  END
$$$$

 Created by Python create_sdf_string function

 30 33  0  0  0  0  0  0  0  0999 V2000
    8.3036    9.8571   18.4133 C   0  0  0  0  0  0  0  0  0  0  0  0
    8.3694    7.6612   22.6703 C   0  0  0  0  0  0  0  0  0  0  0  0
    8.4143    6.6863   16.2273 C   0  0  0  0  0  0  0  0  0  0  0  0
   10.7581    6.5674   21.7636 C   0  0  0  0  0  0  0  0  0  0  0  0
    8.4452    8.7960   19.2958 O   0  0  0  0  0  0  0  0  0  0  0  0
    8.7122    6.7842   24.8569 C   0  0  0  0  0  0  0  0  0  0  0  0
   10.3400    6.1726   14.3081 C   0  0  0  0  0  0  0  0  0  0  0  0
    7.4297    7.5873   24.8962 C   0  0  0  0  0  0  0  0  0  0  0  0
    8.1566   10.0536   16.0516 O   0  0  0  0  0  0  0  0  0  0  0  0
   12.4989    6.2074   20.1776 C   0  0  0  0  0  0  0  0  0  0  0  0
    6.9192    9.1053   20.9073 O   0  0  0  0  0  0  0  0  0  0  0  0
   14.3979    6.0729   18.7784 C   0  0  0  0  0  0  0  0  0  0  0  0
    8.6811    9.5354   16.9998 C   0  0  0  0  0  0  0  0  0  0  0  0
    9.2512    4.2713   13.7653 O   0  0  0  0  0  0  0  0  0  0  0  0
    9.6495    8.6317   16.8332 N   0  0  0  0  0  0  0  0  0  0  0  0
    6.2934    8.6988   23.1988 O   0  0  0  0  0  0  0  0  0  0  0  0
    7.9806    8.6543   20.5437 C   0  0  0  0  0  0  0  0  0  0  0  0
   13.7270    5.7144   19.8610 O   0  0  0  0  0  0  0  0  0  0  0  0
    8.3351    5.5235   15.4478 C   0  0  0  0  0  0  0  0  0  0  0  0
    8.7700    7.8434   21.3915 C   0  0  0  0  0  0  0  0  0  0  0  0
   11.7856    6.8851   19.2401 C   0  0  0  0  0  0  0  0  0  0  0  0
   10.5281    7.4276   19.5649 C   0  0  0  0  0  0  0  0  0  0  0  0
   10.0256    7.2907   20.8484 C   0  0  0  0  0  0  0  0  0  0  0  0
    9.3113    5.3049   14.4911 C   0  0  0  0  0  0  0  0  0  0  0  0
    9.4607    7.5646   16.0139 C   0  0  0  0  0  0  0  0  0  0  0  0
   10.4192    7.3157   15.0955 C   0  0  0  0  0  0  0  0  0  0  0  0
   10.2489    6.4227   23.0218 N   0  0  0  0  0  0  0  0  0  0  0  0
    7.2472    8.0746   23.5050 C   0  0  0  0  0  0  0  0  0  0  0  0
    9.2051    6.9101   23.4604 C   0  0  0  0  0  0  0  0  0  0  0  0
   11.9646    6.0299   21.4251 C   0  0  0  0  0  0  0  0  0  0  0  0
  1  5  1  0
  1 13  1  0
  2 20  2  0
  2 28  1  0
  2 29  1  0
  3 19  4  0
  3 25  4  0
  4 23  4  0
  4 27  1  0
  4 30  4  0
  5 17  1  0
  6  8  1  0
  6 29  1  0
  7 24  4  0
  7 26  4  0
  8 28  1  0
  9 13  2  0
 10 18  1  0
 10 21  4  0
 10 30  4  0
 11 17  2  0
 12 18  1  0
 13 15  1  0
 14 24  1  0
 15 25  1  0
 16 28  2  0
 17 20  1  0
 19 24  4  0
 20 23  1  0
 21 22  4  0
 22 23  4  0
 25 26  4  0
 27 29  2  0
M  END
$$$$

 Created by Python create_sdf_string function

 30 33  0  0  0  0  0  0  0  0999 V2000
    8.3036    9.8571   18.4133 C   0  0  0  0  0  0  0  0  0  0  0  0
    8.3694    7.6612   22.6703 C   0  0  0  0  0  0  0  0  0  0  0  0
    8.4143    6.6863   16.2273 C   0  0  0  0  0  0  0  0  0  0  0  0
   10.7581    6.5674   21.7636 C   0  0  0  0  0  0  0  0  0  0  0  0
    8.4452    8.7960   19.2958 O   0  0  0  0  0  0  0  0  0  0  0  0
    8.7122    6.7842   24.8569 C   0  0  0  0  0  0  0  0  0  0  0  0
   10.3400    6.1726   14.3081 C   0  0  0  0  0  0  0  0  0  0  0  0
    7.4297    7.5873   24.8962 C   0  0  0  0  0  0  0  0  0  0  0  0
    8.1566   10.0536   16.0516 O   0  0  0  0  0  0  0  0  0  0  0  0
   12.4989    6.2074   20.1776 C   0  0  0  0  0  0  0  0  0  0  0  0
    6.9192    9.1053   20.9073 O   0  0  0  0  0  0  0  0  0  0  0  0
   14.3979    6.0729   18.7784 C   0  0  0  0  0  0  0  0  0  0  0  0
    8.6811    9.5354   16.9998 C   0  0  0  0  0  0  0  0  0  0  0  0
    9.2512    4.2713   13.7653 O   0  0  0  0  0  0  0  0  0  0  0  0
    9.6495    8.6317   16.8332 N   0  0  0  0  0  0  0  0  0  0  0  0
    6.2934    8.6988   23.1988 O   0  0  0  0  0  0  0  0  0  0  0  0
    7.9806    8.6543   20.5437 C   0  0  0  0  0  0  0  0  0  0  0  0
   13.7270    5.7144   19.8610 O   0  0  0  0  0  0  0  0  0  0  0  0
    8.3351    5.5235   15.4478 C   0  0  0  0  0  0  0  0  0  0  0  0
    8.7700    7.8434   21.3915 C   0  0  0  0  0  0  0  0  0  0  0  0
   11.7856    6.8851   19.2401 C   0  0  0  0  0  0  0  0  0  0  0  0
   10.5281    7.4276   19.5649 C   0  0  0  0  0  0  0  0  0  0  0  0
   10.0256    7.2907   20.8484 C   0  0  0  0  0  0  0  0  0  0  0  0
    9.3113    5.3049   14.4911 C   0  0  0  0  0  0  0  0  0  0  0  0
    9.4607    7.5646   16.0139 C   0  0  0  0  0  0  0  0  0  0  0  0
   10.4192    7.3157   15.0955 C   0  0  0  0  0  0  0  0  0  0  0  0
   10.2489    6.4227   23.0218 N   0  0  0  0  0  0  0  0  0  0  0  0
    7.2472    8.0746   23.5050 C   0  0  0  0  0  0  0  0  0  0  0  0
    9.2051    6.9101   23.4604 C   0  0  0  0  0  0  0  0  0  0  0  0
   11.9646    6.0299   21.4251 C   0  0  0  0  0  0  0  0  0  0  0  0
  1  5  1  0
  1 13  1  0
  2 20  2  0
  2 28  1  0
  2 29  1  0
  3 19  4  0
  3 25  4  0
  4 23  4  0
  4 27  1  0
  4 30  4  0
  5 17  1  0
  6  8  1  0
  6 29  1  0
  7 24  4  0
  7 26  4  0
  8 28  1  0
  9 13  2  0
 10 18  1  0
 10 21  4  0
 10 30  4  0
 11 17  2  0
 12 18  1  0
 13 15  1  0
 14 24  1  0
 15 25  1  0
 16 28  2  0
 17 20  1  0
 19 24  4  0
 20 23  1  0
 21 22  4  0
 22 23  4  0
 25 26  4  0
 27 29  2  0
M  END
$$$$

 Created by Python create_sdf_string function

 30 33  0  0  0  0  0  0  0  0999 V2000
    8.3036    9.8571   18.4133 C   0  0  0  0  0  0  0  0  0  0  0  0
    8.3694    7.6612   22.6703 C   0  0  0  0  0  0  0  0  0  0  0  0
    8.4143    6.6863   16.2273 C   0  0  0  0  0  0  0  0  0  0  0  0
   10.7581    6.5674   21.7636 C   0  0  0  0  0  0  0  0  0  0  0  0
    8.4452    8.7960   19.2958 O   0  0  0  0  0  0  0  0  0  0  0  0
    8.7122    6.7842   24.8569 C   0  0  0  0  0  0  0  0  0  0  0  0
   10.3400    6.1726   14.3081 C   0  0  0  0  0  0  0  0  0  0  0  0
    7.4297    7.5873   24.8962 C   0  0  0  0  0  0  0  0  0  0  0  0
    8.1566   10.0536   16.0516 O   0  0  0  0  0  0  0  0  0  0  0  0
   12.4989    6.2074   20.1776 C   0  0  0  0  0  0  0  0  0  0  0  0
    6.9192    9.1053   20.9073 O   0  0  0  0  0  0  0  0  0  0  0  0
   14.3979    6.0729   18.7784 C   0  0  0  0  0  0  0  0  0  0  0  0
    8.6811    9.5354   16.9998 C   0  0  0  0  0  0  0  0  0  0  0  0
    9.2512    4.2713   13.7653 O   0  0  0  0  0  0  0  0  0  0  0  0
    9.6495    8.6317   16.8332 N   0  0  0  0  0  0  0  0  0  0  0  0
    6.2934    8.6988   23.1988 O   0  0  0  0  0  0  0  0  0  0  0  0
    7.9806    8.6543   20.5437 C   0  0  0  0  0  0  0  0  0  0  0  0
   13.7270    5.7144   19.8610 O   0  0  0  0  0  0  0  0  0  0  0  0
    8.3351    5.5235   15.4478 C   0  0  0  0  0  0  0  0  0  0  0  0
    8.7700    7.8434   21.3915 C   0  0  0  0  0  0  0  0  0  0  0  0
   11.7856    6.8851   19.2401 C   0  0  0  0  0  0  0  0  0  0  0  0
   10.5281    7.4276   19.5649 C   0  0  0  0  0  0  0  0  0  0  0  0
   10.0256    7.2907   20.8484 C   0  0  0  0  0  0  0  0  0  0  0  0
    9.3113    5.3049   14.4911 C   0  0  0  0  0  0  0  0  0  0  0  0
    9.4607    7.5646   16.0139 C   0  0  0  0  0  0  0  0  0  0  0  0
   10.4192    7.3157   15.0955 C   0  0  0  0  0  0  0  0  0  0  0  0
   10.2489    6.4227   23.0218 N   0  0  0  0  0  0  0  0  0  0  0  0
    7.2472    8.0746   23.5050 C   0  0  0  0  0  0  0  0  0  0  0  0
    9.2051    6.9101   23.4604 C   0  0  0  0  0  0  0  0  0  0  0  0
   11.9646    6.0299   21.4251 C   0  0  0  0  0  0  0  0  0  0  0  0
  1  5  1  0
  1 13  1  0
  2 20  2  0
  2 28  1  0
  2 29  1  0
  3 19  4  0
  3 25  4  0
  4 23  4  0
  4 27  1  0
  4 30  4  0
  5 17  1  0
  6  8  1  0
  6 29  1  0
  7 24  4  0
  7 26  4  0
  8 28  1  0
  9 13  2  0
 10 18  1  0
 10 21  4  0
 10 30  4  0
 11 17  2  0
 12 18  1  0
 13 15  1  0
 14 24  1  0
 15 25  1  0
 16 28  2  0
 17 20  1  0
 19 24  4  0
 20 23  1  0
 21 22  4  0
 22 23  4  0
 25 26  4  0
 27 29  2  0
M  END
$$$$

 Created by Python create_sdf_string function

 30 33  0  0  0  0  0  0  0  0999 V2000
    8.3036    9.8571   18.4133 C   0  0  0  0  0  0  0  0  0  0  0  0
    8.3694    7.6612   22.6703 C   0  0  0  0  0  0  0  0  0  0  0  0
    8.4143    6.6863   16.2273 C   0  0  0  0  0  0  0  0  0  0  0  0
   10.7581    6.5674   21.7636 C   0  0  0  0  0  0  0  0  0  0  0  0
    8.4452    8.7960   19.2958 O   0  0  0  0  0  0  0  0  0  0  0  0
    8.7122    6.7842   24.8569 C   0  0  0  0  0  0  0  0  0  0  0  0
   10.3400    6.1726   14.3081 C   0  0  0  0  0  0  0  0  0  0  0  0
    7.4297    7.5873   24.8962 C   0  0  0  0  0  0  0  0  0  0  0  0
    8.1566   10.0536   16.0516 O   0  0  0  0  0  0  0  0  0  0  0  0
   12.4989    6.2074   20.1776 C   0  0  0  0  0  0  0  0  0  0  0  0
    6.9192    9.1053   20.9073 O   0  0  0  0  0  0  0  0  0  0  0  0
   14.3979    6.0729   18.7784 C   0  0  0  0  0  0  0  0  0  0  0  0
    8.6811    9.5354   16.9998 C   0  0  0  0  0  0  0  0  0  0  0  0
    9.2512    4.2713   13.7653 O   0  0  0  0  0  0  0  0  0  0  0  0
    9.6495    8.6317   16.8332 N   0  0  0  0  0  0  0  0  0  0  0  0
    6.2934    8.6988   23.1988 O   0  0  0  0  0  0  0  0  0  0  0  0
    7.9806    8.6543   20.5437 C   0  0  0  0  0  0  0  0  0  0  0  0
   13.7270    5.7144   19.8610 O   0  0  0  0  0  0  0  0  0  0  0  0
    8.3351    5.5235   15.4478 C   0  0  0  0  0  0  0  0  0  0  0  0
    8.7700    7.8434   21.3915 C   0  0  0  0  0  0  0  0  0  0  0  0
   11.7856    6.8851   19.2401 C   0  0  0  0  0  0  0  0  0  0  0  0
   10.5281    7.4276   19.5649 C   0  0  0  0  0  0  0  0  0  0  0  0
   10.0256    7.2907   20.8484 C   0  0  0  0  0  0  0  0  0  0  0  0
    9.3113    5.3049   14.4911 C   0  0  0  0  0  0  0  0  0  0  0  0
    9.4607    7.5646   16.0139 C   0  0  0  0  0  0  0  0  0  0  0  0
   10.4192    7.3157   15.0955 C   0  0  0  0  0  0  0  0  0  0  0  0
   10.2489    6.4227   23.0218 N   0  0  0  0  0  0  0  0  0  0  0  0
    7.2472    8.0746   23.5050 C   0  0  0  0  0  0  0  0  0  0  0  0
    9.2051    6.9101   23.4604 C   0  0  0  0  0  0  0  0  0  0  0  0
   11.9646    6.0299   21.4251 C   0  0  0  0  0  0  0  0  0  0  0  0
  1  5  1  0
  1 13  1  0
  2 20  2  0
  2 28  1  0
  2 29  1  0
  3 19  4  0
  3 25  4  0
  4 23  4  0
  4 27  1  0
  4 30  4  0
  5 17  1  0
  6  8  1  0
  6 29  1  0
  7 24  4  0
  7 26  4  0
  8 28  1  0
  9 13  2  0
 10 18  1  0
 10 21  4  0
 10 30  4  0
 11 17  2  0
 12 18  1  0
 13 15  1  0
 14 24  1  0
 15 25  1  0
 16 28  2  0
 17 20  1  0
 19 24  4  0
 20 23  1  0
 21 22  4  0
 22 23  4  0
 25 26  4  0
 27 29  2  0
M  END
$$$$

 Created by Python create_sdf_string function

 30 33  0  0  0  0  0  0  0  0999 V2000
    8.3036    9.8571   18.4133 C   0  0  0  0  0  0  0  0  0  0  0  0
    8.3694    7.6612   22.6703 C   0  0  0  0  0  0  0  0  0  0  0  0
    8.4143    6.6863   16.2273 C   0  0  0  0  0  0  0  0  0  0  0  0
   10.7581    6.5674   21.7636 C   0  0  0  0  0  0  0  0  0  0  0  0
    8.4452    8.7960   19.2958 O   0  0  0  0  0  0  0  0  0  0  0  0
    8.7122    6.7842   24.8569 C   0  0  0  0  0  0  0  0  0  0  0  0
   10.3400    6.1726   14.3081 C   0  0  0  0  0  0  0  0  0  0  0  0
    7.4297    7.5873   24.8962 C   0  0  0  0  0  0  0  0  0  0  0  0
    8.1566   10.0536   16.0516 O   0  0  0  0  0  0  0  0  0  0  0  0
   12.4989    6.2074   20.1776 C   0  0  0  0  0  0  0  0  0  0  0  0
    6.9192    9.1053   20.9073 O   0  0  0  0  0  0  0  0  0  0  0  0
   14.3979    6.0729   18.7784 C   0  0  0  0  0  0  0  0  0  0  0  0
    8.6811    9.5354   16.9998 C   0  0  0  0  0  0  0  0  0  0  0  0
    9.2512    4.2713   13.7653 O   0  0  0  0  0  0  0  0  0  0  0  0
    9.6495    8.6317   16.8332 N   0  0  0  0  0  0  0  0  0  0  0  0
    6.2934    8.6988   23.1988 O   0  0  0  0  0  0  0  0  0  0  0  0
    7.9806    8.6543   20.5437 C   0  0  0  0  0  0  0  0  0  0  0  0
   13.7270    5.7144   19.8610 O   0  0  0  0  0  0  0  0  0  0  0  0
    8.3351    5.5235   15.4478 C   0  0  0  0  0  0  0  0  0  0  0  0
    8.7700    7.8434   21.3915 C   0  0  0  0  0  0  0  0  0  0  0  0
   11.7856    6.8851   19.2401 C   0  0  0  0  0  0  0  0  0  0  0  0
   10.5281    7.4276   19.5649 C   0  0  0  0  0  0  0  0  0  0  0  0
   10.0256    7.2907   20.8484 C   0  0  0  0  0  0  0  0  0  0  0  0
    9.3113    5.3049   14.4911 C   0  0  0  0  0  0  0  0  0  0  0  0
    9.4607    7.5646   16.0139 C   0  0  0  0  0  0  0  0  0  0  0  0
   10.4192    7.3157   15.0955 C   0  0  0  0  0  0  0  0  0  0  0  0
   10.2489    6.4227   23.0218 N   0  0  0  0  0  0  0  0  0  0  0  0
    7.2472    8.0746   23.5050 C   0  0  0  0  0  0  0  0  0  0  0  0
    9.2051    6.9101   23.4604 C   0  0  0  0  0  0  0  0  0  0  0  0
   11.9646    6.0299   21.4251 C   0  0  0  0  0  0  0  0  0  0  0  0
  1  5  1  0
  1 13  1  0
  2 20  2  0
  2 28  1  0
  2 29  1  0
  3 19  4  0
  3 25  4  0
  4 23  4  0
  4 27  1  0
  4 30  4  0
  5 17  1  0
  6  8  1  0
  6 29  1  0
  7 24  4  0
  7 26  4  0
  8 28  1  0
  9 13  2  0
 10 18  1  0
 10 21  4  0
 10 30  4  0
 11 17  2  0
 12 18  1  0
 13 15  1  0
 14 24  1  0
 15 25  1  0
 16 28  2  0
 17 20  1  0
 19 24  4  0
 20 23  1  0
 21 22  4  0
 22 23  4  0
 25 26  4  0
 27 29  2  0
M  END
$$$$

 Created by Python create_sdf_string function

 30 33  0  0  0  0  0  0  0  0999 V2000
    8.3036    9.8571   18.4133 C   0  0  0  0  0  0  0  0  0  0  0  0
    8.3694    7.6612   22.6703 C   0  0  0  0  0  0  0  0  0  0  0  0
    8.4143    6.6863   16.2273 C   0  0  0  0  0  0  0  0  0  0  0  0
   10.7581    6.5674   21.7636 C   0  0  0  0  0  0  0  0  0  0  0  0
    8.4452    8.7960   19.2958 O   0  0  0  0  0  0  0  0  0  0  0  0
    8.7122    6.7842   24.8569 C   0  0  0  0  0  0  0  0  0  0  0  0
   10.3400    6.1726   14.3081 C   0  0  0  0  0  0  0  0  0  0  0  0
    7.4297    7.5873   24.8962 C   0  0  0  0  0  0  0  0  0  0  0  0
    8.1566   10.0536   16.0516 O   0  0  0  0  0  0  0  0  0  0  0  0
   12.4989    6.2074   20.1776 C   0  0  0  0  0  0  0  0  0  0  0  0
    6.9192    9.1053   20.9073 O   0  0  0  0  0  0  0  0  0  0  0  0
   14.3979    6.0729   18.7784 C   0  0  0  0  0  0  0  0  0  0  0  0
    8.6811    9.5354   16.9998 C   0  0  0  0  0  0  0  0  0  0  0  0
    9.2512    4.2713   13.7653 O   0  0  0  0  0  0  0  0  0  0  0  0
    9.6495    8.6317   16.8332 N   0  0  0  0  0  0  0  0  0  0  0  0
    6.2934    8.6988   23.1988 O   0  0  0  0  0  0  0  0  0  0  0  0
    7.9806    8.6543   20.5437 C   0  0  0  0  0  0  0  0  0  0  0  0
   13.7270    5.7144   19.8610 O   0  0  0  0  0  0  0  0  0  0  0  0
    8.3351    5.5235   15.4478 C   0  0  0  0  0  0  0  0  0  0  0  0
    8.7700    7.8434   21.3915 C   0  0  0  0  0  0  0  0  0  0  0  0
   11.7856    6.8851   19.2401 C   0  0  0  0  0  0  0  0  0  0  0  0
   10.5281    7.4276   19.5649 C   0  0  0  0  0  0  0  0  0  0  0  0
   10.0256    7.2907   20.8484 C   0  0  0  0  0  0  0  0  0  0  0  0
    9.3113    5.3049   14.4911 C   0  0  0  0  0  0  0  0  0  0  0  0
    9.4607    7.5646   16.0139 C   0  0  0  0  0  0  0  0  0  0  0  0
   10.4192    7.3157   15.0955 C   0  0  0  0  0  0  0  0  0  0  0  0
   10.2489    6.4227   23.0218 N   0  0  0  0  0  0  0  0  0  0  0  0
    7.2472    8.0746   23.5050 C   0  0  0  0  0  0  0  0  0  0  0  0
    9.2051    6.9101   23.4604 C   0  0  0  0  0  0  0  0  0  0  0  0
   11.9646    6.0299   21.4251 C   0  0  0  0  0  0  0  0  0  0  0  0
  1  5  1  0
  1 13  1  0
  2 20  2  0
  2 28  1  0
  2 29  1  0
  3 19  4  0
  3 25  4  0
  4 23  4  0
  4 27  1  0
  4 30  4  0
  5 17  1  0
  6  8  1  0
  6 29  1  0
  7 24  4  0
  7 26  4  0
  8 28  1  0
  9 13  2  0
 10 18  1  0
 10 21  4  0
 10 30  4  0
 11 17  2  0
 12 18  1  0
 13 15  1  0
 14 24  1  0
 15 25  1  0
 16 28  2  0
 17 20  1  0
 19 24  4  0
 20 23  1  0
 21 22  4  0
 22 23  4  0
 25 26  4  0
 27 29  2  0
M  END
$$$$

 Created by Python create_sdf_string function

 30 33  0  0  0  0  0  0  0  0999 V2000
    8.3036    9.8571   18.4133 C   0  0  0  0  0  0  0  0  0  0  0  0
    8.3694    7.6612   22.6703 C   0  0  0  0  0  0  0  0  0  0  0  0
    8.4143    6.6863   16.2273 C   0  0  0  0  0  0  0  0  0  0  0  0
   10.7581    6.5674   21.7636 C   0  0  0  0  0  0  0  0  0  0  0  0
    8.4452    8.7960   19.2958 O   0  0  0  0  0  0  0  0  0  0  0  0
    8.7122    6.7842   24.8569 C   0  0  0  0  0  0  0  0  0  0  0  0
   10.3400    6.1726   14.3081 C   0  0  0  0  0  0  0  0  0  0  0  0
    7.4297    7.5873   24.8962 C   0  0  0  0  0  0  0  0  0  0  0  0
    8.1566   10.0536   16.0516 O   0  0  0  0  0  0  0  0  0  0  0  0
   12.4989    6.2074   20.1776 C   0  0  0  0  0  0  0  0  0  0  0  0
    6.9192    9.1053   20.9073 O   0  0  0  0  0  0  0  0  0  0  0  0
   14.3979    6.0729   18.7784 C   0  0  0  0  0  0  0  0  0  0  0  0
    8.6811    9.5354   16.9998 C   0  0  0  0  0  0  0  0  0  0  0  0
    9.2512    4.2713   13.7653 O   0  0  0  0  0  0  0  0  0  0  0  0
    9.6495    8.6317   16.8332 N   0  0  0  0  0  0  0  0  0  0  0  0
    6.2934    8.6988   23.1988 O   0  0  0  0  0  0  0  0  0  0  0  0
    7.9806    8.6543   20.5437 C   0  0  0  0  0  0  0  0  0  0  0  0
   13.7270    5.7144   19.8610 O   0  0  0  0  0  0  0  0  0  0  0  0
    8.3351    5.5235   15.4478 C   0  0  0  0  0  0  0  0  0  0  0  0
    8.7700    7.8434   21.3915 C   0  0  0  0  0  0  0  0  0  0  0  0
   11.7856    6.8851   19.2401 C   0  0  0  0  0  0  0  0  0  0  0  0
   10.5281    7.4276   19.5649 C   0  0  0  0  0  0  0  0  0  0  0  0
   10.0256    7.2907   20.8484 C   0  0  0  0  0  0  0  0  0  0  0  0
    9.3113    5.3049   14.4911 C   0  0  0  0  0  0  0  0  0  0  0  0
    9.4607    7.5646   16.0139 C   0  0  0  0  0  0  0  0  0  0  0  0
   10.4192    7.3157   15.0955 C   0  0  0  0  0  0  0  0  0  0  0  0
   10.2489    6.4227   23.0218 N   0  0  0  0  0  0  0  0  0  0  0  0
    7.2472    8.0746   23.5050 C   0  0  0  0  0  0  0  0  0  0  0  0
    9.2051    6.9101   23.4604 C   0  0  0  0  0  0  0  0  0  0  0  0
   11.9646    6.0299   21.4251 C   0  0  0  0  0  0  0  0  0  0  0  0
  1  5  1  0
  1 13  1  0
  2 20  2  0
  2 28  1  0
  2 29  1  0
  3 19  4  0
  3 25  4  0
  4 23  4  0
  4 27  1  0
  4 30  4  0
  5 17  1  0
  6  8  1  0
  6 29  1  0
  7 24  4  0
  7 26  4  0
  8 28  1  0
  9 13  2  0
 10 18  1  0
 10 21  4  0
 10 30  4  0
 11 17  2  0
 12 18  1  0
 13 15  1  0
 14 24  1  0
 15 25  1  0
 16 28  2  0
 17 20  1  0
 19 24  4  0
 20 23  1  0
 21 22  4  0
 22 23  4  0
 25 26  4  0
 27 29  2  0
M  END
$$$$

 Created by Python create_sdf_string function

 30 33  0  0  0  0  0  0  0  0999 V2000
    8.3036    9.8571   18.4133 C   0  0  0  0  0  0  0  0  0  0  0  0
    8.3694    7.6612   22.6703 C   0  0  0  0  0  0  0  0  0  0  0  0
    8.4143    6.6863   16.2273 C   0  0  0  0  0  0  0  0  0  0  0  0
   10.7581    6.5674   21.7636 C   0  0  0  0  0  0  0  0  0  0  0  0
    8.4452    8.7960   19.2958 O   0  0  0  0  0  0  0  0  0  0  0  0
    8.7122    6.7842   24.8569 C   0  0  0  0  0  0  0  0  0  0  0  0
   10.3400    6.1726   14.3081 C   0  0  0  0  0  0  0  0  0  0  0  0
    7.4297    7.5873   24.8962 C   0  0  0  0  0  0  0  0  0  0  0  0
    8.1566   10.0536   16.0516 O   0  0  0  0  0  0  0  0  0  0  0  0
   12.4989    6.2074   20.1776 C   0  0  0  0  0  0  0  0  0  0  0  0
    6.9192    9.1053   20.9073 O   0  0  0  0  0  0  0  0  0  0  0  0
   14.3979    6.0729   18.7784 C   0  0  0  0  0  0  0  0  0  0  0  0
    8.6811    9.5354   16.9998 C   0  0  0  0  0  0  0  0  0  0  0  0
    9.2512    4.2713   13.7653 O   0  0  0  0  0  0  0  0  0  0  0  0
    9.6495    8.6317   16.8332 N   0  0  0  0  0  0  0  0  0  0  0  0
    6.2934    8.6988   23.1988 O   0  0  0  0  0  0  0  0  0  0  0  0
    7.9806    8.6543   20.5437 C   0  0  0  0  0  0  0  0  0  0  0  0
   13.7270    5.7144   19.8610 O   0  0  0  0  0  0  0  0  0  0  0  0
    8.3351    5.5235   15.4478 C   0  0  0  0  0  0  0  0  0  0  0  0
    8.7700    7.8434   21.3915 C   0  0  0  0  0  0  0  0  0  0  0  0
   11.7856    6.8851   19.2401 C   0  0  0  0  0  0  0  0  0  0  0  0
   10.5281    7.4276   19.5649 C   0  0  0  0  0  0  0  0  0  0  0  0
   10.0256    7.2907   20.8484 C   0  0  0  0  0  0  0  0  0  0  0  0
    9.3113    5.3049   14.4911 C   0  0  0  0  0  0  0  0  0  0  0  0
    9.4607    7.5646   16.0139 C   0  0  0  0  0  0  0  0  0  0  0  0
   10.4192    7.3157   15.0955 C   0  0  0  0  0  0  0  0  0  0  0  0
   10.2489    6.4227   23.0218 N   0  0  0  0  0  0  0  0  0  0  0  0
    7.2472    8.0746   23.5050 C   0  0  0  0  0  0  0  0  0  0  0  0
    9.2051    6.9101   23.4604 C   0  0  0  0  0  0  0  0  0  0  0  0
   11.9646    6.0299   21.4251 C   0  0  0  0  0  0  0  0  0  0  0  0
  1  5  1  0
  1 13  1  0
  2 20  2  0
  2 28  1  0
  2 29  1  0
  3 19  4  0
  3 25  4  0
  4 23  4  0
  4 27  1  0
  4 30  4  0
  5 17  1  0
  6  8  1  0
  6 29  1  0
  7 24  4  0
  7 26  4  0
  8 28  1  0
  9 13  2  0
 10 18  1  0
 10 21  4  0
 10 30  4  0
 11 17  2  0
 12 18  1  0
 13 15  1  0
 14 24  1  0
 15 25  1  0
 16 28  2  0
 17 20  1  0
 19 24  4  0
 20 23  1  0
 21 22  4  0
 22 23  4  0
 25 26  4  0
 27 29  2  0
M  END
$$$$

 Created by Python create_sdf_string function

 30 33  0  0  0  0  0  0  0  0999 V2000
    8.3036    9.8571   18.4133 C   0  0  0  0  0  0  0  0  0  0  0  0
    8.3694    7.6612   22.6703 C   0  0  0  0  0  0  0  0  0  0  0  0
    8.4143    6.6863   16.2273 C   0  0  0  0  0  0  0  0  0  0  0  0
   10.7581    6.5674   21.7636 C   0  0  0  0  0  0  0  0  0  0  0  0
    8.4452    8.7960   19.2958 O   0  0  0  0  0  0  0  0  0  0  0  0
    8.7122    6.7842   24.8569 C   0  0  0  0  0  0  0  0  0  0  0  0
   10.3400    6.1726   14.3081 C   0  0  0  0  0  0  0  0  0  0  0  0
    7.4297    7.5873   24.8962 C   0  0  0  0  0  0  0  0  0  0  0  0
    8.1566   10.0536   16.0516 O   0  0  0  0  0  0  0  0  0  0  0  0
   12.4989    6.2074   20.1776 C   0  0  0  0  0  0  0  0  0  0  0  0
    6.9192    9.1053   20.9073 O   0  0  0  0  0  0  0  0  0  0  0  0
   14.3979    6.0729   18.7784 C   0  0  0  0  0  0  0  0  0  0  0  0
    8.6811    9.5354   16.9998 C   0  0  0  0  0  0  0  0  0  0  0  0
    9.2512    4.2713   13.7653 O   0  0  0  0  0  0  0  0  0  0  0  0
    9.6495    8.6317   16.8332 N   0  0  0  0  0  0  0  0  0  0  0  0
    6.2934    8.6988   23.1988 O   0  0  0  0  0  0  0  0  0  0  0  0
    7.9806    8.6543   20.5437 C   0  0  0  0  0  0  0  0  0  0  0  0
   13.7270    5.7144   19.8610 O   0  0  0  0  0  0  0  0  0  0  0  0
    8.3351    5.5235   15.4478 C   0  0  0  0  0  0  0  0  0  0  0  0
    8.7700    7.8434   21.3915 C   0  0  0  0  0  0  0  0  0  0  0  0
   11.7856    6.8851   19.2401 C   0  0  0  0  0  0  0  0  0  0  0  0
   10.5281    7.4276   19.5649 C   0  0  0  0  0  0  0  0  0  0  0  0
   10.0256    7.2907   20.8484 C   0  0  0  0  0  0  0  0  0  0  0  0
    9.3113    5.3049   14.4911 C   0  0  0  0  0  0  0  0  0  0  0  0
    9.4607    7.5646   16.0139 C   0  0  0  0  0  0  0  0  0  0  0  0
   10.4192    7.3157   15.0955 C   0  0  0  0  0  0  0  0  0  0  0  0
   10.2489    6.4227   23.0218 N   0  0  0  0  0  0  0  0  0  0  0  0
    7.2472    8.0746   23.5050 C   0  0  0  0  0  0  0  0  0  0  0  0
    9.2051    6.9101   23.4604 C   0  0  0  0  0  0  0  0  0  0  0  0
   11.9646    6.0299   21.4251 C   0  0  0  0  0  0  0  0  0  0  0  0
  1  5  1  0
  1 13  1  0
  2 20  2  0
  2 28  1  0
  2 29  1  0
  3 19  4  0
  3 25  4  0
  4 23  4  0
  4 27  1  0
  4 30  4  0
  5 17  1  0
  6  8  1  0
  6 29  1  0
  7 24  4  0
  7 26  4  0
  8 28  1  0
  9 13  2  0
 10 18  1  0
 10 21  4  0
 10 30  4  0
 11 17  2  0
 12 18  1  0
 13 15  1  0
 14 24  1  0
 15 25  1  0
 16 28  2  0
 17 20  1  0
 19 24  4  0
 20 23  1  0
 21 22  4  0
 22 23  4  0
 25 26  4  0
 27 29  2  0
M  END
$$$$

 Created by Python create_sdf_string function

 30 33  0  0  0  0  0  0  0  0999 V2000
    8.3036    9.8571   18.4133 C   0  0  0  0  0  0  0  0  0  0  0  0
    8.3694    7.6612   22.6703 C   0  0  0  0  0  0  0  0  0  0  0  0
    8.4143    6.6863   16.2273 C   0  0  0  0  0  0  0  0  0  0  0  0
   10.7581    6.5674   21.7636 C   0  0  0  0  0  0  0  0  0  0  0  0
    8.4452    8.7960   19.2958 O   0  0  0  0  0  0  0  0  0  0  0  0
    8.7122    6.7842   24.8569 C   0  0  0  0  0  0  0  0  0  0  0  0
   10.3400    6.1726   14.3081 C   0  0  0  0  0  0  0  0  0  0  0  0
    7.4297    7.5873   24.8962 C   0  0  0  0  0  0  0  0  0  0  0  0
    8.1566   10.0536   16.0516 O   0  0  0  0  0  0  0  0  0  0  0  0
   12.4989    6.2074   20.1776 C   0  0  0  0  0  0  0  0  0  0  0  0
    6.9192    9.1053   20.9073 O   0  0  0  0  0  0  0  0  0  0  0  0
   14.3979    6.0729   18.7784 C   0  0  0  0  0  0  0  0  0  0  0  0
    8.6811    9.5354   16.9998 C   0  0  0  0  0  0  0  0  0  0  0  0
    9.2512    4.2713   13.7653 O   0  0  0  0  0  0  0  0  0  0  0  0
    9.6495    8.6317   16.8332 N   0  0  0  0  0  0  0  0  0  0  0  0
    6.2934    8.6988   23.1988 O   0  0  0  0  0  0  0  0  0  0  0  0
    7.9806    8.6543   20.5437 C   0  0  0  0  0  0  0  0  0  0  0  0
   13.7270    5.7144   19.8610 O   0  0  0  0  0  0  0  0  0  0  0  0
    8.3351    5.5235   15.4478 C   0  0  0  0  0  0  0  0  0  0  0  0
    8.7700    7.8434   21.3915 C   0  0  0  0  0  0  0  0  0  0  0  0
   11.7856    6.8851   19.2401 C   0  0  0  0  0  0  0  0  0  0  0  0
   10.5281    7.4276   19.5649 C   0  0  0  0  0  0  0  0  0  0  0  0
   10.0256    7.2907   20.8484 C   0  0  0  0  0  0  0  0  0  0  0  0
    9.3113    5.3049   14.4911 C   0  0  0  0  0  0  0  0  0  0  0  0
    9.4607    7.5646   16.0139 C   0  0  0  0  0  0  0  0  0  0  0  0
   10.4192    7.3157   15.0955 C   0  0  0  0  0  0  0  0  0  0  0  0
   10.2489    6.4227   23.0218 N   0  0  0  0  0  0  0  0  0  0  0  0
    7.2472    8.0746   23.5050 C   0  0  0  0  0  0  0  0  0  0  0  0
    9.2051    6.9101   23.4604 C   0  0  0  0  0  0  0  0  0  0  0  0
   11.9646    6.0299   21.4251 C   0  0  0  0  0  0  0  0  0  0  0  0
  1  5  1  0
  1 13  1  0
  2 20  2  0
  2 28  1  0
  2 29  1  0
  3 19  4  0
  3 25  4  0
  4 23  4  0
  4 27  1  0
  4 30  4  0
  5 17  1  0
  6  8  1  0
  6 29  1  0
  7 24  4  0
  7 26  4  0
  8 28  1  0
  9 13  2  0
 10 18  1  0
 10 21  4  0
 10 30  4  0
 11 17  2  0
 12 18  1  0
 13 15  1  0
 14 24  1  0
 15 25  1  0
 16 28  2  0
 17 20  1  0
 19 24  4  0
 20 23  1  0
 21 22  4  0
 22 23  4  0
 25 26  4  0
 27 29  2  0
M  END
$$$$

 Created by Python create_sdf_string function

 30 33  0  0  0  0  0  0  0  0999 V2000
    8.3036    9.8571   18.4133 C   0  0  0  0  0  0  0  0  0  0  0  0
    8.3694    7.6612   22.6703 C   0  0  0  0  0  0  0  0  0  0  0  0
    8.4143    6.6863   16.2273 C   0  0  0  0  0  0  0  0  0  0  0  0
   10.7581    6.5674   21.7636 C   0  0  0  0  0  0  0  0  0  0  0  0
    8.4452    8.7960   19.2958 O   0  0  0  0  0  0  0  0  0  0  0  0
    8.7122    6.7842   24.8569 C   0  0  0  0  0  0  0  0  0  0  0  0
   10.3400    6.1726   14.3081 C   0  0  0  0  0  0  0  0  0  0  0  0
    7.4297    7.5873   24.8962 C   0  0  0  0  0  0  0  0  0  0  0  0
    8.1566   10.0536   16.0516 O   0  0  0  0  0  0  0  0  0  0  0  0
   12.4989    6.2074   20.1776 C   0  0  0  0  0  0  0  0  0  0  0  0
    6.9192    9.1053   20.9073 O   0  0  0  0  0  0  0  0  0  0  0  0
   14.3979    6.0729   18.7784 C   0  0  0  0  0  0  0  0  0  0  0  0
    8.6811    9.5354   16.9998 C   0  0  0  0  0  0  0  0  0  0  0  0
    9.2512    4.2713   13.7653 O   0  0  0  0  0  0  0  0  0  0  0  0
    9.6495    8.6317   16.8332 N   0  0  0  0  0  0  0  0  0  0  0  0
    6.2934    8.6988   23.1988 O   0  0  0  0  0  0  0  0  0  0  0  0
    7.9806    8.6543   20.5437 C   0  0  0  0  0  0  0  0  0  0  0  0
   13.7270    5.7144   19.8610 O   0  0  0  0  0  0  0  0  0  0  0  0
    8.3351    5.5235   15.4478 C   0  0  0  0  0  0  0  0  0  0  0  0
    8.7700    7.8434   21.3915 C   0  0  0  0  0  0  0  0  0  0  0  0
   11.7856    6.8851   19.2401 C   0  0  0  0  0  0  0  0  0  0  0  0
   10.5281    7.4276   19.5649 C   0  0  0  0  0  0  0  0  0  0  0  0
   10.0256    7.2907   20.8484 C   0  0  0  0  0  0  0  0  0  0  0  0
    9.3113    5.3049   14.4911 C   0  0  0  0  0  0  0  0  0  0  0  0
    9.4607    7.5646   16.0139 C   0  0  0  0  0  0  0  0  0  0  0  0
   10.4192    7.3157   15.0955 C   0  0  0  0  0  0  0  0  0  0  0  0
   10.2489    6.4227   23.0218 N   0  0  0  0  0  0  0  0  0  0  0  0
    7.2472    8.0746   23.5050 C   0  0  0  0  0  0  0  0  0  0  0  0
    9.2051    6.9101   23.4604 C   0  0  0  0  0  0  0  0  0  0  0  0
   11.9646    6.0299   21.4251 C   0  0  0  0  0  0  0  0  0  0  0  0
  1  5  1  0
  1 13  1  0
  2 20  2  0
  2 28  1  0
  2 29  1  0
  3 19  4  0
  3 25  4  0
  4 23  4  0
  4 27  1  0
  4 30  4  0
  5 17  1  0
  6  8  1  0
  6 29  1  0
  7 24  4  0
  7 26  4  0
  8 28  1  0
  9 13  2  0
 10 18  1  0
 10 21  4  0
 10 30  4  0
 11 17  2  0
 12 18  1  0
 13 15  1  0
 14 24  1  0
 15 25  1  0
 16 28  2  0
 17 20  1  0
 19 24  4  0
 20 23  1  0
 21 22  4  0
 22 23  4  0
 25 26  4  0
 27 29  2  0
M  END
$$$$

 Created by Python create_sdf_string function

 30 33  0  0  0  0  0  0  0  0999 V2000
    8.3036    9.8571   18.4133 C   0  0  0  0  0  0  0  0  0  0  0  0
    8.3694    7.6612   22.6703 C   0  0  0  0  0  0  0  0  0  0  0  0
    8.4143    6.6863   16.2273 C   0  0  0  0  0  0  0  0  0  0  0  0
   10.7581    6.5674   21.7636 C   0  0  0  0  0  0  0  0  0  0  0  0
    8.4452    8.7960   19.2958 O   0  0  0  0  0  0  0  0  0  0  0  0
    8.7122    6.7842   24.8569 C   0  0  0  0  0  0  0  0  0  0  0  0
   10.3400    6.1726   14.3081 C   0  0  0  0  0  0  0  0  0  0  0  0
    7.4297    7.5873   24.8962 C   0  0  0  0  0  0  0  0  0  0  0  0
    8.1566   10.0536   16.0516 O   0  0  0  0  0  0  0  0  0  0  0  0
   12.4989    6.2074   20.1776 C   0  0  0  0  0  0  0  0  0  0  0  0
    6.9192    9.1053   20.9073 O   0  0  0  0  0  0  0  0  0  0  0  0
   14.3979    6.0729   18.7784 C   0  0  0  0  0  0  0  0  0  0  0  0
    8.6811    9.5354   16.9998 C   0  0  0  0  0  0  0  0  0  0  0  0
    9.2512    4.2713   13.7653 O   0  0  0  0  0  0  0  0  0  0  0  0
    9.6495    8.6317   16.8332 N   0  0  0  0  0  0  0  0  0  0  0  0
    6.2934    8.6988   23.1988 O   0  0  0  0  0  0  0  0  0  0  0  0
    7.9806    8.6543   20.5437 C   0  0  0  0  0  0  0  0  0  0  0  0
   13.7270    5.7144   19.8610 O   0  0  0  0  0  0  0  0  0  0  0  0
    8.3351    5.5235   15.4478 C   0  0  0  0  0  0  0  0  0  0  0  0
    8.7700    7.8434   21.3915 C   0  0  0  0  0  0  0  0  0  0  0  0
   11.7856    6.8851   19.2401 C   0  0  0  0  0  0  0  0  0  0  0  0
   10.5281    7.4276   19.5649 C   0  0  0  0  0  0  0  0  0  0  0  0
   10.0256    7.2907   20.8484 C   0  0  0  0  0  0  0  0  0  0  0  0
    9.3113    5.3049   14.4911 C   0  0  0  0  0  0  0  0  0  0  0  0
    9.4607    7.5646   16.0139 C   0  0  0  0  0  0  0  0  0  0  0  0
   10.4192    7.3157   15.0955 C   0  0  0  0  0  0  0  0  0  0  0  0
   10.2489    6.4227   23.0218 N   0  0  0  0  0  0  0  0  0  0  0  0
    7.2472    8.0746   23.5050 C   0  0  0  0  0  0  0  0  0  0  0  0
    9.2051    6.9101   23.4604 C   0  0  0  0  0  0  0  0  0  0  0  0
   11.9646    6.0299   21.4251 C   0  0  0  0  0  0  0  0  0  0  0  0
  1  5  1  0
  1 13  1  0
  2 20  2  0
  2 28  1  0
  2 29  1  0
  3 19  4  0
  3 25  4  0
  4 23  4  0
  4 27  1  0
  4 30  4  0
  5 17  1  0
  6  8  1  0
  6 29  1  0
  7 24  4  0
  7 26  4  0
  8 28  1  0
  9 13  2  0
 10 18  1  0
 10 21  4  0
 10 30  4  0
 11 17  2  0
 12 18  1  0
 13 15  1  0
 14 24  1  0
 15 25  1  0
 16 28  2  0
 17 20  1  0
 19 24  4  0
 20 23  1  0
 21 22  4  0
 22 23  4  0
 25 26  4  0
 27 29  2  0
M  END
$$$$

 Created by Python create_sdf_string function

 30 33  0  0  0  0  0  0  0  0999 V2000
    8.3036    9.8571   18.4133 C   0  0  0  0  0  0  0  0  0  0  0  0
    8.3694    7.6612   22.6703 C   0  0  0  0  0  0  0  0  0  0  0  0
    8.4143    6.6863   16.2273 C   0  0  0  0  0  0  0  0  0  0  0  0
   10.7581    6.5674   21.7636 C   0  0  0  0  0  0  0  0  0  0  0  0
    8.4452    8.7960   19.2958 O   0  0  0  0  0  0  0  0  0  0  0  0
    8.7122    6.7842   24.8569 C   0  0  0  0  0  0  0  0  0  0  0  0
   10.3400    6.1726   14.3081 C   0  0  0  0  0  0  0  0  0  0  0  0
    7.4297    7.5873   24.8962 C   0  0  0  0  0  0  0  0  0  0  0  0
    8.1566   10.0536   16.0516 O   0  0  0  0  0  0  0  0  0  0  0  0
   12.4989    6.2074   20.1776 C   0  0  0  0  0  0  0  0  0  0  0  0
    6.9192    9.1053   20.9073 O   0  0  0  0  0  0  0  0  0  0  0  0
   14.3979    6.0729   18.7784 C   0  0  0  0  0  0  0  0  0  0  0  0
    8.6811    9.5354   16.9998 C   0  0  0  0  0  0  0  0  0  0  0  0
    9.2512    4.2713   13.7653 O   0  0  0  0  0  0  0  0  0  0  0  0
    9.6495    8.6317   16.8332 N   0  0  0  0  0  0  0  0  0  0  0  0
    6.2934    8.6988   23.1988 O   0  0  0  0  0  0  0  0  0  0  0  0
    7.9806    8.6543   20.5437 C   0  0  0  0  0  0  0  0  0  0  0  0
   13.7270    5.7144   19.8610 O   0  0  0  0  0  0  0  0  0  0  0  0
    8.3351    5.5235   15.4478 C   0  0  0  0  0  0  0  0  0  0  0  0
    8.7700    7.8434   21.3915 C   0  0  0  0  0  0  0  0  0  0  0  0
   11.7856    6.8851   19.2401 C   0  0  0  0  0  0  0  0  0  0  0  0
   10.5281    7.4276   19.5649 C   0  0  0  0  0  0  0  0  0  0  0  0
   10.0256    7.2907   20.8484 C   0  0  0  0  0  0  0  0  0  0  0  0
    9.3113    5.3049   14.4911 C   0  0  0  0  0  0  0  0  0  0  0  0
    9.4607    7.5646   16.0139 C   0  0  0  0  0  0  0  0  0  0  0  0
   10.4192    7.3157   15.0955 C   0  0  0  0  0  0  0  0  0  0  0  0
   10.2489    6.4227   23.0218 N   0  0  0  0  0  0  0  0  0  0  0  0
    7.2472    8.0746   23.5050 C   0  0  0  0  0  0  0  0  0  0  0  0
    9.2051    6.9101   23.4604 C   0  0  0  0  0  0  0  0  0  0  0  0
   11.9646    6.0299   21.4251 C   0  0  0  0  0  0  0  0  0  0  0  0
  1  5  1  0
  1 13  1  0
  2 20  2  0
  2 28  1  0
  2 29  1  0
  3 19  4  0
  3 25  4  0
  4 23  4  0
  4 27  1  0
  4 30  4  0
  5 17  1  0
  6  8  1  0
  6 29  1  0
  7 24  4  0
  7 26  4  0
  8 28  1  0
  9 13  2  0
 10 18  1  0
 10 21  4  0
 10 30  4  0
 11 17  2  0
 12 18  1  0
 13 15  1  0
 14 24  1  0
 15 25  1  0
 16 28  2  0
 17 20  1  0
 19 24  4  0
 20 23  1  0
 21 22  4  0
 22 23  4  0
 25 26  4  0
 27 29  2  0
M  END
$$$$

 Created by Python create_sdf_string function

 30 33  0  0  0  0  0  0  0  0999 V2000
    8.3036    9.8571   18.4133 C   0  0  0  0  0  0  0  0  0  0  0  0
    8.3694    7.6612   22.6703 C   0  0  0  0  0  0  0  0  0  0  0  0
    8.4143    6.6863   16.2273 C   0  0  0  0  0  0  0  0  0  0  0  0
   10.7581    6.5674   21.7636 C   0  0  0  0  0  0  0  0  0  0  0  0
    8.4452    8.7960   19.2958 O   0  0  0  0  0  0  0  0  0  0  0  0
    8.7122    6.7842   24.8569 C   0  0  0  0  0  0  0  0  0  0  0  0
   10.3400    6.1726   14.3081 C   0  0  0  0  0  0  0  0  0  0  0  0
    7.4297    7.5873   24.8962 C   0  0  0  0  0  0  0  0  0  0  0  0
    8.1566   10.0536   16.0516 O   0  0  0  0  0  0  0  0  0  0  0  0
   12.4989    6.2074   20.1776 C   0  0  0  0  0  0  0  0  0  0  0  0
    6.9192    9.1053   20.9073 O   0  0  0  0  0  0  0  0  0  0  0  0
   14.3979    6.0729   18.7784 C   0  0  0  0  0  0  0  0  0  0  0  0
    8.6811    9.5354   16.9998 C   0  0  0  0  0  0  0  0  0  0  0  0
    9.2512    4.2713   13.7653 O   0  0  0  0  0  0  0  0  0  0  0  0
    9.6495    8.6317   16.8332 N   0  0  0  0  0  0  0  0  0  0  0  0
    6.2934    8.6988   23.1988 O   0  0  0  0  0  0  0  0  0  0  0  0
    7.9806    8.6543   20.5437 C   0  0  0  0  0  0  0  0  0  0  0  0
   13.7270    5.7144   19.8610 O   0  0  0  0  0  0  0  0  0  0  0  0
    8.3351    5.5235   15.4478 C   0  0  0  0  0  0  0  0  0  0  0  0
    8.7700    7.8434   21.3915 C   0  0  0  0  0  0  0  0  0  0  0  0
   11.7856    6.8851   19.2401 C   0  0  0  0  0  0  0  0  0  0  0  0
   10.5281    7.4276   19.5649 C   0  0  0  0  0  0  0  0  0  0  0  0
   10.0256    7.2907   20.8484 C   0  0  0  0  0  0  0  0  0  0  0  0
    9.3113    5.3049   14.4911 C   0  0  0  0  0  0  0  0  0  0  0  0
    9.4607    7.5646   16.0139 C   0  0  0  0  0  0  0  0  0  0  0  0
   10.4192    7.3157   15.0955 C   0  0  0  0  0  0  0  0  0  0  0  0
   10.2489    6.4227   23.0218 N   0  0  0  0  0  0  0  0  0  0  0  0
    7.2472    8.0746   23.5050 C   0  0  0  0  0  0  0  0  0  0  0  0
    9.2051    6.9101   23.4604 C   0  0  0  0  0  0  0  0  0  0  0  0
   11.9646    6.0299   21.4251 C   0  0  0  0  0  0  0  0  0  0  0  0
  1  5  1  0
  1 13  1  0
  2 20  2  0
  2 28  1  0
  2 29  1  0
  3 19  4  0
  3 25  4  0
  4 23  4  0
  4 27  1  0
  4 30  4  0
  5 17  1  0
  6  8  1  0
  6 29  1  0
  7 24  4  0
  7 26  4  0
  8 28  1  0
  9 13  2  0
 10 18  1  0
 10 21  4  0
 10 30  4  0
 11 17  2  0
 12 18  1  0
 13 15  1  0
 14 24  1  0
 15 25  1  0
 16 28  2  0
 17 20  1  0
 19 24  4  0
 20 23  1  0
 21 22  4  0
 22 23  4  0
 25 26  4  0
 27 29  2  0
M  END
$$$$

 Created by Python create_sdf_string function

 30 33  0  0  0  0  0  0  0  0999 V2000
    8.3036    9.8571   18.4133 C   0  0  0  0  0  0  0  0  0  0  0  0
    8.3694    7.6612   22.6703 C   0  0  0  0  0  0  0  0  0  0  0  0
    8.4143    6.6863   16.2273 C   0  0  0  0  0  0  0  0  0  0  0  0
   10.7581    6.5674   21.7636 C   0  0  0  0  0  0  0  0  0  0  0  0
    8.4452    8.7960   19.2958 O   0  0  0  0  0  0  0  0  0  0  0  0
    8.7122    6.7842   24.8569 C   0  0  0  0  0  0  0  0  0  0  0  0
   10.3400    6.1726   14.3081 C   0  0  0  0  0  0  0  0  0  0  0  0
    7.4297    7.5873   24.8962 C   0  0  0  0  0  0  0  0  0  0  0  0
    8.1566   10.0536   16.0516 O   0  0  0  0  0  0  0  0  0  0  0  0
   12.4989    6.2074   20.1776 C   0  0  0  0  0  0  0  0  0  0  0  0
    6.9192    9.1053   20.9073 O   0  0  0  0  0  0  0  0  0  0  0  0
   14.3979    6.0729   18.7784 C   0  0  0  0  0  0  0  0  0  0  0  0
    8.6811    9.5354   16.9998 C   0  0  0  0  0  0  0  0  0  0  0  0
    9.2512    4.2713   13.7653 O   0  0  0  0  0  0  0  0  0  0  0  0
    9.6495    8.6317   16.8332 N   0  0  0  0  0  0  0  0  0  0  0  0
    6.2934    8.6988   23.1988 O   0  0  0  0  0  0  0  0  0  0  0  0
    7.9806    8.6543   20.5437 C   0  0  0  0  0  0  0  0  0  0  0  0
   13.7270    5.7144   19.8610 O   0  0  0  0  0  0  0  0  0  0  0  0
    8.3351    5.5235   15.4478 C   0  0  0  0  0  0  0  0  0  0  0  0
    8.7700    7.8434   21.3915 C   0  0  0  0  0  0  0  0  0  0  0  0
   11.7856    6.8851   19.2401 C   0  0  0  0  0  0  0  0  0  0  0  0
   10.5281    7.4276   19.5649 C   0  0  0  0  0  0  0  0  0  0  0  0
   10.0256    7.2907   20.8484 C   0  0  0  0  0  0  0  0  0  0  0  0
    9.3113    5.3049   14.4911 C   0  0  0  0  0  0  0  0  0  0  0  0
    9.4607    7.5646   16.0139 C   0  0  0  0  0  0  0  0  0  0  0  0
   10.4192    7.3157   15.0955 C   0  0  0  0  0  0  0  0  0  0  0  0
   10.2489    6.4227   23.0218 N   0  0  0  0  0  0  0  0  0  0  0  0
    7.2472    8.0746   23.5050 C   0  0  0  0  0  0  0  0  0  0  0  0
    9.2051    6.9101   23.4604 C   0  0  0  0  0  0  0  0  0  0  0  0
   11.9646    6.0299   21.4251 C   0  0  0  0  0  0  0  0  0  0  0  0
  1  5  1  0
  1 13  1  0
  2 20  2  0
  2 28  1  0
  2 29  1  0
  3 19  4  0
  3 25  4  0
  4 23  4  0
  4 27  1  0
  4 30  4  0
  5 17  1  0
  6  8  1  0
  6 29  1  0
  7 24  4  0
  7 26  4  0
  8 28  1  0
  9 13  2  0
 10 18  1  0
 10 21  4  0
 10 30  4  0
 11 17  2  0
 12 18  1  0
 13 15  1  0
 14 24  1  0
 15 25  1  0
 16 28  2  0
 17 20  1  0
 19 24  4  0
 20 23  1  0
 21 22  4  0
 22 23  4  0
 25 26  4  0
 27 29  2  0
M  END
$$$$

 Created by Python create_sdf_string function

 30 33  0  0  0  0  0  0  0  0999 V2000
    8.3036    9.8571   18.4133 C   0  0  0  0  0  0  0  0  0  0  0  0
    8.3694    7.6612   22.6703 C   0  0  0  0  0  0  0  0  0  0  0  0
    8.4143    6.6863   16.2273 C   0  0  0  0  0  0  0  0  0  0  0  0
   10.7581    6.5674   21.7636 C   0  0  0  0  0  0  0  0  0  0  0  0
    8.4452    8.7960   19.2958 O   0  0  0  0  0  0  0  0  0  0  0  0
    8.7122    6.7842   24.8569 C   0  0  0  0  0  0  0  0  0  0  0  0
   10.3400    6.1726   14.3081 C   0  0  0  0  0  0  0  0  0  0  0  0
    7.4297    7.5873   24.8962 C   0  0  0  0  0  0  0  0  0  0  0  0
    8.1566   10.0536   16.0516 O   0  0  0  0  0  0  0  0  0  0  0  0
   12.4989    6.2074   20.1776 C   0  0  0  0  0  0  0  0  0  0  0  0
    6.9192    9.1053   20.9073 O   0  0  0  0  0  0  0  0  0  0  0  0
   14.3979    6.0729   18.7784 C   0  0  0  0  0  0  0  0  0  0  0  0
    8.6811    9.5354   16.9998 C   0  0  0  0  0  0  0  0  0  0  0  0
    9.2512    4.2713   13.7653 O   0  0  0  0  0  0  0  0  0  0  0  0
    9.6495    8.6317   16.8332 N   0  0  0  0  0  0  0  0  0  0  0  0
    6.2934    8.6988   23.1988 O   0  0  0  0  0  0  0  0  0  0  0  0
    7.9806    8.6543   20.5437 C   0  0  0  0  0  0  0  0  0  0  0  0
   13.7270    5.7144   19.8610 O   0  0  0  0  0  0  0  0  0  0  0  0
    8.3351    5.5235   15.4478 C   0  0  0  0  0  0  0  0  0  0  0  0
    8.7700    7.8434   21.3915 C   0  0  0  0  0  0  0  0  0  0  0  0
   11.7856    6.8851   19.2401 C   0  0  0  0  0  0  0  0  0  0  0  0
   10.5281    7.4276   19.5649 C   0  0  0  0  0  0  0  0  0  0  0  0
   10.0256    7.2907   20.8484 C   0  0  0  0  0  0  0  0  0  0  0  0
    9.3113    5.3049   14.4911 C   0  0  0  0  0  0  0  0  0  0  0  0
    9.4607    7.5646   16.0139 C   0  0  0  0  0  0  0  0  0  0  0  0
   10.4192    7.3157   15.0955 C   0  0  0  0  0  0  0  0  0  0  0  0
   10.2489    6.4227   23.0218 N   0  0  0  0  0  0  0  0  0  0  0  0
    7.2472    8.0746   23.5050 C   0  0  0  0  0  0  0  0  0  0  0  0
    9.2051    6.9101   23.4604 C   0  0  0  0  0  0  0  0  0  0  0  0
   11.9646    6.0299   21.4251 C   0  0  0  0  0  0  0  0  0  0  0  0
  1  5  1  0
  1 13  1  0
  2 20  2  0
  2 28  1  0
  2 29  1  0
  3 19  4  0
  3 25  4  0
  4 23  4  0
  4 27  1  0
  4 30  4  0
  5 17  1  0
  6  8  1  0
  6 29  1  0
  7 24  4  0
  7 26  4  0
  8 28  1  0
  9 13  2  0
 10 18  1  0
 10 21  4  0
 10 30  4  0
 11 17  2  0
 12 18  1  0
 13 15  1  0
 14 24  1  0
 15 25  1  0
 16 28  2  0
 17 20  1  0
 19 24  4  0
 20 23  1  0
 21 22  4  0
 22 23  4  0
 25 26  4  0
 27 29  2  0
M  END
$$$$

 Created by Python create_sdf_string function

 30 33  0  0  0  0  0  0  0  0999 V2000
    8.3036    9.8571   18.4133 C   0  0  0  0  0  0  0  0  0  0  0  0
    8.3694    7.6612   22.6703 C   0  0  0  0  0  0  0  0  0  0  0  0
    8.4143    6.6863   16.2273 C   0  0  0  0  0  0  0  0  0  0  0  0
   10.7581    6.5674   21.7636 C   0  0  0  0  0  0  0  0  0  0  0  0
    8.4452    8.7960   19.2958 O   0  0  0  0  0  0  0  0  0  0  0  0
    8.7122    6.7842   24.8569 C   0  0  0  0  0  0  0  0  0  0  0  0
   10.3400    6.1726   14.3081 C   0  0  0  0  0  0  0  0  0  0  0  0
    7.4297    7.5873   24.8962 C   0  0  0  0  0  0  0  0  0  0  0  0
    8.1566   10.0536   16.0516 O   0  0  0  0  0  0  0  0  0  0  0  0
   12.4989    6.2074   20.1776 C   0  0  0  0  0  0  0  0  0  0  0  0
    6.9192    9.1053   20.9073 O   0  0  0  0  0  0  0  0  0  0  0  0
   14.3979    6.0729   18.7784 C   0  0  0  0  0  0  0  0  0  0  0  0
    8.6811    9.5354   16.9998 C   0  0  0  0  0  0  0  0  0  0  0  0
    9.2512    4.2713   13.7653 O   0  0  0  0  0  0  0  0  0  0  0  0
    9.6495    8.6317   16.8332 N   0  0  0  0  0  0  0  0  0  0  0  0
    6.2934    8.6988   23.1988 O   0  0  0  0  0  0  0  0  0  0  0  0
    7.9806    8.6543   20.5437 C   0  0  0  0  0  0  0  0  0  0  0  0
   13.7270    5.7144   19.8610 O   0  0  0  0  0  0  0  0  0  0  0  0
    8.3351    5.5235   15.4478 C   0  0  0  0  0  0  0  0  0  0  0  0
    8.7700    7.8434   21.3915 C   0  0  0  0  0  0  0  0  0  0  0  0
   11.7856    6.8851   19.2401 C   0  0  0  0  0  0  0  0  0  0  0  0
   10.5281    7.4276   19.5649 C   0  0  0  0  0  0  0  0  0  0  0  0
   10.0256    7.2907   20.8484 C   0  0  0  0  0  0  0  0  0  0  0  0
    9.3113    5.3049   14.4911 C   0  0  0  0  0  0  0  0  0  0  0  0
    9.4607    7.5646   16.0139 C   0  0  0  0  0  0  0  0  0  0  0  0
   10.4192    7.3157   15.0955 C   0  0  0  0  0  0  0  0  0  0  0  0
   10.2489    6.4227   23.0218 N   0  0  0  0  0  0  0  0  0  0  0  0
    7.2472    8.0746   23.5050 C   0  0  0  0  0  0  0  0  0  0  0  0
    9.2051    6.9101   23.4604 C   0  0  0  0  0  0  0  0  0  0  0  0
   11.9646    6.0299   21.4251 C   0  0  0  0  0  0  0  0  0  0  0  0
  1  5  1  0
  1 13  1  0
  2 20  2  0
  2 28  1  0
  2 29  1  0
  3 19  4  0
  3 25  4  0
  4 23  4  0
  4 27  1  0
  4 30  4  0
  5 17  1  0
  6  8  1  0
  6 29  1  0
  7 24  4  0
  7 26  4  0
  8 28  1  0
  9 13  2  0
 10 18  1  0
 10 21  4  0
 10 30  4  0
 11 17  2  0
 12 18  1  0
 13 15  1  0
 14 24  1  0
 15 25  1  0
 16 28  2  0
 17 20  1  0
 19 24  4  0
 20 23  1  0
 21 22  4  0
 22 23  4  0
 25 26  4  0
 27 29  2  0
M  END
$$$$

 Created by Python create_sdf_string function

 30 33  0  0  0  0  0  0  0  0999 V2000
    8.3036    9.8571   18.4133 C   0  0  0  0  0  0  0  0  0  0  0  0
    8.3694    7.6612   22.6703 C   0  0  0  0  0  0  0  0  0  0  0  0
    8.4143    6.6863   16.2273 C   0  0  0  0  0  0  0  0  0  0  0  0
   10.7581    6.5674   21.7636 C   0  0  0  0  0  0  0  0  0  0  0  0
    8.4452    8.7960   19.2958 O   0  0  0  0  0  0  0  0  0  0  0  0
    8.7122    6.7842   24.8569 C   0  0  0  0  0  0  0  0  0  0  0  0
   10.3400    6.1726   14.3081 C   0  0  0  0  0  0  0  0  0  0  0  0
    7.4297    7.5873   24.8962 C   0  0  0  0  0  0  0  0  0  0  0  0
    8.1566   10.0536   16.0516 O   0  0  0  0  0  0  0  0  0  0  0  0
   12.4989    6.2074   20.1776 C   0  0  0  0  0  0  0  0  0  0  0  0
    6.9192    9.1053   20.9073 O   0  0  0  0  0  0  0  0  0  0  0  0
   14.3979    6.0729   18.7784 C   0  0  0  0  0  0  0  0  0  0  0  0
    8.6811    9.5354   16.9998 C   0  0  0  0  0  0  0  0  0  0  0  0
    9.2512    4.2713   13.7653 O   0  0  0  0  0  0  0  0  0  0  0  0
    9.6495    8.6317   16.8332 N   0  0  0  0  0  0  0  0  0  0  0  0
    6.2934    8.6988   23.1988 O   0  0  0  0  0  0  0  0  0  0  0  0
    7.9806    8.6543   20.5437 C   0  0  0  0  0  0  0  0  0  0  0  0
   13.7270    5.7144   19.8610 O   0  0  0  0  0  0  0  0  0  0  0  0
    8.3351    5.5235   15.4478 C   0  0  0  0  0  0  0  0  0  0  0  0
    8.7700    7.8434   21.3915 C   0  0  0  0  0  0  0  0  0  0  0  0
   11.7856    6.8851   19.2401 C   0  0  0  0  0  0  0  0  0  0  0  0
   10.5281    7.4276   19.5649 C   0  0  0  0  0  0  0  0  0  0  0  0
   10.0256    7.2907   20.8484 C   0  0  0  0  0  0  0  0  0  0  0  0
    9.3113    5.3049   14.4911 C   0  0  0  0  0  0  0  0  0  0  0  0
    9.4607    7.5646   16.0139 C   0  0  0  0  0  0  0  0  0  0  0  0
   10.4192    7.3157   15.0955 C   0  0  0  0  0  0  0  0  0  0  0  0
   10.2489    6.4227   23.0218 N   0  0  0  0  0  0  0  0  0  0  0  0
    7.2472    8.0746   23.5050 C   0  0  0  0  0  0  0  0  0  0  0  0
    9.2051    6.9101   23.4604 C   0  0  0  0  0  0  0  0  0  0  0  0
   11.9646    6.0299   21.4251 C   0  0  0  0  0  0  0  0  0  0  0  0
  1  5  1  0
  1 13  1  0
  2 20  2  0
  2 28  1  0
  2 29  1  0
  3 19  4  0
  3 25  4  0
  4 23  4  0
  4 27  1  0
  4 30  4  0
  5 17  1  0
  6  8  1  0
  6 29  1  0
  7 24  4  0
  7 26  4  0
  8 28  1  0
  9 13  2  0
 10 18  1  0
 10 21  4  0
 10 30  4  0
 11 17  2  0
 12 18  1  0
 13 15  1  0
 14 24  1  0
 15 25  1  0
 16 28  2  0
 17 20  1  0
 19 24  4  0
 20 23  1  0
 21 22  4  0
 22 23  4  0
 25 26  4  0
 27 29  2  0
M  END
$$$$

 Created by Python create_sdf_string function

 30 33  0  0  0  0  0  0  0  0999 V2000
    8.3036    9.8571   18.4133 C   0  0  0  0  0  0  0  0  0  0  0  0
    8.3694    7.6612   22.6703 C   0  0  0  0  0  0  0  0  0  0  0  0
    8.4143    6.6863   16.2273 C   0  0  0  0  0  0  0  0  0  0  0  0
   10.7581    6.5674   21.7636 C   0  0  0  0  0  0  0  0  0  0  0  0
    8.4452    8.7960   19.2958 O   0  0  0  0  0  0  0  0  0  0  0  0
    8.7122    6.7842   24.8569 C   0  0  0  0  0  0  0  0  0  0  0  0
   10.3400    6.1726   14.3081 C   0  0  0  0  0  0  0  0  0  0  0  0
    7.4297    7.5873   24.8962 C   0  0  0  0  0  0  0  0  0  0  0  0
    8.1566   10.0536   16.0516 O   0  0  0  0  0  0  0  0  0  0  0  0
   12.4989    6.2074   20.1776 C   0  0  0  0  0  0  0  0  0  0  0  0
    6.9192    9.1053   20.9073 O   0  0  0  0  0  0  0  0  0  0  0  0
   14.3979    6.0729   18.7784 C   0  0  0  0  0  0  0  0  0  0  0  0
    8.6811    9.5354   16.9998 C   0  0  0  0  0  0  0  0  0  0  0  0
    9.2512    4.2713   13.7653 O   0  0  0  0  0  0  0  0  0  0  0  0
    9.6495    8.6317   16.8332 N   0  0  0  0  0  0  0  0  0  0  0  0
    6.2934    8.6988   23.1988 O   0  0  0  0  0  0  0  0  0  0  0  0
    7.9806    8.6543   20.5437 C   0  0  0  0  0  0  0  0  0  0  0  0
   13.7270    5.7144   19.8610 O   0  0  0  0  0  0  0  0  0  0  0  0
    8.3351    5.5235   15.4478 C   0  0  0  0  0  0  0  0  0  0  0  0
    8.7700    7.8434   21.3915 C   0  0  0  0  0  0  0  0  0  0  0  0
   11.7856    6.8851   19.2401 C   0  0  0  0  0  0  0  0  0  0  0  0
   10.5281    7.4276   19.5649 C   0  0  0  0  0  0  0  0  0  0  0  0
   10.0256    7.2907   20.8484 C   0  0  0  0  0  0  0  0  0  0  0  0
    9.3113    5.3049   14.4911 C   0  0  0  0  0  0  0  0  0  0  0  0
    9.4607    7.5646   16.0139 C   0  0  0  0  0  0  0  0  0  0  0  0
   10.4192    7.3157   15.0955 C   0  0  0  0  0  0  0  0  0  0  0  0
   10.2489    6.4227   23.0218 N   0  0  0  0  0  0  0  0  0  0  0  0
    7.2472    8.0746   23.5050 C   0  0  0  0  0  0  0  0  0  0  0  0
    9.2051    6.9101   23.4604 C   0  0  0  0  0  0  0  0  0  0  0  0
   11.9646    6.0299   21.4251 C   0  0  0  0  0  0  0  0  0  0  0  0
  1  5  1  0
  1 13  1  0
  2 20  2  0
  2 28  1  0
  2 29  1  0
  3 19  4  0
  3 25  4  0
  4 23  4  0
  4 27  1  0
  4 30  4  0
  5 17  1  0
  6  8  1  0
  6 29  1  0
  7 24  4  0
  7 26  4  0
  8 28  1  0
  9 13  2  0
 10 18  1  0
 10 21  4  0
 10 30  4  0
 11 17  2  0
 12 18  1  0
 13 15  1  0
 14 24  1  0
 15 25  1  0
 16 28  2  0
 17 20  1  0
 19 24  4  0
 20 23  1  0
 21 22  4  0
 22 23  4  0
 25 26  4  0
 27 29  2  0
M  END
$$$$

 Created by Python create_sdf_string function

 30 33  0  0  0  0  0  0  0  0999 V2000
    8.3036    9.8571   18.4133 C   0  0  0  0  0  0  0  0  0  0  0  0
    8.3694    7.6612   22.6703 C   0  0  0  0  0  0  0  0  0  0  0  0
    8.4143    6.6863   16.2273 C   0  0  0  0  0  0  0  0  0  0  0  0
   10.7581    6.5674   21.7636 C   0  0  0  0  0  0  0  0  0  0  0  0
    8.4452    8.7960   19.2958 O   0  0  0  0  0  0  0  0  0  0  0  0
    8.7122    6.7842   24.8569 C   0  0  0  0  0  0  0  0  0  0  0  0
   10.3400    6.1726   14.3081 C   0  0  0  0  0  0  0  0  0  0  0  0
    7.4297    7.5873   24.8962 C   0  0  0  0  0  0  0  0  0  0  0  0
    8.1566   10.0536   16.0516 O   0  0  0  0  0  0  0  0  0  0  0  0
   12.4989    6.2074   20.1776 C   0  0  0  0  0  0  0  0  0  0  0  0
    6.9192    9.1053   20.9073 O   0  0  0  0  0  0  0  0  0  0  0  0
   14.3979    6.0729   18.7784 C   0  0  0  0  0  0  0  0  0  0  0  0
    8.6811    9.5354   16.9998 C   0  0  0  0  0  0  0  0  0  0  0  0
    9.2512    4.2713   13.7653 O   0  0  0  0  0  0  0  0  0  0  0  0
    9.6495    8.6317   16.8332 N   0  0  0  0  0  0  0  0  0  0  0  0
    6.2934    8.6988   23.1988 O   0  0  0  0  0  0  0  0  0  0  0  0
    7.9806    8.6543   20.5437 C   0  0  0  0  0  0  0  0  0  0  0  0
   13.7270    5.7144   19.8610 O   0  0  0  0  0  0  0  0  0  0  0  0
    8.3351    5.5235   15.4478 C   0  0  0  0  0  0  0  0  0  0  0  0
    8.7700    7.8434   21.3915 C   0  0  0  0  0  0  0  0  0  0  0  0
   11.7856    6.8851   19.2401 C   0  0  0  0  0  0  0  0  0  0  0  0
   10.5281    7.4276   19.5649 C   0  0  0  0  0  0  0  0  0  0  0  0
   10.0256    7.2907   20.8484 C   0  0  0  0  0  0  0  0  0  0  0  0
    9.3113    5.3049   14.4911 C   0  0  0  0  0  0  0  0  0  0  0  0
    9.4607    7.5646   16.0139 C   0  0  0  0  0  0  0  0  0  0  0  0
   10.4192    7.3157   15.0955 C   0  0  0  0  0  0  0  0  0  0  0  0
   10.2489    6.4227   23.0218 N   0  0  0  0  0  0  0  0  0  0  0  0
    7.2472    8.0746   23.5050 C   0  0  0  0  0  0  0  0  0  0  0  0
    9.2051    6.9101   23.4604 C   0  0  0  0  0  0  0  0  0  0  0  0
   11.9646    6.0299   21.4251 C   0  0  0  0  0  0  0  0  0  0  0  0
  1  5  1  0
  1 13  1  0
  2 20  2  0
  2 28  1  0
  2 29  1  0
  3 19  4  0
  3 25  4  0
  4 23  4  0
  4 27  1  0
  4 30  4  0
  5 17  1  0
  6  8  1  0
  6 29  1  0
  7 24  4  0
  7 26  4  0
  8 28  1  0
  9 13  2  0
 10 18  1  0
 10 21  4  0
 10 30  4  0
 11 17  2  0
 12 18  1  0
 13 15  1  0
 14 24  1  0
 15 25  1  0
 16 28  2  0
 17 20  1  0
 19 24  4  0
 20 23  1  0
 21 22  4  0
 22 23  4  0
 25 26  4  0
 27 29  2  0
M  END
$$$$

 Created by Python create_sdf_string function

 30 33  0  0  0  0  0  0  0  0999 V2000
    8.3036    9.8571   18.4133 C   0  0  0  0  0  0  0  0  0  0  0  0
    8.3694    7.6612   22.6703 C   0  0  0  0  0  0  0  0  0  0  0  0
    8.4143    6.6863   16.2273 C   0  0  0  0  0  0  0  0  0  0  0  0
   10.7581    6.5674   21.7636 C   0  0  0  0  0  0  0  0  0  0  0  0
    8.4452    8.7960   19.2958 O   0  0  0  0  0  0  0  0  0  0  0  0
    8.7122    6.7842   24.8569 C   0  0  0  0  0  0  0  0  0  0  0  0
   10.3400    6.1726   14.3081 C   0  0  0  0  0  0  0  0  0  0  0  0
    7.4297    7.5873   24.8962 C   0  0  0  0  0  0  0  0  0  0  0  0
    8.1566   10.0536   16.0516 O   0  0  0  0  0  0  0  0  0  0  0  0
   12.4989    6.2074   20.1776 C   0  0  0  0  0  0  0  0  0  0  0  0
    6.9192    9.1053   20.9073 O   0  0  0  0  0  0  0  0  0  0  0  0
   14.3979    6.0729   18.7784 C   0  0  0  0  0  0  0  0  0  0  0  0
    8.6811    9.5354   16.9998 C   0  0  0  0  0  0  0  0  0  0  0  0
    9.2512    4.2713   13.7653 O   0  0  0  0  0  0  0  0  0  0  0  0
    9.6495    8.6317   16.8332 N   0  0  0  0  0  0  0  0  0  0  0  0
    6.2934    8.6988   23.1988 O   0  0  0  0  0  0  0  0  0  0  0  0
    7.9806    8.6543   20.5437 C   0  0  0  0  0  0  0  0  0  0  0  0
   13.7270    5.7144   19.8610 O   0  0  0  0  0  0  0  0  0  0  0  0
    8.3351    5.5235   15.4478 C   0  0  0  0  0  0  0  0  0  0  0  0
    8.7700    7.8434   21.3915 C   0  0  0  0  0  0  0  0  0  0  0  0
   11.7856    6.8851   19.2401 C   0  0  0  0  0  0  0  0  0  0  0  0
   10.5281    7.4276   19.5649 C   0  0  0  0  0  0  0  0  0  0  0  0
   10.0256    7.2907   20.8484 C   0  0  0  0  0  0  0  0  0  0  0  0
    9.3113    5.3049   14.4911 C   0  0  0  0  0  0  0  0  0  0  0  0
    9.4607    7.5646   16.0139 C   0  0  0  0  0  0  0  0  0  0  0  0
   10.4192    7.3157   15.0955 C   0  0  0  0  0  0  0  0  0  0  0  0
   10.2489    6.4227   23.0218 N   0  0  0  0  0  0  0  0  0  0  0  0
    7.2472    8.0746   23.5050 C   0  0  0  0  0  0  0  0  0  0  0  0
    9.2051    6.9101   23.4604 C   0  0  0  0  0  0  0  0  0  0  0  0
   11.9646    6.0299   21.4251 C   0  0  0  0  0  0  0  0  0  0  0  0
  1  5  1  0
  1 13  1  0
  2 20  2  0
  2 28  1  0
  2 29  1  0
  3 19  4  0
  3 25  4  0
  4 23  4  0
  4 27  1  0
  4 30  4  0
  5 17  1  0
  6  8  1  0
  6 29  1  0
  7 24  4  0
  7 26  4  0
  8 28  1  0
  9 13  2  0
 10 18  1  0
 10 21  4  0
 10 30  4  0
 11 17  2  0
 12 18  1  0
 13 15  1  0
 14 24  1  0
 15 25  1  0
 16 28  2  0
 17 20  1  0
 19 24  4  0
 20 23  1  0
 21 22  4  0
 22 23  4  0
 25 26  4  0
 27 29  2  0
M  END
$$$$

 Created by Python create_sdf_string function

 30 33  0  0  0  0  0  0  0  0999 V2000
    8.3036    9.8571   18.4133 C   0  0  0  0  0  0  0  0  0  0  0  0
    8.3694    7.6612   22.6703 C   0  0  0  0  0  0  0  0  0  0  0  0
    8.4143    6.6863   16.2273 C   0  0  0  0  0  0  0  0  0  0  0  0
   10.7581    6.5674   21.7636 C   0  0  0  0  0  0  0  0  0  0  0  0
    8.4452    8.7960   19.2958 O   0  0  0  0  0  0  0  0  0  0  0  0
    8.7122    6.7842   24.8569 C   0  0  0  0  0  0  0  0  0  0  0  0
   10.3400    6.1726   14.3081 C   0  0  0  0  0  0  0  0  0  0  0  0
    7.4297    7.5873   24.8962 C   0  0  0  0  0  0  0  0  0  0  0  0
    8.1566   10.0536   16.0516 O   0  0  0  0  0  0  0  0  0  0  0  0
   12.4989    6.2074   20.1776 C   0  0  0  0  0  0  0  0  0  0  0  0
    6.9192    9.1053   20.9073 O   0  0  0  0  0  0  0  0  0  0  0  0
   14.3979    6.0729   18.7784 C   0  0  0  0  0  0  0  0  0  0  0  0
    8.6811    9.5354   16.9998 C   0  0  0  0  0  0  0  0  0  0  0  0
    9.2512    4.2713   13.7653 O   0  0  0  0  0  0  0  0  0  0  0  0
    9.6495    8.6317   16.8332 N   0  0  0  0  0  0  0  0  0  0  0  0
    6.2934    8.6988   23.1988 O   0  0  0  0  0  0  0  0  0  0  0  0
    7.9806    8.6543   20.5437 C   0  0  0  0  0  0  0  0  0  0  0  0
   13.7270    5.7144   19.8610 O   0  0  0  0  0  0  0  0  0  0  0  0
    8.3351    5.5235   15.4478 C   0  0  0  0  0  0  0  0  0  0  0  0
    8.7700    7.8434   21.3915 C   0  0  0  0  0  0  0  0  0  0  0  0
   11.7856    6.8851   19.2401 C   0  0  0  0  0  0  0  0  0  0  0  0
   10.5281    7.4276   19.5649 C   0  0  0  0  0  0  0  0  0  0  0  0
   10.0256    7.2907   20.8484 C   0  0  0  0  0  0  0  0  0  0  0  0
    9.3113    5.3049   14.4911 C   0  0  0  0  0  0  0  0  0  0  0  0
    9.4607    7.5646   16.0139 C   0  0  0  0  0  0  0  0  0  0  0  0
   10.4192    7.3157   15.0955 C   0  0  0  0  0  0  0  0  0  0  0  0
   10.2489    6.4227   23.0218 N   0  0  0  0  0  0  0  0  0  0  0  0
    7.2472    8.0746   23.5050 C   0  0  0  0  0  0  0  0  0  0  0  0
    9.2051    6.9101   23.4604 C   0  0  0  0  0  0  0  0  0  0  0  0
   11.9646    6.0299   21.4251 C   0  0  0  0  0  0  0  0  0  0  0  0
  1  5  1  0
  1 13  1  0
  2 20  2  0
  2 28  1  0
  2 29  1  0
  3 19  4  0
  3 25  4  0
  4 23  4  0
  4 27  1  0
  4 30  4  0
  5 17  1  0
  6  8  1  0
  6 29  1  0
  7 24  4  0
  7 26  4  0
  8 28  1  0
  9 13  2  0
 10 18  1  0
 10 21  4  0
 10 30  4  0
 11 17  2  0
 12 18  1  0
 13 15  1  0
 14 24  1  0
 15 25  1  0
 16 28  2  0
 17 20  1  0
 19 24  4  0
 20 23  1  0
 21 22  4  0
 22 23  4  0
 25 26  4  0
 27 29  2  0
M  END
$$$$

 Created by Python create_sdf_string function

 30 33  0  0  0  0  0  0  0  0999 V2000
    8.3036    9.8571   18.4133 C   0  0  0  0  0  0  0  0  0  0  0  0
    8.3694    7.6612   22.6703 C   0  0  0  0  0  0  0  0  0  0  0  0
    8.4143    6.6863   16.2273 C   0  0  0  0  0  0  0  0  0  0  0  0
   10.7581    6.5674   21.7636 C   0  0  0  0  0  0  0  0  0  0  0  0
    8.4452    8.7960   19.2958 O   0  0  0  0  0  0  0  0  0  0  0  0
    8.7122    6.7842   24.8569 C   0  0  0  0  0  0  0  0  0  0  0  0
   10.3400    6.1726   14.3081 C   0  0  0  0  0  0  0  0  0  0  0  0
    7.4297    7.5873   24.8962 C   0  0  0  0  0  0  0  0  0  0  0  0
    8.1566   10.0536   16.0516 O   0  0  0  0  0  0  0  0  0  0  0  0
   12.4989    6.2074   20.1776 C   0  0  0  0  0  0  0  0  0  0  0  0
    6.9192    9.1053   20.9073 O   0  0  0  0  0  0  0  0  0  0  0  0
   14.3979    6.0729   18.7784 C   0  0  0  0  0  0  0  0  0  0  0  0
    8.6811    9.5354   16.9998 C   0  0  0  0  0  0  0  0  0  0  0  0
    9.2512    4.2713   13.7653 O   0  0  0  0  0  0  0  0  0  0  0  0
    9.6495    8.6317   16.8332 N   0  0  0  0  0  0  0  0  0  0  0  0
    6.2934    8.6988   23.1988 O   0  0  0  0  0  0  0  0  0  0  0  0
    7.9806    8.6543   20.5437 C   0  0  0  0  0  0  0  0  0  0  0  0
   13.7270    5.7144   19.8610 O   0  0  0  0  0  0  0  0  0  0  0  0
    8.3351    5.5235   15.4478 C   0  0  0  0  0  0  0  0  0  0  0  0
    8.7700    7.8434   21.3915 C   0  0  0  0  0  0  0  0  0  0  0  0
   11.7856    6.8851   19.2401 C   0  0  0  0  0  0  0  0  0  0  0  0
   10.5281    7.4276   19.5649 C   0  0  0  0  0  0  0  0  0  0  0  0
   10.0256    7.2907   20.8484 C   0  0  0  0  0  0  0  0  0  0  0  0
    9.3113    5.3049   14.4911 C   0  0  0  0  0  0  0  0  0  0  0  0
    9.4607    7.5646   16.0139 C   0  0  0  0  0  0  0  0  0  0  0  0
   10.4192    7.3157   15.0955 C   0  0  0  0  0  0  0  0  0  0  0  0
   10.2489    6.4227   23.0218 N   0  0  0  0  0  0  0  0  0  0  0  0
    7.2472    8.0746   23.5050 C   0  0  0  0  0  0  0  0  0  0  0  0
    9.2051    6.9101   23.4604 C   0  0  0  0  0  0  0  0  0  0  0  0
   11.9646    6.0299   21.4251 C   0  0  0  0  0  0  0  0  0  0  0  0
  1  5  1  0
  1 13  1  0
  2 20  2  0
  2 28  1  0
  2 29  1  0
  3 19  4  0
  3 25  4  0
  4 23  4  0
  4 27  1  0
  4 30  4  0
  5 17  1  0
  6  8  1  0
  6 29  1  0
  7 24  4  0
  7 26  4  0
  8 28  1  0
  9 13  2  0
 10 18  1  0
 10 21  4  0
 10 30  4  0
 11 17  2  0
 12 18  1  0
 13 15  1  0
 14 24  1  0
 15 25  1  0
 16 28  2  0
 17 20  1  0
 19 24  4  0
 20 23  1  0
 21 22  4  0
 22 23  4  0
 25 26  4  0
 27 29  2  0
M  END
$$$$

 Created by Python create_sdf_string function

 30 33  0  0  0  0  0  0  0  0999 V2000
    8.3036    9.8571   18.4133 C   0  0  0  0  0  0  0  0  0  0  0  0
    8.3694    7.6612   22.6703 C   0  0  0  0  0  0  0  0  0  0  0  0
    8.4143    6.6863   16.2273 C   0  0  0  0  0  0  0  0  0  0  0  0
   10.7581    6.5674   21.7636 C   0  0  0  0  0  0  0  0  0  0  0  0
    8.4452    8.7960   19.2958 O   0  0  0  0  0  0  0  0  0  0  0  0
    8.7122    6.7842   24.8569 C   0  0  0  0  0  0  0  0  0  0  0  0
   10.3400    6.1726   14.3081 C   0  0  0  0  0  0  0  0  0  0  0  0
    7.4297    7.5873   24.8962 C   0  0  0  0  0  0  0  0  0  0  0  0
    8.1566   10.0536   16.0516 O   0  0  0  0  0  0  0  0  0  0  0  0
   12.4989    6.2074   20.1776 C   0  0  0  0  0  0  0  0  0  0  0  0
    6.9192    9.1053   20.9073 O   0  0  0  0  0  0  0  0  0  0  0  0
   14.3979    6.0729   18.7784 C   0  0  0  0  0  0  0  0  0  0  0  0
    8.6811    9.5354   16.9998 C   0  0  0  0  0  0  0  0  0  0  0  0
    9.2512    4.2713   13.7653 O   0  0  0  0  0  0  0  0  0  0  0  0
    9.6495    8.6317   16.8332 N   0  0  0  0  0  0  0  0  0  0  0  0
    6.2934    8.6988   23.1988 O   0  0  0  0  0  0  0  0  0  0  0  0
    7.9806    8.6543   20.5437 C   0  0  0  0  0  0  0  0  0  0  0  0
   13.7270    5.7144   19.8610 O   0  0  0  0  0  0  0  0  0  0  0  0
    8.3351    5.5235   15.4478 C   0  0  0  0  0  0  0  0  0  0  0  0
    8.7700    7.8434   21.3915 C   0  0  0  0  0  0  0  0  0  0  0  0
   11.7856    6.8851   19.2401 C   0  0  0  0  0  0  0  0  0  0  0  0
   10.5281    7.4276   19.5649 C   0  0  0  0  0  0  0  0  0  0  0  0
   10.0256    7.2907   20.8484 C   0  0  0  0  0  0  0  0  0  0  0  0
    9.3113    5.3049   14.4911 C   0  0  0  0  0  0  0  0  0  0  0  0
    9.4607    7.5646   16.0139 C   0  0  0  0  0  0  0  0  0  0  0  0
   10.4192    7.3157   15.0955 C   0  0  0  0  0  0  0  0  0  0  0  0
   10.2489    6.4227   23.0218 N   0  0  0  0  0  0  0  0  0  0  0  0
    7.2472    8.0746   23.5050 C   0  0  0  0  0  0  0  0  0  0  0  0
    9.2051    6.9101   23.4604 C   0  0  0  0  0  0  0  0  0  0  0  0
   11.9646    6.0299   21.4251 C   0  0  0  0  0  0  0  0  0  0  0  0
  1  5  1  0
  1 13  1  0
  2 20  2  0
  2 28  1  0
  2 29  1  0
  3 19  4  0
  3 25  4  0
  4 23  4  0
  4 27  1  0
  4 30  4  0
  5 17  1  0
  6  8  1  0
  6 29  1  0
  7 24  4  0
  7 26  4  0
  8 28  1  0
  9 13  2  0
 10 18  1  0
 10 21  4  0
 10 30  4  0
 11 17  2  0
 12 18  1  0
 13 15  1  0
 14 24  1  0
 15 25  1  0
 16 28  2  0
 17 20  1  0
 19 24  4  0
 20 23  1  0
 21 22  4  0
 22 23  4  0
 25 26  4  0
 27 29  2  0
M  END
$$$$

 Created by Python create_sdf_string function

 30 33  0  0  0  0  0  0  0  0999 V2000
    8.3036    9.8571   18.4133 C   0  0  0  0  0  0  0  0  0  0  0  0
    8.3694    7.6612   22.6703 C   0  0  0  0  0  0  0  0  0  0  0  0
    8.4143    6.6863   16.2273 C   0  0  0  0  0  0  0  0  0  0  0  0
   10.7581    6.5674   21.7636 C   0  0  0  0  0  0  0  0  0  0  0  0
    8.4452    8.7960   19.2958 O   0  0  0  0  0  0  0  0  0  0  0  0
    8.7122    6.7842   24.8569 C   0  0  0  0  0  0  0  0  0  0  0  0
   10.3400    6.1726   14.3081 C   0  0  0  0  0  0  0  0  0  0  0  0
    7.4297    7.5873   24.8962 C   0  0  0  0  0  0  0  0  0  0  0  0
    8.1566   10.0536   16.0516 O   0  0  0  0  0  0  0  0  0  0  0  0
   12.4989    6.2074   20.1776 C   0  0  0  0  0  0  0  0  0  0  0  0
    6.9192    9.1053   20.9073 O   0  0  0  0  0  0  0  0  0  0  0  0
   14.3979    6.0729   18.7784 C   0  0  0  0  0  0  0  0  0  0  0  0
    8.6811    9.5354   16.9998 C   0  0  0  0  0  0  0  0  0  0  0  0
    9.2512    4.2713   13.7653 O   0  0  0  0  0  0  0  0  0  0  0  0
    9.6495    8.6317   16.8332 N   0  0  0  0  0  0  0  0  0  0  0  0
    6.2934    8.6988   23.1988 O   0  0  0  0  0  0  0  0  0  0  0  0
    7.9806    8.6543   20.5437 C   0  0  0  0  0  0  0  0  0  0  0  0
   13.7270    5.7144   19.8610 O   0  0  0  0  0  0  0  0  0  0  0  0
    8.3351    5.5235   15.4478 C   0  0  0  0  0  0  0  0  0  0  0  0
    8.7700    7.8434   21.3915 C   0  0  0  0  0  0  0  0  0  0  0  0
   11.7856    6.8851   19.2401 C   0  0  0  0  0  0  0  0  0  0  0  0
   10.5281    7.4276   19.5649 C   0  0  0  0  0  0  0  0  0  0  0  0
   10.0256    7.2907   20.8484 C   0  0  0  0  0  0  0  0  0  0  0  0
    9.3113    5.3049   14.4911 C   0  0  0  0  0  0  0  0  0  0  0  0
    9.4607    7.5646   16.0139 C   0  0  0  0  0  0  0  0  0  0  0  0
   10.4192    7.3157   15.0955 C   0  0  0  0  0  0  0  0  0  0  0  0
   10.2489    6.4227   23.0218 N   0  0  0  0  0  0  0  0  0  0  0  0
    7.2472    8.0746   23.5050 C   0  0  0  0  0  0  0  0  0  0  0  0
    9.2051    6.9101   23.4604 C   0  0  0  0  0  0  0  0  0  0  0  0
   11.9646    6.0299   21.4251 C   0  0  0  0  0  0  0  0  0  0  0  0
  1  5  1  0
  1 13  1  0
  2 20  2  0
  2 28  1  0
  2 29  1  0
  3 19  4  0
  3 25  4  0
  4 23  4  0
  4 27  1  0
  4 30  4  0
  5 17  1  0
  6  8  1  0
  6 29  1  0
  7 24  4  0
  7 26  4  0
  8 28  1  0
  9 13  2  0
 10 18  1  0
 10 21  4  0
 10 30  4  0
 11 17  2  0
 12 18  1  0
 13 15  1  0
 14 24  1  0
 15 25  1  0
 16 28  2  0
 17 20  1  0
 19 24  4  0
 20 23  1  0
 21 22  4  0
 22 23  4  0
 25 26  4  0
 27 29  2  0
M  END
$$$$

 Created by Python create_sdf_string function

 30 33  0  0  0  0  0  0  0  0999 V2000
    8.3036    9.8571   18.4133 C   0  0  0  0  0  0  0  0  0  0  0  0
    8.3694    7.6612   22.6703 C   0  0  0  0  0  0  0  0  0  0  0  0
    8.4143    6.6863   16.2273 C   0  0  0  0  0  0  0  0  0  0  0  0
   10.7581    6.5674   21.7636 C   0  0  0  0  0  0  0  0  0  0  0  0
    8.4452    8.7960   19.2958 O   0  0  0  0  0  0  0  0  0  0  0  0
    8.7122    6.7842   24.8569 C   0  0  0  0  0  0  0  0  0  0  0  0
   10.3400    6.1726   14.3081 C   0  0  0  0  0  0  0  0  0  0  0  0
    7.4297    7.5873   24.8962 C   0  0  0  0  0  0  0  0  0  0  0  0
    8.1566   10.0536   16.0516 O   0  0  0  0  0  0  0  0  0  0  0  0
   12.4989    6.2074   20.1776 C   0  0  0  0  0  0  0  0  0  0  0  0
    6.9192    9.1053   20.9073 O   0  0  0  0  0  0  0  0  0  0  0  0
   14.3979    6.0729   18.7784 C   0  0  0  0  0  0  0  0  0  0  0  0
    8.6811    9.5354   16.9998 C   0  0  0  0  0  0  0  0  0  0  0  0
    9.2512    4.2713   13.7653 O   0  0  0  0  0  0  0  0  0  0  0  0
    9.6495    8.6317   16.8332 N   0  0  0  0  0  0  0  0  0  0  0  0
    6.2934    8.6988   23.1988 O   0  0  0  0  0  0  0  0  0  0  0  0
    7.9806    8.6543   20.5437 C   0  0  0  0  0  0  0  0  0  0  0  0
   13.7270    5.7144   19.8610 O   0  0  0  0  0  0  0  0  0  0  0  0
    8.3351    5.5235   15.4478 C   0  0  0  0  0  0  0  0  0  0  0  0
    8.7700    7.8434   21.3915 C   0  0  0  0  0  0  0  0  0  0  0  0
   11.7856    6.8851   19.2401 C   0  0  0  0  0  0  0  0  0  0  0  0
   10.5281    7.4276   19.5649 C   0  0  0  0  0  0  0  0  0  0  0  0
   10.0256    7.2907   20.8484 C   0  0  0  0  0  0  0  0  0  0  0  0
    9.3113    5.3049   14.4911 C   0  0  0  0  0  0  0  0  0  0  0  0
    9.4607    7.5646   16.0139 C   0  0  0  0  0  0  0  0  0  0  0  0
   10.4192    7.3157   15.0955 C   0  0  0  0  0  0  0  0  0  0  0  0
   10.2489    6.4227   23.0218 N   0  0  0  0  0  0  0  0  0  0  0  0
    7.2472    8.0746   23.5050 C   0  0  0  0  0  0  0  0  0  0  0  0
    9.2051    6.9101   23.4604 C   0  0  0  0  0  0  0  0  0  0  0  0
   11.9646    6.0299   21.4251 C   0  0  0  0  0  0  0  0  0  0  0  0
  1  5  1  0
  1 13  1  0
  2 20  2  0
  2 28  1  0
  2 29  1  0
  3 19  4  0
  3 25  4  0
  4 23  4  0
  4 27  1  0
  4 30  4  0
  5 17  1  0
  6  8  1  0
  6 29  1  0
  7 24  4  0
  7 26  4  0
  8 28  1  0
  9 13  2  0
 10 18  1  0
 10 21  4  0
 10 30  4  0
 11 17  2  0
 12 18  1  0
 13 15  1  0
 14 24  1  0
 15 25  1  0
 16 28  2  0
 17 20  1  0
 19 24  4  0
 20 23  1  0
 21 22  4  0
 22 23  4  0
 25 26  4  0
 27 29  2  0
M  END
$$$$

 Created by Python create_sdf_string function

 30 33  0  0  0  0  0  0  0  0999 V2000
    8.3036    9.8571   18.4133 C   0  0  0  0  0  0  0  0  0  0  0  0
    8.3694    7.6612   22.6703 C   0  0  0  0  0  0  0  0  0  0  0  0
    8.4143    6.6863   16.2273 C   0  0  0  0  0  0  0  0  0  0  0  0
   10.7581    6.5674   21.7636 C   0  0  0  0  0  0  0  0  0  0  0  0
    8.4452    8.7960   19.2958 O   0  0  0  0  0  0  0  0  0  0  0  0
    8.7122    6.7842   24.8569 C   0  0  0  0  0  0  0  0  0  0  0  0
   10.3400    6.1726   14.3081 C   0  0  0  0  0  0  0  0  0  0  0  0
    7.4297    7.5873   24.8962 C   0  0  0  0  0  0  0  0  0  0  0  0
    8.1566   10.0536   16.0516 O   0  0  0  0  0  0  0  0  0  0  0  0
   12.4989    6.2074   20.1776 C   0  0  0  0  0  0  0  0  0  0  0  0
    6.9192    9.1053   20.9073 O   0  0  0  0  0  0  0  0  0  0  0  0
   14.3979    6.0729   18.7784 C   0  0  0  0  0  0  0  0  0  0  0  0
    8.6811    9.5354   16.9998 C   0  0  0  0  0  0  0  0  0  0  0  0
    9.2512    4.2713   13.7653 O   0  0  0  0  0  0  0  0  0  0  0  0
    9.6495    8.6317   16.8332 N   0  0  0  0  0  0  0  0  0  0  0  0
    6.2934    8.6988   23.1988 O   0  0  0  0  0  0  0  0  0  0  0  0
    7.9806    8.6543   20.5437 C   0  0  0  0  0  0  0  0  0  0  0  0
   13.7270    5.7144   19.8610 O   0  0  0  0  0  0  0  0  0  0  0  0
    8.3351    5.5235   15.4478 C   0  0  0  0  0  0  0  0  0  0  0  0
    8.7700    7.8434   21.3915 C   0  0  0  0  0  0  0  0  0  0  0  0
   11.7856    6.8851   19.2401 C   0  0  0  0  0  0  0  0  0  0  0  0
   10.5281    7.4276   19.5649 C   0  0  0  0  0  0  0  0  0  0  0  0
   10.0256    7.2907   20.8484 C   0  0  0  0  0  0  0  0  0  0  0  0
    9.3113    5.3049   14.4911 C   0  0  0  0  0  0  0  0  0  0  0  0
    9.4607    7.5646   16.0139 C   0  0  0  0  0  0  0  0  0  0  0  0
   10.4192    7.3157   15.0955 C   0  0  0  0  0  0  0  0  0  0  0  0
   10.2489    6.4227   23.0218 N   0  0  0  0  0  0  0  0  0  0  0  0
    7.2472    8.0746   23.5050 C   0  0  0  0  0  0  0  0  0  0  0  0
    9.2051    6.9101   23.4604 C   0  0  0  0  0  0  0  0  0  0  0  0
   11.9646    6.0299   21.4251 C   0  0  0  0  0  0  0  0  0  0  0  0
  1  5  1  0
  1 13  1  0
  2 20  2  0
  2 28  1  0
  2 29  1  0
  3 19  4  0
  3 25  4  0
  4 23  4  0
  4 27  1  0
  4 30  4  0
  5 17  1  0
  6  8  1  0
  6 29  1  0
  7 24  4  0
  7 26  4  0
  8 28  1  0
  9 13  2  0
 10 18  1  0
 10 21  4  0
 10 30  4  0
 11 17  2  0
 12 18  1  0
 13 15  1  0
 14 24  1  0
 15 25  1  0
 16 28  2  0
 17 20  1  0
 19 24  4  0
 20 23  1  0
 21 22  4  0
 22 23  4  0
 25 26  4  0
 27 29  2  0
M  END
$$$$

 Created by Python create_sdf_string function

 30 33  0  0  0  0  0  0  0  0999 V2000
    8.3036    9.8571   18.4133 C   0  0  0  0  0  0  0  0  0  0  0  0
    8.3694    7.6612   22.6703 C   0  0  0  0  0  0  0  0  0  0  0  0
    8.4143    6.6863   16.2273 C   0  0  0  0  0  0  0  0  0  0  0  0
   10.7581    6.5674   21.7636 C   0  0  0  0  0  0  0  0  0  0  0  0
    8.4452    8.7960   19.2958 O   0  0  0  0  0  0  0  0  0  0  0  0
    8.7122    6.7842   24.8569 C   0  0  0  0  0  0  0  0  0  0  0  0
   10.3400    6.1726   14.3081 C   0  0  0  0  0  0  0  0  0  0  0  0
    7.4297    7.5873   24.8962 C   0  0  0  0  0  0  0  0  0  0  0  0
    8.1566   10.0536   16.0516 O   0  0  0  0  0  0  0  0  0  0  0  0
   12.4989    6.2074   20.1776 C   0  0  0  0  0  0  0  0  0  0  0  0
    6.9192    9.1053   20.9073 O   0  0  0  0  0  0  0  0  0  0  0  0
   14.3979    6.0729   18.7784 C   0  0  0  0  0  0  0  0  0  0  0  0
    8.6811    9.5354   16.9998 C   0  0  0  0  0  0  0  0  0  0  0  0
    9.2512    4.2713   13.7653 O   0  0  0  0  0  0  0  0  0  0  0  0
    9.6495    8.6317   16.8332 N   0  0  0  0  0  0  0  0  0  0  0  0
    6.2934    8.6988   23.1988 O   0  0  0  0  0  0  0  0  0  0  0  0
    7.9806    8.6543   20.5437 C   0  0  0  0  0  0  0  0  0  0  0  0
   13.7270    5.7144   19.8610 O   0  0  0  0  0  0  0  0  0  0  0  0
    8.3351    5.5235   15.4478 C   0  0  0  0  0  0  0  0  0  0  0  0
    8.7700    7.8434   21.3915 C   0  0  0  0  0  0  0  0  0  0  0  0
   11.7856    6.8851   19.2401 C   0  0  0  0  0  0  0  0  0  0  0  0
   10.5281    7.4276   19.5649 C   0  0  0  0  0  0  0  0  0  0  0  0
   10.0256    7.2907   20.8484 C   0  0  0  0  0  0  0  0  0  0  0  0
    9.3113    5.3049   14.4911 C   0  0  0  0  0  0  0  0  0  0  0  0
    9.4607    7.5646   16.0139 C   0  0  0  0  0  0  0  0  0  0  0  0
   10.4192    7.3157   15.0955 C   0  0  0  0  0  0  0  0  0  0  0  0
   10.2489    6.4227   23.0218 N   0  0  0  0  0  0  0  0  0  0  0  0
    7.2472    8.0746   23.5050 C   0  0  0  0  0  0  0  0  0  0  0  0
    9.2051    6.9101   23.4604 C   0  0  0  0  0  0  0  0  0  0  0  0
   11.9646    6.0299   21.4251 C   0  0  0  0  0  0  0  0  0  0  0  0
  1  5  1  0
  1 13  1  0
  2 20  2  0
  2 28  1  0
  2 29  1  0
  3 19  4  0
  3 25  4  0
  4 23  4  0
  4 27  1  0
  4 30  4  0
  5 17  1  0
  6  8  1  0
  6 29  1  0
  7 24  4  0
  7 26  4  0
  8 28  1  0
  9 13  2  0
 10 18  1  0
 10 21  4  0
 10 30  4  0
 11 17  2  0
 12 18  1  0
 13 15  1  0
 14 24  1  0
 15 25  1  0
 16 28  2  0
 17 20  1  0
 19 24  4  0
 20 23  1  0
 21 22  4  0
 22 23  4  0
 25 26  4  0
 27 29  2  0
M  END
$$$$

 Created by Python create_sdf_string function

 30 33  0  0  0  0  0  0  0  0999 V2000
    8.3036    9.8571   18.4133 C   0  0  0  0  0  0  0  0  0  0  0  0
    8.3694    7.6612   22.6703 C   0  0  0  0  0  0  0  0  0  0  0  0
    8.4143    6.6863   16.2273 C   0  0  0  0  0  0  0  0  0  0  0  0
   10.7581    6.5674   21.7636 C   0  0  0  0  0  0  0  0  0  0  0  0
    8.4452    8.7960   19.2958 O   0  0  0  0  0  0  0  0  0  0  0  0
    8.7122    6.7842   24.8569 C   0  0  0  0  0  0  0  0  0  0  0  0
   10.3400    6.1726   14.3081 C   0  0  0  0  0  0  0  0  0  0  0  0
    7.4297    7.5873   24.8962 C   0  0  0  0  0  0  0  0  0  0  0  0
    8.1566   10.0536   16.0516 O   0  0  0  0  0  0  0  0  0  0  0  0
   12.4989    6.2074   20.1776 C   0  0  0  0  0  0  0  0  0  0  0  0
    6.9192    9.1053   20.9073 O   0  0  0  0  0  0  0  0  0  0  0  0
   14.3979    6.0729   18.7784 C   0  0  0  0  0  0  0  0  0  0  0  0
    8.6811    9.5354   16.9998 C   0  0  0  0  0  0  0  0  0  0  0  0
    9.2512    4.2713   13.7653 O   0  0  0  0  0  0  0  0  0  0  0  0
    9.6495    8.6317   16.8332 N   0  0  0  0  0  0  0  0  0  0  0  0
    6.2934    8.6988   23.1988 O   0  0  0  0  0  0  0  0  0  0  0  0
    7.9806    8.6543   20.5437 C   0  0  0  0  0  0  0  0  0  0  0  0
   13.7270    5.7144   19.8610 O   0  0  0  0  0  0  0  0  0  0  0  0
    8.3351    5.5235   15.4478 C   0  0  0  0  0  0  0  0  0  0  0  0
    8.7700    7.8434   21.3915 C   0  0  0  0  0  0  0  0  0  0  0  0
   11.7856    6.8851   19.2401 C   0  0  0  0  0  0  0  0  0  0  0  0
   10.5281    7.4276   19.5649 C   0  0  0  0  0  0  0  0  0  0  0  0
   10.0256    7.2907   20.8484 C   0  0  0  0  0  0  0  0  0  0  0  0
    9.3113    5.3049   14.4911 C   0  0  0  0  0  0  0  0  0  0  0  0
    9.4607    7.5646   16.0139 C   0  0  0  0  0  0  0  0  0  0  0  0
   10.4192    7.3157   15.0955 C   0  0  0  0  0  0  0  0  0  0  0  0
   10.2489    6.4227   23.0218 N   0  0  0  0  0  0  0  0  0  0  0  0
    7.2472    8.0746   23.5050 C   0  0  0  0  0  0  0  0  0  0  0  0
    9.2051    6.9101   23.4604 C   0  0  0  0  0  0  0  0  0  0  0  0
   11.9646    6.0299   21.4251 C   0  0  0  0  0  0  0  0  0  0  0  0
  1  5  1  0
  1 13  1  0
  2 20  2  0
  2 28  1  0
  2 29  1  0
  3 19  4  0
  3 25  4  0
  4 23  4  0
  4 27  1  0
  4 30  4  0
  5 17  1  0
  6  8  1  0
  6 29  1  0
  7 24  4  0
  7 26  4  0
  8 28  1  0
  9 13  2  0
 10 18  1  0
 10 21  4  0
 10 30  4  0
 11 17  2  0
 12 18  1  0
 13 15  1  0
 14 24  1  0
 15 25  1  0
 16 28  2  0
 17 20  1  0
 19 24  4  0
 20 23  1  0
 21 22  4  0
 22 23  4  0
 25 26  4  0
 27 29  2  0
M  END
$$$$

 Created by Python create_sdf_string function

 30 33  0  0  0  0  0  0  0  0999 V2000
    8.3036    9.8571   18.4133 C   0  0  0  0  0  0  0  0  0  0  0  0
    8.3694    7.6612   22.6703 C   0  0  0  0  0  0  0  0  0  0  0  0
    8.4143    6.6863   16.2273 C   0  0  0  0  0  0  0  0  0  0  0  0
   10.7581    6.5674   21.7636 C   0  0  0  0  0  0  0  0  0  0  0  0
    8.4452    8.7960   19.2958 O   0  0  0  0  0  0  0  0  0  0  0  0
    8.7122    6.7842   24.8569 C   0  0  0  0  0  0  0  0  0  0  0  0
   10.3400    6.1726   14.3081 C   0  0  0  0  0  0  0  0  0  0  0  0
    7.4297    7.5873   24.8962 C   0  0  0  0  0  0  0  0  0  0  0  0
    8.1566   10.0536   16.0516 O   0  0  0  0  0  0  0  0  0  0  0  0
   12.4989    6.2074   20.1776 C   0  0  0  0  0  0  0  0  0  0  0  0
    6.9192    9.1053   20.9073 O   0  0  0  0  0  0  0  0  0  0  0  0
   14.3979    6.0729   18.7784 C   0  0  0  0  0  0  0  0  0  0  0  0
    8.6811    9.5354   16.9998 C   0  0  0  0  0  0  0  0  0  0  0  0
    9.2512    4.2713   13.7653 O   0  0  0  0  0  0  0  0  0  0  0  0
    9.6495    8.6317   16.8332 N   0  0  0  0  0  0  0  0  0  0  0  0
    6.2934    8.6988   23.1988 O   0  0  0  0  0  0  0  0  0  0  0  0
    7.9806    8.6543   20.5437 C   0  0  0  0  0  0  0  0  0  0  0  0
   13.7270    5.7144   19.8610 O   0  0  0  0  0  0  0  0  0  0  0  0
    8.3351    5.5235   15.4478 C   0  0  0  0  0  0  0  0  0  0  0  0
    8.7700    7.8434   21.3915 C   0  0  0  0  0  0  0  0  0  0  0  0
   11.7856    6.8851   19.2401 C   0  0  0  0  0  0  0  0  0  0  0  0
   10.5281    7.4276   19.5649 C   0  0  0  0  0  0  0  0  0  0  0  0
   10.0256    7.2907   20.8484 C   0  0  0  0  0  0  0  0  0  0  0  0
    9.3113    5.3049   14.4911 C   0  0  0  0  0  0  0  0  0  0  0  0
    9.4607    7.5646   16.0139 C   0  0  0  0  0  0  0  0  0  0  0  0
   10.4192    7.3157   15.0955 C   0  0  0  0  0  0  0  0  0  0  0  0
   10.2489    6.4227   23.0218 N   0  0  0  0  0  0  0  0  0  0  0  0
    7.2472    8.0746   23.5050 C   0  0  0  0  0  0  0  0  0  0  0  0
    9.2051    6.9101   23.4604 C   0  0  0  0  0  0  0  0  0  0  0  0
   11.9646    6.0299   21.4251 C   0  0  0  0  0  0  0  0  0  0  0  0
  1  5  1  0
  1 13  1  0
  2 20  2  0
  2 28  1  0
  2 29  1  0
  3 19  4  0
  3 25  4  0
  4 23  4  0
  4 27  1  0
  4 30  4  0
  5 17  1  0
  6  8  1  0
  6 29  1  0
  7 24  4  0
  7 26  4  0
  8 28  1  0
  9 13  2  0
 10 18  1  0
 10 21  4  0
 10 30  4  0
 11 17  2  0
 12 18  1  0
 13 15  1  0
 14 24  1  0
 15 25  1  0
 16 28  2  0
 17 20  1  0
 19 24  4  0
 20 23  1  0
 21 22  4  0
 22 23  4  0
 25 26  4  0
 27 29  2  0
M  END
$$$$

 Created by Python create_sdf_string function

 30 33  0  0  0  0  0  0  0  0999 V2000
    8.3036    9.8571   18.4133 C   0  0  0  0  0  0  0  0  0  0  0  0
    8.3694    7.6612   22.6703 C   0  0  0  0  0  0  0  0  0  0  0  0
    8.4143    6.6863   16.2273 C   0  0  0  0  0  0  0  0  0  0  0  0
   10.7581    6.5674   21.7636 C   0  0  0  0  0  0  0  0  0  0  0  0
    8.4452    8.7960   19.2958 O   0  0  0  0  0  0  0  0  0  0  0  0
    8.7122    6.7842   24.8569 C   0  0  0  0  0  0  0  0  0  0  0  0
   10.3400    6.1726   14.3081 C   0  0  0  0  0  0  0  0  0  0  0  0
    7.4297    7.5873   24.8962 C   0  0  0  0  0  0  0  0  0  0  0  0
    8.1566   10.0536   16.0516 O   0  0  0  0  0  0  0  0  0  0  0  0
   12.4989    6.2074   20.1776 C   0  0  0  0  0  0  0  0  0  0  0  0
    6.9192    9.1053   20.9073 O   0  0  0  0  0  0  0  0  0  0  0  0
   14.3979    6.0729   18.7784 C   0  0  0  0  0  0  0  0  0  0  0  0
    8.6811    9.5354   16.9998 C   0  0  0  0  0  0  0  0  0  0  0  0
    9.2512    4.2713   13.7653 O   0  0  0  0  0  0  0  0  0  0  0  0
    9.6495    8.6317   16.8332 N   0  0  0  0  0  0  0  0  0  0  0  0
    6.2934    8.6988   23.1988 O   0  0  0  0  0  0  0  0  0  0  0  0
    7.9806    8.6543   20.5437 C   0  0  0  0  0  0  0  0  0  0  0  0
   13.7270    5.7144   19.8610 O   0  0  0  0  0  0  0  0  0  0  0  0
    8.3351    5.5235   15.4478 C   0  0  0  0  0  0  0  0  0  0  0  0
    8.7700    7.8434   21.3915 C   0  0  0  0  0  0  0  0  0  0  0  0
   11.7856    6.8851   19.2401 C   0  0  0  0  0  0  0  0  0  0  0  0
   10.5281    7.4276   19.5649 C   0  0  0  0  0  0  0  0  0  0  0  0
   10.0256    7.2907   20.8484 C   0  0  0  0  0  0  0  0  0  0  0  0
    9.3113    5.3049   14.4911 C   0  0  0  0  0  0  0  0  0  0  0  0
    9.4607    7.5646   16.0139 C   0  0  0  0  0  0  0  0  0  0  0  0
   10.4192    7.3157   15.0955 C   0  0  0  0  0  0  0  0  0  0  0  0
   10.2489    6.4227   23.0218 N   0  0  0  0  0  0  0  0  0  0  0  0
    7.2472    8.0746   23.5050 C   0  0  0  0  0  0  0  0  0  0  0  0
    9.2051    6.9101   23.4604 C   0  0  0  0  0  0  0  0  0  0  0  0
   11.9646    6.0299   21.4251 C   0  0  0  0  0  0  0  0  0  0  0  0
  1  5  1  0
  1 13  1  0
  2 20  2  0
  2 28  1  0
  2 29  1  0
  3 19  4  0
  3 25  4  0
  4 23  4  0
  4 27  1  0
  4 30  4  0
  5 17  1  0
  6  8  1  0
  6 29  1  0
  7 24  4  0
  7 26  4  0
  8 28  1  0
  9 13  2  0
 10 18  1  0
 10 21  4  0
 10 30  4  0
 11 17  2  0
 12 18  1  0
 13 15  1  0
 14 24  1  0
 15 25  1  0
 16 28  2  0
 17 20  1  0
 19 24  4  0
 20 23  1  0
 21 22  4  0
 22 23  4  0
 25 26  4  0
 27 29  2  0
M  END
$$$$

 Created by Python create_sdf_string function

 30 33  0  0  0  0  0  0  0  0999 V2000
    8.3036    9.8571   18.4133 C   0  0  0  0  0  0  0  0  0  0  0  0
    8.3694    7.6612   22.6703 C   0  0  0  0  0  0  0  0  0  0  0  0
    8.4143    6.6863   16.2273 C   0  0  0  0  0  0  0  0  0  0  0  0
   10.7581    6.5674   21.7636 C   0  0  0  0  0  0  0  0  0  0  0  0
    8.4452    8.7960   19.2958 O   0  0  0  0  0  0  0  0  0  0  0  0
    8.7122    6.7842   24.8569 C   0  0  0  0  0  0  0  0  0  0  0  0
   10.3400    6.1726   14.3081 C   0  0  0  0  0  0  0  0  0  0  0  0
    7.4297    7.5873   24.8962 C   0  0  0  0  0  0  0  0  0  0  0  0
    8.1566   10.0536   16.0516 O   0  0  0  0  0  0  0  0  0  0  0  0
   12.4989    6.2074   20.1776 C   0  0  0  0  0  0  0  0  0  0  0  0
    6.9192    9.1053   20.9073 O   0  0  0  0  0  0  0  0  0  0  0  0
   14.3979    6.0729   18.7784 C   0  0  0  0  0  0  0  0  0  0  0  0
    8.6811    9.5354   16.9998 C   0  0  0  0  0  0  0  0  0  0  0  0
    9.2512    4.2713   13.7653 O   0  0  0  0  0  0  0  0  0  0  0  0
    9.6495    8.6317   16.8332 N   0  0  0  0  0  0  0  0  0  0  0  0
    6.2934    8.6988   23.1988 O   0  0  0  0  0  0  0  0  0  0  0  0
    7.9806    8.6543   20.5437 C   0  0  0  0  0  0  0  0  0  0  0  0
   13.7270    5.7144   19.8610 O   0  0  0  0  0  0  0  0  0  0  0  0
    8.3351    5.5235   15.4478 C   0  0  0  0  0  0  0  0  0  0  0  0
    8.7700    7.8434   21.3915 C   0  0  0  0  0  0  0  0  0  0  0  0
   11.7856    6.8851   19.2401 C   0  0  0  0  0  0  0  0  0  0  0  0
   10.5281    7.4276   19.5649 C   0  0  0  0  0  0  0  0  0  0  0  0
   10.0256    7.2907   20.8484 C   0  0  0  0  0  0  0  0  0  0  0  0
    9.3113    5.3049   14.4911 C   0  0  0  0  0  0  0  0  0  0  0  0
    9.4607    7.5646   16.0139 C   0  0  0  0  0  0  0  0  0  0  0  0
   10.4192    7.3157   15.0955 C   0  0  0  0  0  0  0  0  0  0  0  0
   10.2489    6.4227   23.0218 N   0  0  0  0  0  0  0  0  0  0  0  0
    7.2472    8.0746   23.5050 C   0  0  0  0  0  0  0  0  0  0  0  0
    9.2051    6.9101   23.4604 C   0  0  0  0  0  0  0  0  0  0  0  0
   11.9646    6.0299   21.4251 C   0  0  0  0  0  0  0  0  0  0  0  0
  1  5  1  0
  1 13  1  0
  2 20  2  0
  2 28  1  0
  2 29  1  0
  3 19  4  0
  3 25  4  0
  4 23  4  0
  4 27  1  0
  4 30  4  0
  5 17  1  0
  6  8  1  0
  6 29  1  0
  7 24  4  0
  7 26  4  0
  8 28  1  0
  9 13  2  0
 10 18  1  0
 10 21  4  0
 10 30  4  0
 11 17  2  0
 12 18  1  0
 13 15  1  0
 14 24  1  0
 15 25  1  0
 16 28  2  0
 17 20  1  0
 19 24  4  0
 20 23  1  0
 21 22  4  0
 22 23  4  0
 25 26  4  0
 27 29  2  0
M  END
$$$$

 Created by Python create_sdf_string function

 30 33  0  0  0  0  0  0  0  0999 V2000
    8.3036    9.8571   18.4133 C   0  0  0  0  0  0  0  0  0  0  0  0
    8.3694    7.6612   22.6703 C   0  0  0  0  0  0  0  0  0  0  0  0
    8.4143    6.6863   16.2273 C   0  0  0  0  0  0  0  0  0  0  0  0
   10.7581    6.5674   21.7636 C   0  0  0  0  0  0  0  0  0  0  0  0
    8.4452    8.7960   19.2958 O   0  0  0  0  0  0  0  0  0  0  0  0
    8.7122    6.7842   24.8569 C   0  0  0  0  0  0  0  0  0  0  0  0
   10.3400    6.1726   14.3081 C   0  0  0  0  0  0  0  0  0  0  0  0
    7.4297    7.5873   24.8962 C   0  0  0  0  0  0  0  0  0  0  0  0
    8.1566   10.0536   16.0516 O   0  0  0  0  0  0  0  0  0  0  0  0
   12.4989    6.2074   20.1776 C   0  0  0  0  0  0  0  0  0  0  0  0
    6.9192    9.1053   20.9073 O   0  0  0  0  0  0  0  0  0  0  0  0
   14.3979    6.0729   18.7784 C   0  0  0  0  0  0  0  0  0  0  0  0
    8.6811    9.5354   16.9998 C   0  0  0  0  0  0  0  0  0  0  0  0
    9.2512    4.2713   13.7653 O   0  0  0  0  0  0  0  0  0  0  0  0
    9.6495    8.6317   16.8332 N   0  0  0  0  0  0  0  0  0  0  0  0
    6.2934    8.6988   23.1988 O   0  0  0  0  0  0  0  0  0  0  0  0
    7.9806    8.6543   20.5437 C   0  0  0  0  0  0  0  0  0  0  0  0
   13.7270    5.7144   19.8610 O   0  0  0  0  0  0  0  0  0  0  0  0
    8.3351    5.5235   15.4478 C   0  0  0  0  0  0  0  0  0  0  0  0
    8.7700    7.8434   21.3915 C   0  0  0  0  0  0  0  0  0  0  0  0
   11.7856    6.8851   19.2401 C   0  0  0  0  0  0  0  0  0  0  0  0
   10.5281    7.4276   19.5649 C   0  0  0  0  0  0  0  0  0  0  0  0
   10.0256    7.2907   20.8484 C   0  0  0  0  0  0  0  0  0  0  0  0
    9.3113    5.3049   14.4911 C   0  0  0  0  0  0  0  0  0  0  0  0
    9.4607    7.5646   16.0139 C   0  0  0  0  0  0  0  0  0  0  0  0
   10.4192    7.3157   15.0955 C   0  0  0  0  0  0  0  0  0  0  0  0
   10.2489    6.4227   23.0218 N   0  0  0  0  0  0  0  0  0  0  0  0
    7.2472    8.0746   23.5050 C   0  0  0  0  0  0  0  0  0  0  0  0
    9.2051    6.9101   23.4604 C   0  0  0  0  0  0  0  0  0  0  0  0
   11.9646    6.0299   21.4251 C   0  0  0  0  0  0  0  0  0  0  0  0
  1  5  1  0
  1 13  1  0
  2 20  2  0
  2 28  1  0
  2 29  1  0
  3 19  4  0
  3 25  4  0
  4 23  4  0
  4 27  1  0
  4 30  4  0
  5 17  1  0
  6  8  1  0
  6 29  1  0
  7 24  4  0
  7 26  4  0
  8 28  1  0
  9 13  2  0
 10 18  1  0
 10 21  4  0
 10 30  4  0
 11 17  2  0
 12 18  1  0
 13 15  1  0
 14 24  1  0
 15 25  1  0
 16 28  2  0
 17 20  1  0
 19 24  4  0
 20 23  1  0
 21 22  4  0
 22 23  4  0
 25 26  4  0
 27 29  2  0
M  END
$$$$

 Created by Python create_sdf_string function

 30 33  0  0  0  0  0  0  0  0999 V2000
    8.3036    9.8571   18.4133 C   0  0  0  0  0  0  0  0  0  0  0  0
    8.3694    7.6612   22.6703 C   0  0  0  0  0  0  0  0  0  0  0  0
    8.4143    6.6863   16.2273 C   0  0  0  0  0  0  0  0  0  0  0  0
   10.7581    6.5674   21.7636 C   0  0  0  0  0  0  0  0  0  0  0  0
    8.4452    8.7960   19.2958 O   0  0  0  0  0  0  0  0  0  0  0  0
    8.7122    6.7842   24.8569 C   0  0  0  0  0  0  0  0  0  0  0  0
   10.3400    6.1726   14.3081 C   0  0  0  0  0  0  0  0  0  0  0  0
    7.4297    7.5873   24.8962 C   0  0  0  0  0  0  0  0  0  0  0  0
    8.1566   10.0536   16.0516 O   0  0  0  0  0  0  0  0  0  0  0  0
   12.4989    6.2074   20.1776 C   0  0  0  0  0  0  0  0  0  0  0  0
    6.9192    9.1053   20.9073 O   0  0  0  0  0  0  0  0  0  0  0  0
   14.3979    6.0729   18.7784 C   0  0  0  0  0  0  0  0  0  0  0  0
    8.6811    9.5354   16.9998 C   0  0  0  0  0  0  0  0  0  0  0  0
    9.2512    4.2713   13.7653 O   0  0  0  0  0  0  0  0  0  0  0  0
    9.6495    8.6317   16.8332 N   0  0  0  0  0  0  0  0  0  0  0  0
    6.2934    8.6988   23.1988 O   0  0  0  0  0  0  0  0  0  0  0  0
    7.9806    8.6543   20.5437 C   0  0  0  0  0  0  0  0  0  0  0  0
   13.7270    5.7144   19.8610 O   0  0  0  0  0  0  0  0  0  0  0  0
    8.3351    5.5235   15.4478 C   0  0  0  0  0  0  0  0  0  0  0  0
    8.7700    7.8434   21.3915 C   0  0  0  0  0  0  0  0  0  0  0  0
   11.7856    6.8851   19.2401 C   0  0  0  0  0  0  0  0  0  0  0  0
   10.5281    7.4276   19.5649 C   0  0  0  0  0  0  0  0  0  0  0  0
   10.0256    7.2907   20.8484 C   0  0  0  0  0  0  0  0  0  0  0  0
    9.3113    5.3049   14.4911 C   0  0  0  0  0  0  0  0  0  0  0  0
    9.4607    7.5646   16.0139 C   0  0  0  0  0  0  0  0  0  0  0  0
   10.4192    7.3157   15.0955 C   0  0  0  0  0  0  0  0  0  0  0  0
   10.2489    6.4227   23.0218 N   0  0  0  0  0  0  0  0  0  0  0  0
    7.2472    8.0746   23.5050 C   0  0  0  0  0  0  0  0  0  0  0  0
    9.2051    6.9101   23.4604 C   0  0  0  0  0  0  0  0  0  0  0  0
   11.9646    6.0299   21.4251 C   0  0  0  0  0  0  0  0  0  0  0  0
  1  5  1  0
  1 13  1  0
  2 20  2  0
  2 28  1  0
  2 29  1  0
  3 19  4  0
  3 25  4  0
  4 23  4  0
  4 27  1  0
  4 30  4  0
  5 17  1  0
  6  8  1  0
  6 29  1  0
  7 24  4  0
  7 26  4  0
  8 28  1  0
  9 13  2  0
 10 18  1  0
 10 21  4  0
 10 30  4  0
 11 17  2  0
 12 18  1  0
 13 15  1  0
 14 24  1  0
 15 25  1  0
 16 28  2  0
 17 20  1  0
 19 24  4  0
 20 23  1  0
 21 22  4  0
 22 23  4  0
 25 26  4  0
 27 29  2  0
M  END
$$$$

 Created by Python create_sdf_string function

 30 33  0  0  0  0  0  0  0  0999 V2000
    8.3036    9.8571   18.4133 C   0  0  0  0  0  0  0  0  0  0  0  0
    8.3694    7.6612   22.6703 C   0  0  0  0  0  0  0  0  0  0  0  0
    8.4143    6.6863   16.2273 C   0  0  0  0  0  0  0  0  0  0  0  0
   10.7581    6.5674   21.7636 C   0  0  0  0  0  0  0  0  0  0  0  0
    8.4452    8.7960   19.2958 O   0  0  0  0  0  0  0  0  0  0  0  0
    8.7122    6.7842   24.8569 C   0  0  0  0  0  0  0  0  0  0  0  0
   10.3400    6.1726   14.3081 C   0  0  0  0  0  0  0  0  0  0  0  0
    7.4297    7.5873   24.8962 C   0  0  0  0  0  0  0  0  0  0  0  0
    8.1566   10.0536   16.0516 O   0  0  0  0  0  0  0  0  0  0  0  0
   12.4989    6.2074   20.1776 C   0  0  0  0  0  0  0  0  0  0  0  0
    6.9192    9.1053   20.9073 O   0  0  0  0  0  0  0  0  0  0  0  0
   14.3979    6.0729   18.7784 C   0  0  0  0  0  0  0  0  0  0  0  0
    8.6811    9.5354   16.9998 C   0  0  0  0  0  0  0  0  0  0  0  0
    9.2512    4.2713   13.7653 O   0  0  0  0  0  0  0  0  0  0  0  0
    9.6495    8.6317   16.8332 N   0  0  0  0  0  0  0  0  0  0  0  0
    6.2934    8.6988   23.1988 O   0  0  0  0  0  0  0  0  0  0  0  0
    7.9806    8.6543   20.5437 C   0  0  0  0  0  0  0  0  0  0  0  0
   13.7270    5.7144   19.8610 O   0  0  0  0  0  0  0  0  0  0  0  0
    8.3351    5.5235   15.4478 C   0  0  0  0  0  0  0  0  0  0  0  0
    8.7700    7.8434   21.3915 C   0  0  0  0  0  0  0  0  0  0  0  0
   11.7856    6.8851   19.2401 C   0  0  0  0  0  0  0  0  0  0  0  0
   10.5281    7.4276   19.5649 C   0  0  0  0  0  0  0  0  0  0  0  0
   10.0256    7.2907   20.8484 C   0  0  0  0  0  0  0  0  0  0  0  0
    9.3113    5.3049   14.4911 C   0  0  0  0  0  0  0  0  0  0  0  0
    9.4607    7.5646   16.0139 C   0  0  0  0  0  0  0  0  0  0  0  0
   10.4192    7.3157   15.0955 C   0  0  0  0  0  0  0  0  0  0  0  0
   10.2489    6.4227   23.0218 N   0  0  0  0  0  0  0  0  0  0  0  0
    7.2472    8.0746   23.5050 C   0  0  0  0  0  0  0  0  0  0  0  0
    9.2051    6.9101   23.4604 C   0  0  0  0  0  0  0  0  0  0  0  0
   11.9646    6.0299   21.4251 C   0  0  0  0  0  0  0  0  0  0  0  0
  1  5  1  0
  1 13  1  0
  2 20  2  0
  2 28  1  0
  2 29  1  0
  3 19  4  0
  3 25  4  0
  4 23  4  0
  4 27  1  0
  4 30  4  0
  5 17  1  0
  6  8  1  0
  6 29  1  0
  7 24  4  0
  7 26  4  0
  8 28  1  0
  9 13  2  0
 10 18  1  0
 10 21  4  0
 10 30  4  0
 11 17  2  0
 12 18  1  0
 13 15  1  0
 14 24  1  0
 15 25  1  0
 16 28  2  0
 17 20  1  0
 19 24  4  0
 20 23  1  0
 21 22  4  0
 22 23  4  0
 25 26  4  0
 27 29  2  0
M  END
$$$$

 Created by Python create_sdf_string function

 30 33  0  0  0  0  0  0  0  0999 V2000
    8.3036    9.8571   18.4133 C   0  0  0  0  0  0  0  0  0  0  0  0
    8.3694    7.6612   22.6703 C   0  0  0  0  0  0  0  0  0  0  0  0
    8.4143    6.6863   16.2273 C   0  0  0  0  0  0  0  0  0  0  0  0
   10.7581    6.5674   21.7636 C   0  0  0  0  0  0  0  0  0  0  0  0
    8.4452    8.7960   19.2958 O   0  0  0  0  0  0  0  0  0  0  0  0
    8.7122    6.7842   24.8569 C   0  0  0  0  0  0  0  0  0  0  0  0
   10.3400    6.1726   14.3081 C   0  0  0  0  0  0  0  0  0  0  0  0
    7.4297    7.5873   24.8962 C   0  0  0  0  0  0  0  0  0  0  0  0
    8.1566   10.0536   16.0516 O   0  0  0  0  0  0  0  0  0  0  0  0
   12.4989    6.2074   20.1776 C   0  0  0  0  0  0  0  0  0  0  0  0
    6.9192    9.1053   20.9073 O   0  0  0  0  0  0  0  0  0  0  0  0
   14.3979    6.0729   18.7784 C   0  0  0  0  0  0  0  0  0  0  0  0
    8.6811    9.5354   16.9998 C   0  0  0  0  0  0  0  0  0  0  0  0
    9.2512    4.2713   13.7653 O   0  0  0  0  0  0  0  0  0  0  0  0
    9.6495    8.6317   16.8332 N   0  0  0  0  0  0  0  0  0  0  0  0
    6.2934    8.6988   23.1988 O   0  0  0  0  0  0  0  0  0  0  0  0
    7.9806    8.6543   20.5437 C   0  0  0  0  0  0  0  0  0  0  0  0
   13.7270    5.7144   19.8610 O   0  0  0  0  0  0  0  0  0  0  0  0
    8.3351    5.5235   15.4478 C   0  0  0  0  0  0  0  0  0  0  0  0
    8.7700    7.8434   21.3915 C   0  0  0  0  0  0  0  0  0  0  0  0
   11.7856    6.8851   19.2401 C   0  0  0  0  0  0  0  0  0  0  0  0
   10.5281    7.4276   19.5649 C   0  0  0  0  0  0  0  0  0  0  0  0
   10.0256    7.2907   20.8484 C   0  0  0  0  0  0  0  0  0  0  0  0
    9.3113    5.3049   14.4911 C   0  0  0  0  0  0  0  0  0  0  0  0
    9.4607    7.5646   16.0139 C   0  0  0  0  0  0  0  0  0  0  0  0
   10.4192    7.3157   15.0955 C   0  0  0  0  0  0  0  0  0  0  0  0
   10.2489    6.4227   23.0218 N   0  0  0  0  0  0  0  0  0  0  0  0
    7.2472    8.0746   23.5050 C   0  0  0  0  0  0  0  0  0  0  0  0
    9.2051    6.9101   23.4604 C   0  0  0  0  0  0  0  0  0  0  0  0
   11.9646    6.0299   21.4251 C   0  0  0  0  0  0  0  0  0  0  0  0
  1  5  1  0
  1 13  1  0
  2 20  2  0
  2 28  1  0
  2 29  1  0
  3 19  4  0
  3 25  4  0
  4 23  4  0
  4 27  1  0
  4 30  4  0
  5 17  1  0
  6  8  1  0
  6 29  1  0
  7 24  4  0
  7 26  4  0
  8 28  1  0
  9 13  2  0
 10 18  1  0
 10 21  4  0
 10 30  4  0
 11 17  2  0
 12 18  1  0
 13 15  1  0
 14 24  1  0
 15 25  1  0
 16 28  2  0
 17 20  1  0
 19 24  4  0
 20 23  1  0
 21 22  4  0
 22 23  4  0
 25 26  4  0
 27 29  2  0
M  END
$$$$

 Created by Python create_sdf_string function

 30 33  0  0  0  0  0  0  0  0999 V2000
    8.3036    9.8571   18.4133 C   0  0  0  0  0  0  0  0  0  0  0  0
    8.3694    7.6612   22.6703 C   0  0  0  0  0  0  0  0  0  0  0  0
    8.4143    6.6863   16.2273 C   0  0  0  0  0  0  0  0  0  0  0  0
   10.7581    6.5674   21.7636 C   0  0  0  0  0  0  0  0  0  0  0  0
    8.4452    8.7960   19.2958 O   0  0  0  0  0  0  0  0  0  0  0  0
    8.7122    6.7842   24.8569 C   0  0  0  0  0  0  0  0  0  0  0  0
   10.3400    6.1726   14.3081 C   0  0  0  0  0  0  0  0  0  0  0  0
    7.4297    7.5873   24.8962 C   0  0  0  0  0  0  0  0  0  0  0  0
    8.1566   10.0536   16.0516 O   0  0  0  0  0  0  0  0  0  0  0  0
   12.4989    6.2074   20.1776 C   0  0  0  0  0  0  0  0  0  0  0  0
    6.9192    9.1053   20.9073 O   0  0  0  0  0  0  0  0  0  0  0  0
   14.3979    6.0729   18.7784 C   0  0  0  0  0  0  0  0  0  0  0  0
    8.6811    9.5354   16.9998 C   0  0  0  0  0  0  0  0  0  0  0  0
    9.2512    4.2713   13.7653 O   0  0  0  0  0  0  0  0  0  0  0  0
    9.6495    8.6317   16.8332 N   0  0  0  0  0  0  0  0  0  0  0  0
    6.2934    8.6988   23.1988 O   0  0  0  0  0  0  0  0  0  0  0  0
    7.9806    8.6543   20.5437 C   0  0  0  0  0  0  0  0  0  0  0  0
   13.7270    5.7144   19.8610 O   0  0  0  0  0  0  0  0  0  0  0  0
    8.3351    5.5235   15.4478 C   0  0  0  0  0  0  0  0  0  0  0  0
    8.7700    7.8434   21.3915 C   0  0  0  0  0  0  0  0  0  0  0  0
   11.7856    6.8851   19.2401 C   0  0  0  0  0  0  0  0  0  0  0  0
   10.5281    7.4276   19.5649 C   0  0  0  0  0  0  0  0  0  0  0  0
   10.0256    7.2907   20.8484 C   0  0  0  0  0  0  0  0  0  0  0  0
    9.3113    5.3049   14.4911 C   0  0  0  0  0  0  0  0  0  0  0  0
    9.4607    7.5646   16.0139 C   0  0  0  0  0  0  0  0  0  0  0  0
   10.4192    7.3157   15.0955 C   0  0  0  0  0  0  0  0  0  0  0  0
   10.2489    6.4227   23.0218 N   0  0  0  0  0  0  0  0  0  0  0  0
    7.2472    8.0746   23.5050 C   0  0  0  0  0  0  0  0  0  0  0  0
    9.2051    6.9101   23.4604 C   0  0  0  0  0  0  0  0  0  0  0  0
   11.9646    6.0299   21.4251 C   0  0  0  0  0  0  0  0  0  0  0  0
  1  5  1  0
  1 13  1  0
  2 20  2  0
  2 28  1  0
  2 29  1  0
  3 19  4  0
  3 25  4  0
  4 23  4  0
  4 27  1  0
  4 30  4  0
  5 17  1  0
  6  8  1  0
  6 29  1  0
  7 24  4  0
  7 26  4  0
  8 28  1  0
  9 13  2  0
 10 18  1  0
 10 21  4  0
 10 30  4  0
 11 17  2  0
 12 18  1  0
 13 15  1  0
 14 24  1  0
 15 25  1  0
 16 28  2  0
 17 20  1  0
 19 24  4  0
 20 23  1  0
 21 22  4  0
 22 23  4  0
 25 26  4  0
 27 29  2  0
M  END
$$$$

 Created by Python create_sdf_string function

 30 33  0  0  0  0  0  0  0  0999 V2000
    8.3036    9.8571   18.4133 C   0  0  0  0  0  0  0  0  0  0  0  0
    8.3694    7.6612   22.6703 C   0  0  0  0  0  0  0  0  0  0  0  0
    8.4143    6.6863   16.2273 C   0  0  0  0  0  0  0  0  0  0  0  0
   10.7581    6.5674   21.7636 C   0  0  0  0  0  0  0  0  0  0  0  0
    8.4452    8.7960   19.2958 O   0  0  0  0  0  0  0  0  0  0  0  0
    8.7122    6.7842   24.8569 C   0  0  0  0  0  0  0  0  0  0  0  0
   10.3400    6.1726   14.3081 C   0  0  0  0  0  0  0  0  0  0  0  0
    7.4297    7.5873   24.8962 C   0  0  0  0  0  0  0  0  0  0  0  0
    8.1566   10.0536   16.0516 O   0  0  0  0  0  0  0  0  0  0  0  0
   12.4989    6.2074   20.1776 C   0  0  0  0  0  0  0  0  0  0  0  0
    6.9192    9.1053   20.9073 O   0  0  0  0  0  0  0  0  0  0  0  0
   14.3979    6.0729   18.7784 C   0  0  0  0  0  0  0  0  0  0  0  0
    8.6811    9.5354   16.9998 C   0  0  0  0  0  0  0  0  0  0  0  0
    9.2512    4.2713   13.7653 O   0  0  0  0  0  0  0  0  0  0  0  0
    9.6495    8.6317   16.8332 N   0  0  0  0  0  0  0  0  0  0  0  0
    6.2934    8.6988   23.1988 O   0  0  0  0  0  0  0  0  0  0  0  0
    7.9806    8.6543   20.5437 C   0  0  0  0  0  0  0  0  0  0  0  0
   13.7270    5.7144   19.8610 O   0  0  0  0  0  0  0  0  0  0  0  0
    8.3351    5.5235   15.4478 C   0  0  0  0  0  0  0  0  0  0  0  0
    8.7700    7.8434   21.3915 C   0  0  0  0  0  0  0  0  0  0  0  0
   11.7856    6.8851   19.2401 C   0  0  0  0  0  0  0  0  0  0  0  0
   10.5281    7.4276   19.5649 C   0  0  0  0  0  0  0  0  0  0  0  0
   10.0256    7.2907   20.8484 C   0  0  0  0  0  0  0  0  0  0  0  0
    9.3113    5.3049   14.4911 C   0  0  0  0  0  0  0  0  0  0  0  0
    9.4607    7.5646   16.0139 C   0  0  0  0  0  0  0  0  0  0  0  0
   10.4192    7.3157   15.0955 C   0  0  0  0  0  0  0  0  0  0  0  0
   10.2489    6.4227   23.0218 N   0  0  0  0  0  0  0  0  0  0  0  0
    7.2472    8.0746   23.5050 C   0  0  0  0  0  0  0  0  0  0  0  0
    9.2051    6.9101   23.4604 C   0  0  0  0  0  0  0  0  0  0  0  0
   11.9646    6.0299   21.4251 C   0  0  0  0  0  0  0  0  0  0  0  0
  1  5  1  0
  1 13  1  0
  2 20  2  0
  2 28  1  0
  2 29  1  0
  3 19  4  0
  3 25  4  0
  4 23  4  0
  4 27  1  0
  4 30  4  0
  5 17  1  0
  6  8  1  0
  6 29  1  0
  7 24  4  0
  7 26  4  0
  8 28  1  0
  9 13  2  0
 10 18  1  0
 10 21  4  0
 10 30  4  0
 11 17  2  0
 12 18  1  0
 13 15  1  0
 14 24  1  0
 15 25  1  0
 16 28  2  0
 17 20  1  0
 19 24  4  0
 20 23  1  0
 21 22  4  0
 22 23  4  0
 25 26  4  0
 27 29  2  0
M  END
$$$$

 Created by Python create_sdf_string function

 30 33  0  0  0  0  0  0  0  0999 V2000
    8.3036    9.8571   18.4133 C   0  0  0  0  0  0  0  0  0  0  0  0
    8.3694    7.6612   22.6703 C   0  0  0  0  0  0  0  0  0  0  0  0
    8.4143    6.6863   16.2273 C   0  0  0  0  0  0  0  0  0  0  0  0
   10.7581    6.5674   21.7636 C   0  0  0  0  0  0  0  0  0  0  0  0
    8.4452    8.7960   19.2958 O   0  0  0  0  0  0  0  0  0  0  0  0
    8.7122    6.7842   24.8569 C   0  0  0  0  0  0  0  0  0  0  0  0
   10.3400    6.1726   14.3081 C   0  0  0  0  0  0  0  0  0  0  0  0
    7.4297    7.5873   24.8962 C   0  0  0  0  0  0  0  0  0  0  0  0
    8.1566   10.0536   16.0516 O   0  0  0  0  0  0  0  0  0  0  0  0
   12.4989    6.2074   20.1776 C   0  0  0  0  0  0  0  0  0  0  0  0
    6.9192    9.1053   20.9073 O   0  0  0  0  0  0  0  0  0  0  0  0
   14.3979    6.0729   18.7784 C   0  0  0  0  0  0  0  0  0  0  0  0
    8.6811    9.5354   16.9998 C   0  0  0  0  0  0  0  0  0  0  0  0
    9.2512    4.2713   13.7653 O   0  0  0  0  0  0  0  0  0  0  0  0
    9.6495    8.6317   16.8332 N   0  0  0  0  0  0  0  0  0  0  0  0
    6.2934    8.6988   23.1988 O   0  0  0  0  0  0  0  0  0  0  0  0
    7.9806    8.6543   20.5437 C   0  0  0  0  0  0  0  0  0  0  0  0
   13.7270    5.7144   19.8610 O   0  0  0  0  0  0  0  0  0  0  0  0
    8.3351    5.5235   15.4478 C   0  0  0  0  0  0  0  0  0  0  0  0
    8.7700    7.8434   21.3915 C   0  0  0  0  0  0  0  0  0  0  0  0
   11.7856    6.8851   19.2401 C   0  0  0  0  0  0  0  0  0  0  0  0
   10.5281    7.4276   19.5649 C   0  0  0  0  0  0  0  0  0  0  0  0
   10.0256    7.2907   20.8484 C   0  0  0  0  0  0  0  0  0  0  0  0
    9.3113    5.3049   14.4911 C   0  0  0  0  0  0  0  0  0  0  0  0
    9.4607    7.5646   16.0139 C   0  0  0  0  0  0  0  0  0  0  0  0
   10.4192    7.3157   15.0955 C   0  0  0  0  0  0  0  0  0  0  0  0
   10.2489    6.4227   23.0218 N   0  0  0  0  0  0  0  0  0  0  0  0
    7.2472    8.0746   23.5050 C   0  0  0  0  0  0  0  0  0  0  0  0
    9.2051    6.9101   23.4604 C   0  0  0  0  0  0  0  0  0  0  0  0
   11.9646    6.0299   21.4251 C   0  0  0  0  0  0  0  0  0  0  0  0
  1  5  1  0
  1 13  1  0
  2 20  2  0
  2 28  1  0
  2 29  1  0
  3 19  4  0
  3 25  4  0
  4 23  4  0
  4 27  1  0
  4 30  4  0
  5 17  1  0
  6  8  1  0
  6 29  1  0
  7 24  4  0
  7 26  4  0
  8 28  1  0
  9 13  2  0
 10 18  1  0
 10 21  4  0
 10 30  4  0
 11 17  2  0
 12 18  1  0
 13 15  1  0
 14 24  1  0
 15 25  1  0
 16 28  2  0
 17 20  1  0
 19 24  4  0
 20 23  1  0
 21 22  4  0
 22 23  4  0
 25 26  4  0
 27 29  2  0
M  END
$$$$

 Created by Python create_sdf_string function

 30 33  0  0  0  0  0  0  0  0999 V2000
    8.3036    9.8571   18.4133 C   0  0  0  0  0  0  0  0  0  0  0  0
    8.3694    7.6612   22.6703 C   0  0  0  0  0  0  0  0  0  0  0  0
    8.4143    6.6863   16.2273 C   0  0  0  0  0  0  0  0  0  0  0  0
   10.7581    6.5674   21.7636 C   0  0  0  0  0  0  0  0  0  0  0  0
    8.4452    8.7960   19.2958 O   0  0  0  0  0  0  0  0  0  0  0  0
    8.7122    6.7842   24.8569 C   0  0  0  0  0  0  0  0  0  0  0  0
   10.3400    6.1726   14.3081 C   0  0  0  0  0  0  0  0  0  0  0  0
    7.4297    7.5873   24.8962 C   0  0  0  0  0  0  0  0  0  0  0  0
    8.1566   10.0536   16.0516 O   0  0  0  0  0  0  0  0  0  0  0  0
   12.4989    6.2074   20.1776 C   0  0  0  0  0  0  0  0  0  0  0  0
    6.9192    9.1053   20.9073 O   0  0  0  0  0  0  0  0  0  0  0  0
   14.3979    6.0729   18.7784 C   0  0  0  0  0  0  0  0  0  0  0  0
    8.6811    9.5354   16.9998 C   0  0  0  0  0  0  0  0  0  0  0  0
    9.2512    4.2713   13.7653 O   0  0  0  0  0  0  0  0  0  0  0  0
    9.6495    8.6317   16.8332 N   0  0  0  0  0  0  0  0  0  0  0  0
    6.2934    8.6988   23.1988 O   0  0  0  0  0  0  0  0  0  0  0  0
    7.9806    8.6543   20.5437 C   0  0  0  0  0  0  0  0  0  0  0  0
   13.7270    5.7144   19.8610 O   0  0  0  0  0  0  0  0  0  0  0  0
    8.3351    5.5235   15.4478 C   0  0  0  0  0  0  0  0  0  0  0  0
    8.7700    7.8434   21.3915 C   0  0  0  0  0  0  0  0  0  0  0  0
   11.7856    6.8851   19.2401 C   0  0  0  0  0  0  0  0  0  0  0  0
   10.5281    7.4276   19.5649 C   0  0  0  0  0  0  0  0  0  0  0  0
   10.0256    7.2907   20.8484 C   0  0  0  0  0  0  0  0  0  0  0  0
    9.3113    5.3049   14.4911 C   0  0  0  0  0  0  0  0  0  0  0  0
    9.4607    7.5646   16.0139 C   0  0  0  0  0  0  0  0  0  0  0  0
   10.4192    7.3157   15.0955 C   0  0  0  0  0  0  0  0  0  0  0  0
   10.2489    6.4227   23.0218 N   0  0  0  0  0  0  0  0  0  0  0  0
    7.2472    8.0746   23.5050 C   0  0  0  0  0  0  0  0  0  0  0  0
    9.2051    6.9101   23.4604 C   0  0  0  0  0  0  0  0  0  0  0  0
   11.9646    6.0299   21.4251 C   0  0  0  0  0  0  0  0  0  0  0  0
  1  5  1  0
  1 13  1  0
  2 20  2  0
  2 28  1  0
  2 29  1  0
  3 19  4  0
  3 25  4  0
  4 23  4  0
  4 27  1  0
  4 30  4  0
  5 17  1  0
  6  8  1  0
  6 29  1  0
  7 24  4  0
  7 26  4  0
  8 28  1  0
  9 13  2  0
 10 18  1  0
 10 21  4  0
 10 30  4  0
 11 17  2  0
 12 18  1  0
 13 15  1  0
 14 24  1  0
 15 25  1  0
 16 28  2  0
 17 20  1  0
 19 24  4  0
 20 23  1  0
 21 22  4  0
 22 23  4  0
 25 26  4  0
 27 29  2  0
M  END
$$$$

 Created by Python create_sdf_string function

 30 33  0  0  0  0  0  0  0  0999 V2000
    8.3036    9.8571   18.4133 C   0  0  0  0  0  0  0  0  0  0  0  0
    8.3694    7.6612   22.6703 C   0  0  0  0  0  0  0  0  0  0  0  0
    8.4143    6.6863   16.2273 C   0  0  0  0  0  0  0  0  0  0  0  0
   10.7581    6.5674   21.7636 C   0  0  0  0  0  0  0  0  0  0  0  0
    8.4452    8.7960   19.2958 O   0  0  0  0  0  0  0  0  0  0  0  0
    8.7122    6.7842   24.8569 C   0  0  0  0  0  0  0  0  0  0  0  0
   10.3400    6.1726   14.3081 C   0  0  0  0  0  0  0  0  0  0  0  0
    7.4297    7.5873   24.8962 C   0  0  0  0  0  0  0  0  0  0  0  0
    8.1566   10.0536   16.0516 O   0  0  0  0  0  0  0  0  0  0  0  0
   12.4989    6.2074   20.1776 C   0  0  0  0  0  0  0  0  0  0  0  0
    6.9192    9.1053   20.9073 O   0  0  0  0  0  0  0  0  0  0  0  0
   14.3979    6.0729   18.7784 C   0  0  0  0  0  0  0  0  0  0  0  0
    8.6811    9.5354   16.9998 C   0  0  0  0  0  0  0  0  0  0  0  0
    9.2512    4.2713   13.7653 O   0  0  0  0  0  0  0  0  0  0  0  0
    9.6495    8.6317   16.8332 N   0  0  0  0  0  0  0  0  0  0  0  0
    6.2934    8.6988   23.1988 O   0  0  0  0  0  0  0  0  0  0  0  0
    7.9806    8.6543   20.5437 C   0  0  0  0  0  0  0  0  0  0  0  0
   13.7270    5.7144   19.8610 O   0  0  0  0  0  0  0  0  0  0  0  0
    8.3351    5.5235   15.4478 C   0  0  0  0  0  0  0  0  0  0  0  0
    8.7700    7.8434   21.3915 C   0  0  0  0  0  0  0  0  0  0  0  0
   11.7856    6.8851   19.2401 C   0  0  0  0  0  0  0  0  0  0  0  0
   10.5281    7.4276   19.5649 C   0  0  0  0  0  0  0  0  0  0  0  0
   10.0256    7.2907   20.8484 C   0  0  0  0  0  0  0  0  0  0  0  0
    9.3113    5.3049   14.4911 C   0  0  0  0  0  0  0  0  0  0  0  0
    9.4607    7.5646   16.0139 C   0  0  0  0  0  0  0  0  0  0  0  0
   10.4192    7.3157   15.0955 C   0  0  0  0  0  0  0  0  0  0  0  0
   10.2489    6.4227   23.0218 N   0  0  0  0  0  0  0  0  0  0  0  0
    7.2472    8.0746   23.5050 C   0  0  0  0  0  0  0  0  0  0  0  0
    9.2051    6.9101   23.4604 C   0  0  0  0  0  0  0  0  0  0  0  0
   11.9646    6.0299   21.4251 C   0  0  0  0  0  0  0  0  0  0  0  0
  1  5  1  0
  1 13  1  0
  2 20  2  0
  2 28  1  0
  2 29  1  0
  3 19  4  0
  3 25  4  0
  4 23  4  0
  4 27  1  0
  4 30  4  0
  5 17  1  0
  6  8  1  0
  6 29  1  0
  7 24  4  0
  7 26  4  0
  8 28  1  0
  9 13  2  0
 10 18  1  0
 10 21  4  0
 10 30  4  0
 11 17  2  0
 12 18  1  0
 13 15  1  0
 14 24  1  0
 15 25  1  0
 16 28  2  0
 17 20  1  0
 19 24  4  0
 20 23  1  0
 21 22  4  0
 22 23  4  0
 25 26  4  0
 27 29  2  0
M  END
$$$$

 Created by Python create_sdf_string function

 30 33  0  0  0  0  0  0  0  0999 V2000
    8.3036    9.8571   18.4133 C   0  0  0  0  0  0  0  0  0  0  0  0
    8.3694    7.6612   22.6703 C   0  0  0  0  0  0  0  0  0  0  0  0
    8.4143    6.6863   16.2273 C   0  0  0  0  0  0  0  0  0  0  0  0
   10.7581    6.5674   21.7636 C   0  0  0  0  0  0  0  0  0  0  0  0
    8.4452    8.7960   19.2958 O   0  0  0  0  0  0  0  0  0  0  0  0
    8.7122    6.7842   24.8569 C   0  0  0  0  0  0  0  0  0  0  0  0
   10.3400    6.1726   14.3081 C   0  0  0  0  0  0  0  0  0  0  0  0
    7.4297    7.5873   24.8962 C   0  0  0  0  0  0  0  0  0  0  0  0
    8.1566   10.0536   16.0516 O   0  0  0  0  0  0  0  0  0  0  0  0
   12.4989    6.2074   20.1776 C   0  0  0  0  0  0  0  0  0  0  0  0
    6.9192    9.1053   20.9073 O   0  0  0  0  0  0  0  0  0  0  0  0
   14.3979    6.0729   18.7784 C   0  0  0  0  0  0  0  0  0  0  0  0
    8.6811    9.5354   16.9998 C   0  0  0  0  0  0  0  0  0  0  0  0
    9.2512    4.2713   13.7653 O   0  0  0  0  0  0  0  0  0  0  0  0
    9.6495    8.6317   16.8332 N   0  0  0  0  0  0  0  0  0  0  0  0
    6.2934    8.6988   23.1988 O   0  0  0  0  0  0  0  0  0  0  0  0
    7.9806    8.6543   20.5437 C   0  0  0  0  0  0  0  0  0  0  0  0
   13.7270    5.7144   19.8610 O   0  0  0  0  0  0  0  0  0  0  0  0
    8.3351    5.5235   15.4478 C   0  0  0  0  0  0  0  0  0  0  0  0
    8.7700    7.8434   21.3915 C   0  0  0  0  0  0  0  0  0  0  0  0
   11.7856    6.8851   19.2401 C   0  0  0  0  0  0  0  0  0  0  0  0
   10.5281    7.4276   19.5649 C   0  0  0  0  0  0  0  0  0  0  0  0
   10.0256    7.2907   20.8484 C   0  0  0  0  0  0  0  0  0  0  0  0
    9.3113    5.3049   14.4911 C   0  0  0  0  0  0  0  0  0  0  0  0
    9.4607    7.5646   16.0139 C   0  0  0  0  0  0  0  0  0  0  0  0
   10.4192    7.3157   15.0955 C   0  0  0  0  0  0  0  0  0  0  0  0
   10.2489    6.4227   23.0218 N   0  0  0  0  0  0  0  0  0  0  0  0
    7.2472    8.0746   23.5050 C   0  0  0  0  0  0  0  0  0  0  0  0
    9.2051    6.9101   23.4604 C   0  0  0  0  0  0  0  0  0  0  0  0
   11.9646    6.0299   21.4251 C   0  0  0  0  0  0  0  0  0  0  0  0
  1  5  1  0
  1 13  1  0
  2 20  2  0
  2 28  1  0
  2 29  1  0
  3 19  4  0
  3 25  4  0
  4 23  4  0
  4 27  1  0
  4 30  4  0
  5 17  1  0
  6  8  1  0
  6 29  1  0
  7 24  4  0
  7 26  4  0
  8 28  1  0
  9 13  2  0
 10 18  1  0
 10 21  4  0
 10 30  4  0
 11 17  2  0
 12 18  1  0
 13 15  1  0
 14 24  1  0
 15 25  1  0
 16 28  2  0
 17 20  1  0
 19 24  4  0
 20 23  1  0
 21 22  4  0
 22 23  4  0
 25 26  4  0
 27 29  2  0
M  END
$$$$

 Created by Python create_sdf_string function

 30 33  0  0  0  0  0  0  0  0999 V2000
    8.3036    9.8571   18.4133 C   0  0  0  0  0  0  0  0  0  0  0  0
    8.3694    7.6612   22.6703 C   0  0  0  0  0  0  0  0  0  0  0  0
    8.4143    6.6863   16.2273 C   0  0  0  0  0  0  0  0  0  0  0  0
   10.7581    6.5674   21.7636 C   0  0  0  0  0  0  0  0  0  0  0  0
    8.4452    8.7960   19.2958 O   0  0  0  0  0  0  0  0  0  0  0  0
    8.7122    6.7842   24.8569 C   0  0  0  0  0  0  0  0  0  0  0  0
   10.3400    6.1726   14.3081 C   0  0  0  0  0  0  0  0  0  0  0  0
    7.4297    7.5873   24.8962 C   0  0  0  0  0  0  0  0  0  0  0  0
    8.1566   10.0536   16.0516 O   0  0  0  0  0  0  0  0  0  0  0  0
   12.4989    6.2074   20.1776 C   0  0  0  0  0  0  0  0  0  0  0  0
    6.9192    9.1053   20.9073 O   0  0  0  0  0  0  0  0  0  0  0  0
   14.3979    6.0729   18.7784 C   0  0  0  0  0  0  0  0  0  0  0  0
    8.6811    9.5354   16.9998 C   0  0  0  0  0  0  0  0  0  0  0  0
    9.2512    4.2713   13.7653 O   0  0  0  0  0  0  0  0  0  0  0  0
    9.6495    8.6317   16.8332 N   0  0  0  0  0  0  0  0  0  0  0  0
    6.2934    8.6988   23.1988 O   0  0  0  0  0  0  0  0  0  0  0  0
    7.9806    8.6543   20.5437 C   0  0  0  0  0  0  0  0  0  0  0  0
   13.7270    5.7144   19.8610 O   0  0  0  0  0  0  0  0  0  0  0  0
    8.3351    5.5235   15.4478 C   0  0  0  0  0  0  0  0  0  0  0  0
    8.7700    7.8434   21.3915 C   0  0  0  0  0  0  0  0  0  0  0  0
   11.7856    6.8851   19.2401 C   0  0  0  0  0  0  0  0  0  0  0  0
   10.5281    7.4276   19.5649 C   0  0  0  0  0  0  0  0  0  0  0  0
   10.0256    7.2907   20.8484 C   0  0  0  0  0  0  0  0  0  0  0  0
    9.3113    5.3049   14.4911 C   0  0  0  0  0  0  0  0  0  0  0  0
    9.4607    7.5646   16.0139 C   0  0  0  0  0  0  0  0  0  0  0  0
   10.4192    7.3157   15.0955 C   0  0  0  0  0  0  0  0  0  0  0  0
   10.2489    6.4227   23.0218 N   0  0  0  0  0  0  0  0  0  0  0  0
    7.2472    8.0746   23.5050 C   0  0  0  0  0  0  0  0  0  0  0  0
    9.2051    6.9101   23.4604 C   0  0  0  0  0  0  0  0  0  0  0  0
   11.9646    6.0299   21.4251 C   0  0  0  0  0  0  0  0  0  0  0  0
  1  5  1  0
  1 13  1  0
  2 20  2  0
  2 28  1  0
  2 29  1  0
  3 19  4  0
  3 25  4  0
  4 23  4  0
  4 27  1  0
  4 30  4  0
  5 17  1  0
  6  8  1  0
  6 29  1  0
  7 24  4  0
  7 26  4  0
  8 28  1  0
  9 13  2  0
 10 18  1  0
 10 21  4  0
 10 30  4  0
 11 17  2  0
 12 18  1  0
 13 15  1  0
 14 24  1  0
 15 25  1  0
 16 28  2  0
 17 20  1  0
 19 24  4  0
 20 23  1  0
 21 22  4  0
 22 23  4  0
 25 26  4  0
 27 29  2  0
M  END
$$$$

 Created by Python create_sdf_string function

 30 33  0  0  0  0  0  0  0  0999 V2000
    8.3036    9.8571   18.4133 C   0  0  0  0  0  0  0  0  0  0  0  0
    8.3694    7.6612   22.6703 C   0  0  0  0  0  0  0  0  0  0  0  0
    8.4143    6.6863   16.2273 C   0  0  0  0  0  0  0  0  0  0  0  0
   10.7581    6.5674   21.7636 C   0  0  0  0  0  0  0  0  0  0  0  0
    8.4452    8.7960   19.2958 O   0  0  0  0  0  0  0  0  0  0  0  0
    8.7122    6.7842   24.8569 C   0  0  0  0  0  0  0  0  0  0  0  0
   10.3400    6.1726   14.3081 C   0  0  0  0  0  0  0  0  0  0  0  0
    7.4297    7.5873   24.8962 C   0  0  0  0  0  0  0  0  0  0  0  0
    8.1566   10.0536   16.0516 O   0  0  0  0  0  0  0  0  0  0  0  0
   12.4989    6.2074   20.1776 C   0  0  0  0  0  0  0  0  0  0  0  0
    6.9192    9.1053   20.9073 O   0  0  0  0  0  0  0  0  0  0  0  0
   14.3979    6.0729   18.7784 C   0  0  0  0  0  0  0  0  0  0  0  0
    8.6811    9.5354   16.9998 C   0  0  0  0  0  0  0  0  0  0  0  0
    9.2512    4.2713   13.7653 O   0  0  0  0  0  0  0  0  0  0  0  0
    9.6495    8.6317   16.8332 N   0  0  0  0  0  0  0  0  0  0  0  0
    6.2934    8.6988   23.1988 O   0  0  0  0  0  0  0  0  0  0  0  0
    7.9806    8.6543   20.5437 C   0  0  0  0  0  0  0  0  0  0  0  0
   13.7270    5.7144   19.8610 O   0  0  0  0  0  0  0  0  0  0  0  0
    8.3351    5.5235   15.4478 C   0  0  0  0  0  0  0  0  0  0  0  0
    8.7700    7.8434   21.3915 C   0  0  0  0  0  0  0  0  0  0  0  0
   11.7856    6.8851   19.2401 C   0  0  0  0  0  0  0  0  0  0  0  0
   10.5281    7.4276   19.5649 C   0  0  0  0  0  0  0  0  0  0  0  0
   10.0256    7.2907   20.8484 C   0  0  0  0  0  0  0  0  0  0  0  0
    9.3113    5.3049   14.4911 C   0  0  0  0  0  0  0  0  0  0  0  0
    9.4607    7.5646   16.0139 C   0  0  0  0  0  0  0  0  0  0  0  0
   10.4192    7.3157   15.0955 C   0  0  0  0  0  0  0  0  0  0  0  0
   10.2489    6.4227   23.0218 N   0  0  0  0  0  0  0  0  0  0  0  0
    7.2472    8.0746   23.5050 C   0  0  0  0  0  0  0  0  0  0  0  0
    9.2051    6.9101   23.4604 C   0  0  0  0  0  0  0  0  0  0  0  0
   11.9646    6.0299   21.4251 C   0  0  0  0  0  0  0  0  0  0  0  0
  1  5  1  0
  1 13  1  0
  2 20  2  0
  2 28  1  0
  2 29  1  0
  3 19  4  0
  3 25  4  0
  4 23  4  0
  4 27  1  0
  4 30  4  0
  5 17  1  0
  6  8  1  0
  6 29  1  0
  7 24  4  0
  7 26  4  0
  8 28  1  0
  9 13  2  0
 10 18  1  0
 10 21  4  0
 10 30  4  0
 11 17  2  0
 12 18  1  0
 13 15  1  0
 14 24  1  0
 15 25  1  0
 16 28  2  0
 17 20  1  0
 19 24  4  0
 20 23  1  0
 21 22  4  0
 22 23  4  0
 25 26  4  0
 27 29  2  0
M  END
$$$$

 Created by Python create_sdf_string function

 30 33  0  0  0  0  0  0  0  0999 V2000
    8.3036    9.8571   18.4133 C   0  0  0  0  0  0  0  0  0  0  0  0
    8.3694    7.6612   22.6703 C   0  0  0  0  0  0  0  0  0  0  0  0
    8.4143    6.6863   16.2273 C   0  0  0  0  0  0  0  0  0  0  0  0
   10.7581    6.5674   21.7636 C   0  0  0  0  0  0  0  0  0  0  0  0
    8.4452    8.7960   19.2958 O   0  0  0  0  0  0  0  0  0  0  0  0
    8.7122    6.7842   24.8569 C   0  0  0  0  0  0  0  0  0  0  0  0
   10.3400    6.1726   14.3081 C   0  0  0  0  0  0  0  0  0  0  0  0
    7.4297    7.5873   24.8962 C   0  0  0  0  0  0  0  0  0  0  0  0
    8.1566   10.0536   16.0516 O   0  0  0  0  0  0  0  0  0  0  0  0
   12.4989    6.2074   20.1776 C   0  0  0  0  0  0  0  0  0  0  0  0
    6.9192    9.1053   20.9073 O   0  0  0  0  0  0  0  0  0  0  0  0
   14.3979    6.0729   18.7784 C   0  0  0  0  0  0  0  0  0  0  0  0
    8.6811    9.5354   16.9998 C   0  0  0  0  0  0  0  0  0  0  0  0
    9.2512    4.2713   13.7653 O   0  0  0  0  0  0  0  0  0  0  0  0
    9.6495    8.6317   16.8332 N   0  0  0  0  0  0  0  0  0  0  0  0
    6.2934    8.6988   23.1988 O   0  0  0  0  0  0  0  0  0  0  0  0
    7.9806    8.6543   20.5437 C   0  0  0  0  0  0  0  0  0  0  0  0
   13.7270    5.7144   19.8610 O   0  0  0  0  0  0  0  0  0  0  0  0
    8.3351    5.5235   15.4478 C   0  0  0  0  0  0  0  0  0  0  0  0
    8.7700    7.8434   21.3915 C   0  0  0  0  0  0  0  0  0  0  0  0
   11.7856    6.8851   19.2401 C   0  0  0  0  0  0  0  0  0  0  0  0
   10.5281    7.4276   19.5649 C   0  0  0  0  0  0  0  0  0  0  0  0
   10.0256    7.2907   20.8484 C   0  0  0  0  0  0  0  0  0  0  0  0
    9.3113    5.3049   14.4911 C   0  0  0  0  0  0  0  0  0  0  0  0
    9.4607    7.5646   16.0139 C   0  0  0  0  0  0  0  0  0  0  0  0
   10.4192    7.3157   15.0955 C   0  0  0  0  0  0  0  0  0  0  0  0
   10.2489    6.4227   23.0218 N   0  0  0  0  0  0  0  0  0  0  0  0
    7.2472    8.0746   23.5050 C   0  0  0  0  0  0  0  0  0  0  0  0
    9.2051    6.9101   23.4604 C   0  0  0  0  0  0  0  0  0  0  0  0
   11.9646    6.0299   21.4251 C   0  0  0  0  0  0  0  0  0  0  0  0
  1  5  1  0
  1 13  1  0
  2 20  2  0
  2 28  1  0
  2 29  1  0
  3 19  4  0
  3 25  4  0
  4 23  4  0
  4 27  1  0
  4 30  4  0
  5 17  1  0
  6  8  1  0
  6 29  1  0
  7 24  4  0
  7 26  4  0
  8 28  1  0
  9 13  2  0
 10 18  1  0
 10 21  4  0
 10 30  4  0
 11 17  2  0
 12 18  1  0
 13 15  1  0
 14 24  1  0
 15 25  1  0
 16 28  2  0
 17 20  1  0
 19 24  4  0
 20 23  1  0
 21 22  4  0
 22 23  4  0
 25 26  4  0
 27 29  2  0
M  END
$$$$

 Created by Python create_sdf_string function

 30 33  0  0  0  0  0  0  0  0999 V2000
    8.3036    9.8571   18.4133 C   0  0  0  0  0  0  0  0  0  0  0  0
    8.3694    7.6612   22.6703 C   0  0  0  0  0  0  0  0  0  0  0  0
    8.4143    6.6863   16.2273 C   0  0  0  0  0  0  0  0  0  0  0  0
   10.7581    6.5674   21.7636 C   0  0  0  0  0  0  0  0  0  0  0  0
    8.4452    8.7960   19.2958 O   0  0  0  0  0  0  0  0  0  0  0  0
    8.7122    6.7842   24.8569 C   0  0  0  0  0  0  0  0  0  0  0  0
   10.3400    6.1726   14.3081 C   0  0  0  0  0  0  0  0  0  0  0  0
    7.4297    7.5873   24.8962 C   0  0  0  0  0  0  0  0  0  0  0  0
    8.1566   10.0536   16.0516 O   0  0  0  0  0  0  0  0  0  0  0  0
   12.4989    6.2074   20.1776 C   0  0  0  0  0  0  0  0  0  0  0  0
    6.9192    9.1053   20.9073 O   0  0  0  0  0  0  0  0  0  0  0  0
   14.3979    6.0729   18.7784 C   0  0  0  0  0  0  0  0  0  0  0  0
    8.6811    9.5354   16.9998 C   0  0  0  0  0  0  0  0  0  0  0  0
    9.2512    4.2713   13.7653 O   0  0  0  0  0  0  0  0  0  0  0  0
    9.6495    8.6317   16.8332 N   0  0  0  0  0  0  0  0  0  0  0  0
    6.2934    8.6988   23.1988 O   0  0  0  0  0  0  0  0  0  0  0  0
    7.9806    8.6543   20.5437 C   0  0  0  0  0  0  0  0  0  0  0  0
   13.7270    5.7144   19.8610 O   0  0  0  0  0  0  0  0  0  0  0  0
    8.3351    5.5235   15.4478 C   0  0  0  0  0  0  0  0  0  0  0  0
    8.7700    7.8434   21.3915 C   0  0  0  0  0  0  0  0  0  0  0  0
   11.7856    6.8851   19.2401 C   0  0  0  0  0  0  0  0  0  0  0  0
   10.5281    7.4276   19.5649 C   0  0  0  0  0  0  0  0  0  0  0  0
   10.0256    7.2907   20.8484 C   0  0  0  0  0  0  0  0  0  0  0  0
    9.3113    5.3049   14.4911 C   0  0  0  0  0  0  0  0  0  0  0  0
    9.4607    7.5646   16.0139 C   0  0  0  0  0  0  0  0  0  0  0  0
   10.4192    7.3157   15.0955 C   0  0  0  0  0  0  0  0  0  0  0  0
   10.2489    6.4227   23.0218 N   0  0  0  0  0  0  0  0  0  0  0  0
    7.2472    8.0746   23.5050 C   0  0  0  0  0  0  0  0  0  0  0  0
    9.2051    6.9101   23.4604 C   0  0  0  0  0  0  0  0  0  0  0  0
   11.9646    6.0299   21.4251 C   0  0  0  0  0  0  0  0  0  0  0  0
  1  5  1  0
  1 13  1  0
  2 20  2  0
  2 28  1  0
  2 29  1  0
  3 19  4  0
  3 25  4  0
  4 23  4  0
  4 27  1  0
  4 30  4  0
  5 17  1  0
  6  8  1  0
  6 29  1  0
  7 24  4  0
  7 26  4  0
  8 28  1  0
  9 13  2  0
 10 18  1  0
 10 21  4  0
 10 30  4  0
 11 17  2  0
 12 18  1  0
 13 15  1  0
 14 24  1  0
 15 25  1  0
 16 28  2  0
 17 20  1  0
 19 24  4  0
 20 23  1  0
 21 22  4  0
 22 23  4  0
 25 26  4  0
 27 29  2  0
M  END
$$$$

 Created by Python create_sdf_string function

 30 33  0  0  0  0  0  0  0  0999 V2000
    8.3036    9.8571   18.4133 C   0  0  0  0  0  0  0  0  0  0  0  0
    8.3694    7.6612   22.6703 C   0  0  0  0  0  0  0  0  0  0  0  0
    8.4143    6.6863   16.2273 C   0  0  0  0  0  0  0  0  0  0  0  0
   10.7581    6.5674   21.7636 C   0  0  0  0  0  0  0  0  0  0  0  0
    8.4452    8.7960   19.2958 O   0  0  0  0  0  0  0  0  0  0  0  0
    8.7122    6.7842   24.8569 C   0  0  0  0  0  0  0  0  0  0  0  0
   10.3400    6.1726   14.3081 C   0  0  0  0  0  0  0  0  0  0  0  0
    7.4297    7.5873   24.8962 C   0  0  0  0  0  0  0  0  0  0  0  0
    8.1566   10.0536   16.0516 O   0  0  0  0  0  0  0  0  0  0  0  0
   12.4989    6.2074   20.1776 C   0  0  0  0  0  0  0  0  0  0  0  0
    6.9192    9.1053   20.9073 O   0  0  0  0  0  0  0  0  0  0  0  0
   14.3979    6.0729   18.7784 C   0  0  0  0  0  0  0  0  0  0  0  0
    8.6811    9.5354   16.9998 C   0  0  0  0  0  0  0  0  0  0  0  0
    9.2512    4.2713   13.7653 O   0  0  0  0  0  0  0  0  0  0  0  0
    9.6495    8.6317   16.8332 N   0  0  0  0  0  0  0  0  0  0  0  0
    6.2934    8.6988   23.1988 O   0  0  0  0  0  0  0  0  0  0  0  0
    7.9806    8.6543   20.5437 C   0  0  0  0  0  0  0  0  0  0  0  0
   13.7270    5.7144   19.8610 O   0  0  0  0  0  0  0  0  0  0  0  0
    8.3351    5.5235   15.4478 C   0  0  0  0  0  0  0  0  0  0  0  0
    8.7700    7.8434   21.3915 C   0  0  0  0  0  0  0  0  0  0  0  0
   11.7856    6.8851   19.2401 C   0  0  0  0  0  0  0  0  0  0  0  0
   10.5281    7.4276   19.5649 C   0  0  0  0  0  0  0  0  0  0  0  0
   10.0256    7.2907   20.8484 C   0  0  0  0  0  0  0  0  0  0  0  0
    9.3113    5.3049   14.4911 C   0  0  0  0  0  0  0  0  0  0  0  0
    9.4607    7.5646   16.0139 C   0  0  0  0  0  0  0  0  0  0  0  0
   10.4192    7.3157   15.0955 C   0  0  0  0  0  0  0  0  0  0  0  0
   10.2489    6.4227   23.0218 N   0  0  0  0  0  0  0  0  0  0  0  0
    7.2472    8.0746   23.5050 C   0  0  0  0  0  0  0  0  0  0  0  0
    9.2051    6.9101   23.4604 C   0  0  0  0  0  0  0  0  0  0  0  0
   11.9646    6.0299   21.4251 C   0  0  0  0  0  0  0  0  0  0  0  0
  1  5  1  0
  1 13  1  0
  2 20  2  0
  2 28  1  0
  2 29  1  0
  3 19  4  0
  3 25  4  0
  4 23  4  0
  4 27  1  0
  4 30  4  0
  5 17  1  0
  6  8  1  0
  6 29  1  0
  7 24  4  0
  7 26  4  0
  8 28  1  0
  9 13  2  0
 10 18  1  0
 10 21  4  0
 10 30  4  0
 11 17  2  0
 12 18  1  0
 13 15  1  0
 14 24  1  0
 15 25  1  0
 16 28  2  0
 17 20  1  0
 19 24  4  0
 20 23  1  0
 21 22  4  0
 22 23  4  0
 25 26  4  0
 27 29  2  0
M  END
$$$$

 Created by Python create_sdf_string function

 30 33  0  0  0  0  0  0  0  0999 V2000
    8.3036    9.8571   18.4133 C   0  0  0  0  0  0  0  0  0  0  0  0
    8.3694    7.6612   22.6703 C   0  0  0  0  0  0  0  0  0  0  0  0
    8.4143    6.6863   16.2273 C   0  0  0  0  0  0  0  0  0  0  0  0
   10.7581    6.5674   21.7636 C   0  0  0  0  0  0  0  0  0  0  0  0
    8.4452    8.7960   19.2958 O   0  0  0  0  0  0  0  0  0  0  0  0
    8.7122    6.7842   24.8569 C   0  0  0  0  0  0  0  0  0  0  0  0
   10.3400    6.1726   14.3081 C   0  0  0  0  0  0  0  0  0  0  0  0
    7.4297    7.5873   24.8962 C   0  0  0  0  0  0  0  0  0  0  0  0
    8.1566   10.0536   16.0516 O   0  0  0  0  0  0  0  0  0  0  0  0
   12.4989    6.2074   20.1776 C   0  0  0  0  0  0  0  0  0  0  0  0
    6.9192    9.1053   20.9073 O   0  0  0  0  0  0  0  0  0  0  0  0
   14.3979    6.0729   18.7784 C   0  0  0  0  0  0  0  0  0  0  0  0
    8.6811    9.5354   16.9998 C   0  0  0  0  0  0  0  0  0  0  0  0
    9.2512    4.2713   13.7653 O   0  0  0  0  0  0  0  0  0  0  0  0
    9.6495    8.6317   16.8332 N   0  0  0  0  0  0  0  0  0  0  0  0
    6.2934    8.6988   23.1988 O   0  0  0  0  0  0  0  0  0  0  0  0
    7.9806    8.6543   20.5437 C   0  0  0  0  0  0  0  0  0  0  0  0
   13.7270    5.7144   19.8610 O   0  0  0  0  0  0  0  0  0  0  0  0
    8.3351    5.5235   15.4478 C   0  0  0  0  0  0  0  0  0  0  0  0
    8.7700    7.8434   21.3915 C   0  0  0  0  0  0  0  0  0  0  0  0
   11.7856    6.8851   19.2401 C   0  0  0  0  0  0  0  0  0  0  0  0
   10.5281    7.4276   19.5649 C   0  0  0  0  0  0  0  0  0  0  0  0
   10.0256    7.2907   20.8484 C   0  0  0  0  0  0  0  0  0  0  0  0
    9.3113    5.3049   14.4911 C   0  0  0  0  0  0  0  0  0  0  0  0
    9.4607    7.5646   16.0139 C   0  0  0  0  0  0  0  0  0  0  0  0
   10.4192    7.3157   15.0955 C   0  0  0  0  0  0  0  0  0  0  0  0
   10.2489    6.4227   23.0218 N   0  0  0  0  0  0  0  0  0  0  0  0
    7.2472    8.0746   23.5050 C   0  0  0  0  0  0  0  0  0  0  0  0
    9.2051    6.9101   23.4604 C   0  0  0  0  0  0  0  0  0  0  0  0
   11.9646    6.0299   21.4251 C   0  0  0  0  0  0  0  0  0  0  0  0
  1  5  1  0
  1 13  1  0
  2 20  2  0
  2 28  1  0
  2 29  1  0
  3 19  4  0
  3 25  4  0
  4 23  4  0
  4 27  1  0
  4 30  4  0
  5 17  1  0
  6  8  1  0
  6 29  1  0
  7 24  4  0
  7 26  4  0
  8 28  1  0
  9 13  2  0
 10 18  1  0
 10 21  4  0
 10 30  4  0
 11 17  2  0
 12 18  1  0
 13 15  1  0
 14 24  1  0
 15 25  1  0
 16 28  2  0
 17 20  1  0
 19 24  4  0
 20 23  1  0
 21 22  4  0
 22 23  4  0
 25 26  4  0
 27 29  2  0
M  END
$$$$

 Created by Python create_sdf_string function

 30 33  0  0  0  0  0  0  0  0999 V2000
    8.3036    9.8571   18.4133 C   0  0  0  0  0  0  0  0  0  0  0  0
    8.3694    7.6612   22.6703 C   0  0  0  0  0  0  0  0  0  0  0  0
    8.4143    6.6863   16.2273 C   0  0  0  0  0  0  0  0  0  0  0  0
   10.7581    6.5674   21.7636 C   0  0  0  0  0  0  0  0  0  0  0  0
    8.4452    8.7960   19.2958 O   0  0  0  0  0  0  0  0  0  0  0  0
    8.7122    6.7842   24.8569 C   0  0  0  0  0  0  0  0  0  0  0  0
   10.3400    6.1726   14.3081 C   0  0  0  0  0  0  0  0  0  0  0  0
    7.4297    7.5873   24.8962 C   0  0  0  0  0  0  0  0  0  0  0  0
    8.1566   10.0536   16.0516 O   0  0  0  0  0  0  0  0  0  0  0  0
   12.4989    6.2074   20.1776 C   0  0  0  0  0  0  0  0  0  0  0  0
    6.9192    9.1053   20.9073 O   0  0  0  0  0  0  0  0  0  0  0  0
   14.3979    6.0729   18.7784 C   0  0  0  0  0  0  0  0  0  0  0  0
    8.6811    9.5354   16.9998 C   0  0  0  0  0  0  0  0  0  0  0  0
    9.2512    4.2713   13.7653 O   0  0  0  0  0  0  0  0  0  0  0  0
    9.6495    8.6317   16.8332 N   0  0  0  0  0  0  0  0  0  0  0  0
    6.2934    8.6988   23.1988 O   0  0  0  0  0  0  0  0  0  0  0  0
    7.9806    8.6543   20.5437 C   0  0  0  0  0  0  0  0  0  0  0  0
   13.7270    5.7144   19.8610 O   0  0  0  0  0  0  0  0  0  0  0  0
    8.3351    5.5235   15.4478 C   0  0  0  0  0  0  0  0  0  0  0  0
    8.7700    7.8434   21.3915 C   0  0  0  0  0  0  0  0  0  0  0  0
   11.7856    6.8851   19.2401 C   0  0  0  0  0  0  0  0  0  0  0  0
   10.5281    7.4276   19.5649 C   0  0  0  0  0  0  0  0  0  0  0  0
   10.0256    7.2907   20.8484 C   0  0  0  0  0  0  0  0  0  0  0  0
    9.3113    5.3049   14.4911 C   0  0  0  0  0  0  0  0  0  0  0  0
    9.4607    7.5646   16.0139 C   0  0  0  0  0  0  0  0  0  0  0  0
   10.4192    7.3157   15.0955 C   0  0  0  0  0  0  0  0  0  0  0  0
   10.2489    6.4227   23.0218 N   0  0  0  0  0  0  0  0  0  0  0  0
    7.2472    8.0746   23.5050 C   0  0  0  0  0  0  0  0  0  0  0  0
    9.2051    6.9101   23.4604 C   0  0  0  0  0  0  0  0  0  0  0  0
   11.9646    6.0299   21.4251 C   0  0  0  0  0  0  0  0  0  0  0  0
  1  5  1  0
  1 13  1  0
  2 20  2  0
  2 28  1  0
  2 29  1  0
  3 19  4  0
  3 25  4  0
  4 23  4  0
  4 27  1  0
  4 30  4  0
  5 17  1  0
  6  8  1  0
  6 29  1  0
  7 24  4  0
  7 26  4  0
  8 28  1  0
  9 13  2  0
 10 18  1  0
 10 21  4  0
 10 30  4  0
 11 17  2  0
 12 18  1  0
 13 15  1  0
 14 24  1  0
 15 25  1  0
 16 28  2  0
 17 20  1  0
 19 24  4  0
 20 23  1  0
 21 22  4  0
 22 23  4  0
 25 26  4  0
 27 29  2  0
M  END
$$$$

 Created by Python create_sdf_string function

 30 33  0  0  0  0  0  0  0  0999 V2000
    8.3036    9.8571   18.4133 C   0  0  0  0  0  0  0  0  0  0  0  0
    8.3694    7.6612   22.6703 C   0  0  0  0  0  0  0  0  0  0  0  0
    8.4143    6.6863   16.2273 C   0  0  0  0  0  0  0  0  0  0  0  0
   10.7581    6.5674   21.7636 C   0  0  0  0  0  0  0  0  0  0  0  0
    8.4452    8.7960   19.2958 O   0  0  0  0  0  0  0  0  0  0  0  0
    8.7122    6.7842   24.8569 C   0  0  0  0  0  0  0  0  0  0  0  0
   10.3400    6.1726   14.3081 C   0  0  0  0  0  0  0  0  0  0  0  0
    7.4297    7.5873   24.8962 C   0  0  0  0  0  0  0  0  0  0  0  0
    8.1566   10.0536   16.0516 O   0  0  0  0  0  0  0  0  0  0  0  0
   12.4989    6.2074   20.1776 C   0  0  0  0  0  0  0  0  0  0  0  0
    6.9192    9.1053   20.9073 O   0  0  0  0  0  0  0  0  0  0  0  0
   14.3979    6.0729   18.7784 C   0  0  0  0  0  0  0  0  0  0  0  0
    8.6811    9.5354   16.9998 C   0  0  0  0  0  0  0  0  0  0  0  0
    9.2512    4.2713   13.7653 O   0  0  0  0  0  0  0  0  0  0  0  0
    9.6495    8.6317   16.8332 N   0  0  0  0  0  0  0  0  0  0  0  0
    6.2934    8.6988   23.1988 O   0  0  0  0  0  0  0  0  0  0  0  0
    7.9806    8.6543   20.5437 C   0  0  0  0  0  0  0  0  0  0  0  0
   13.7270    5.7144   19.8610 O   0  0  0  0  0  0  0  0  0  0  0  0
    8.3351    5.5235   15.4478 C   0  0  0  0  0  0  0  0  0  0  0  0
    8.7700    7.8434   21.3915 C   0  0  0  0  0  0  0  0  0  0  0  0
   11.7856    6.8851   19.2401 C   0  0  0  0  0  0  0  0  0  0  0  0
   10.5281    7.4276   19.5649 C   0  0  0  0  0  0  0  0  0  0  0  0
   10.0256    7.2907   20.8484 C   0  0  0  0  0  0  0  0  0  0  0  0
    9.3113    5.3049   14.4911 C   0  0  0  0  0  0  0  0  0  0  0  0
    9.4607    7.5646   16.0139 C   0  0  0  0  0  0  0  0  0  0  0  0
   10.4192    7.3157   15.0955 C   0  0  0  0  0  0  0  0  0  0  0  0
   10.2489    6.4227   23.0218 N   0  0  0  0  0  0  0  0  0  0  0  0
    7.2472    8.0746   23.5050 C   0  0  0  0  0  0  0  0  0  0  0  0
    9.2051    6.9101   23.4604 C   0  0  0  0  0  0  0  0  0  0  0  0
   11.9646    6.0299   21.4251 C   0  0  0  0  0  0  0  0  0  0  0  0
  1  5  1  0
  1 13  1  0
  2 20  2  0
  2 28  1  0
  2 29  1  0
  3 19  4  0
  3 25  4  0
  4 23  4  0
  4 27  1  0
  4 30  4  0
  5 17  1  0
  6  8  1  0
  6 29  1  0
  7 24  4  0
  7 26  4  0
  8 28  1  0
  9 13  2  0
 10 18  1  0
 10 21  4  0
 10 30  4  0
 11 17  2  0
 12 18  1  0
 13 15  1  0
 14 24  1  0
 15 25  1  0
 16 28  2  0
 17 20  1  0
 19 24  4  0
 20 23  1  0
 21 22  4  0
 22 23  4  0
 25 26  4  0
 27 29  2  0
M  END
$$$$

 Created by Python create_sdf_string function

 30 33  0  0  0  0  0  0  0  0999 V2000
    8.3036    9.8571   18.4133 C   0  0  0  0  0  0  0  0  0  0  0  0
    8.3694    7.6612   22.6703 C   0  0  0  0  0  0  0  0  0  0  0  0
    8.4143    6.6863   16.2273 C   0  0  0  0  0  0  0  0  0  0  0  0
   10.7581    6.5674   21.7636 C   0  0  0  0  0  0  0  0  0  0  0  0
    8.4452    8.7960   19.2958 O   0  0  0  0  0  0  0  0  0  0  0  0
    8.7122    6.7842   24.8569 C   0  0  0  0  0  0  0  0  0  0  0  0
   10.3400    6.1726   14.3081 C   0  0  0  0  0  0  0  0  0  0  0  0
    7.4297    7.5873   24.8962 C   0  0  0  0  0  0  0  0  0  0  0  0
    8.1566   10.0536   16.0516 O   0  0  0  0  0  0  0  0  0  0  0  0
   12.4989    6.2074   20.1776 C   0  0  0  0  0  0  0  0  0  0  0  0
    6.9192    9.1053   20.9073 O   0  0  0  0  0  0  0  0  0  0  0  0
   14.3979    6.0729   18.7784 C   0  0  0  0  0  0  0  0  0  0  0  0
    8.6811    9.5354   16.9998 C   0  0  0  0  0  0  0  0  0  0  0  0
    9.2512    4.2713   13.7653 O   0  0  0  0  0  0  0  0  0  0  0  0
    9.6495    8.6317   16.8332 N   0  0  0  0  0  0  0  0  0  0  0  0
    6.2934    8.6988   23.1988 O   0  0  0  0  0  0  0  0  0  0  0  0
    7.9806    8.6543   20.5437 C   0  0  0  0  0  0  0  0  0  0  0  0
   13.7270    5.7144   19.8610 O   0  0  0  0  0  0  0  0  0  0  0  0
    8.3351    5.5235   15.4478 C   0  0  0  0  0  0  0  0  0  0  0  0
    8.7700    7.8434   21.3915 C   0  0  0  0  0  0  0  0  0  0  0  0
   11.7856    6.8851   19.2401 C   0  0  0  0  0  0  0  0  0  0  0  0
   10.5281    7.4276   19.5649 C   0  0  0  0  0  0  0  0  0  0  0  0
   10.0256    7.2907   20.8484 C   0  0  0  0  0  0  0  0  0  0  0  0
    9.3113    5.3049   14.4911 C   0  0  0  0  0  0  0  0  0  0  0  0
    9.4607    7.5646   16.0139 C   0  0  0  0  0  0  0  0  0  0  0  0
   10.4192    7.3157   15.0955 C   0  0  0  0  0  0  0  0  0  0  0  0
   10.2489    6.4227   23.0218 N   0  0  0  0  0  0  0  0  0  0  0  0
    7.2472    8.0746   23.5050 C   0  0  0  0  0  0  0  0  0  0  0  0
    9.2051    6.9101   23.4604 C   0  0  0  0  0  0  0  0  0  0  0  0
   11.9646    6.0299   21.4251 C   0  0  0  0  0  0  0  0  0  0  0  0
  1  5  1  0
  1 13  1  0
  2 20  2  0
  2 28  1  0
  2 29  1  0
  3 19  4  0
  3 25  4  0
  4 23  4  0
  4 27  1  0
  4 30  4  0
  5 17  1  0
  6  8  1  0
  6 29  1  0
  7 24  4  0
  7 26  4  0
  8 28  1  0
  9 13  2  0
 10 18  1  0
 10 21  4  0
 10 30  4  0
 11 17  2  0
 12 18  1  0
 13 15  1  0
 14 24  1  0
 15 25  1  0
 16 28  2  0
 17 20  1  0
 19 24  4  0
 20 23  1  0
 21 22  4  0
 22 23  4  0
 25 26  4  0
 27 29  2  0
M  END
$$$$

 Created by Python create_sdf_string function

 30 33  0  0  0  0  0  0  0  0999 V2000
    8.3036    9.8571   18.4133 C   0  0  0  0  0  0  0  0  0  0  0  0
    8.3694    7.6612   22.6703 C   0  0  0  0  0  0  0  0  0  0  0  0
    8.4143    6.6863   16.2273 C   0  0  0  0  0  0  0  0  0  0  0  0
   10.7581    6.5674   21.7636 C   0  0  0  0  0  0  0  0  0  0  0  0
    8.4452    8.7960   19.2958 O   0  0  0  0  0  0  0  0  0  0  0  0
    8.7122    6.7842   24.8569 C   0  0  0  0  0  0  0  0  0  0  0  0
   10.3400    6.1726   14.3081 C   0  0  0  0  0  0  0  0  0  0  0  0
    7.4297    7.5873   24.8962 C   0  0  0  0  0  0  0  0  0  0  0  0
    8.1566   10.0536   16.0516 O   0  0  0  0  0  0  0  0  0  0  0  0
   12.4989    6.2074   20.1776 C   0  0  0  0  0  0  0  0  0  0  0  0
    6.9192    9.1053   20.9073 O   0  0  0  0  0  0  0  0  0  0  0  0
   14.3979    6.0729   18.7784 C   0  0  0  0  0  0  0  0  0  0  0  0
    8.6811    9.5354   16.9998 C   0  0  0  0  0  0  0  0  0  0  0  0
    9.2512    4.2713   13.7653 O   0  0  0  0  0  0  0  0  0  0  0  0
    9.6495    8.6317   16.8332 N   0  0  0  0  0  0  0  0  0  0  0  0
    6.2934    8.6988   23.1988 O   0  0  0  0  0  0  0  0  0  0  0  0
    7.9806    8.6543   20.5437 C   0  0  0  0  0  0  0  0  0  0  0  0
   13.7270    5.7144   19.8610 O   0  0  0  0  0  0  0  0  0  0  0  0
    8.3351    5.5235   15.4478 C   0  0  0  0  0  0  0  0  0  0  0  0
    8.7700    7.8434   21.3915 C   0  0  0  0  0  0  0  0  0  0  0  0
   11.7856    6.8851   19.2401 C   0  0  0  0  0  0  0  0  0  0  0  0
   10.5281    7.4276   19.5649 C   0  0  0  0  0  0  0  0  0  0  0  0
   10.0256    7.2907   20.8484 C   0  0  0  0  0  0  0  0  0  0  0  0
    9.3113    5.3049   14.4911 C   0  0  0  0  0  0  0  0  0  0  0  0
    9.4607    7.5646   16.0139 C   0  0  0  0  0  0  0  0  0  0  0  0
   10.4192    7.3157   15.0955 C   0  0  0  0  0  0  0  0  0  0  0  0
   10.2489    6.4227   23.0218 N   0  0  0  0  0  0  0  0  0  0  0  0
    7.2472    8.0746   23.5050 C   0  0  0  0  0  0  0  0  0  0  0  0
    9.2051    6.9101   23.4604 C   0  0  0  0  0  0  0  0  0  0  0  0
   11.9646    6.0299   21.4251 C   0  0  0  0  0  0  0  0  0  0  0  0
  1  5  1  0
  1 13  1  0
  2 20  2  0
  2 28  1  0
  2 29  1  0
  3 19  4  0
  3 25  4  0
  4 23  4  0
  4 27  1  0
  4 30  4  0
  5 17  1  0
  6  8  1  0
  6 29  1  0
  7 24  4  0
  7 26  4  0
  8 28  1  0
  9 13  2  0
 10 18  1  0
 10 21  4  0
 10 30  4  0
 11 17  2  0
 12 18  1  0
 13 15  1  0
 14 24  1  0
 15 25  1  0
 16 28  2  0
 17 20  1  0
 19 24  4  0
 20 23  1  0
 21 22  4  0
 22 23  4  0
 25 26  4  0
 27 29  2  0
M  END
$$$$

 Created by Python create_sdf_string function

 30 33  0  0  0  0  0  0  0  0999 V2000
    8.3036    9.8571   18.4133 C   0  0  0  0  0  0  0  0  0  0  0  0
    8.3694    7.6612   22.6703 C   0  0  0  0  0  0  0  0  0  0  0  0
    8.4143    6.6863   16.2273 C   0  0  0  0  0  0  0  0  0  0  0  0
   10.7581    6.5674   21.7636 C   0  0  0  0  0  0  0  0  0  0  0  0
    8.4452    8.7960   19.2958 O   0  0  0  0  0  0  0  0  0  0  0  0
    8.7122    6.7842   24.8569 C   0  0  0  0  0  0  0  0  0  0  0  0
   10.3400    6.1726   14.3081 C   0  0  0  0  0  0  0  0  0  0  0  0
    7.4297    7.5873   24.8962 C   0  0  0  0  0  0  0  0  0  0  0  0
    8.1566   10.0536   16.0516 O   0  0  0  0  0  0  0  0  0  0  0  0
   12.4989    6.2074   20.1776 C   0  0  0  0  0  0  0  0  0  0  0  0
    6.9192    9.1053   20.9073 O   0  0  0  0  0  0  0  0  0  0  0  0
   14.3979    6.0729   18.7784 C   0  0  0  0  0  0  0  0  0  0  0  0
    8.6811    9.5354   16.9998 C   0  0  0  0  0  0  0  0  0  0  0  0
    9.2512    4.2713   13.7653 O   0  0  0  0  0  0  0  0  0  0  0  0
    9.6495    8.6317   16.8332 N   0  0  0  0  0  0  0  0  0  0  0  0
    6.2934    8.6988   23.1988 O   0  0  0  0  0  0  0  0  0  0  0  0
    7.9806    8.6543   20.5437 C   0  0  0  0  0  0  0  0  0  0  0  0
   13.7270    5.7144   19.8610 O   0  0  0  0  0  0  0  0  0  0  0  0
    8.3351    5.5235   15.4478 C   0  0  0  0  0  0  0  0  0  0  0  0
    8.7700    7.8434   21.3915 C   0  0  0  0  0  0  0  0  0  0  0  0
   11.7856    6.8851   19.2401 C   0  0  0  0  0  0  0  0  0  0  0  0
   10.5281    7.4276   19.5649 C   0  0  0  0  0  0  0  0  0  0  0  0
   10.0256    7.2907   20.8484 C   0  0  0  0  0  0  0  0  0  0  0  0
    9.3113    5.3049   14.4911 C   0  0  0  0  0  0  0  0  0  0  0  0
    9.4607    7.5646   16.0139 C   0  0  0  0  0  0  0  0  0  0  0  0
   10.4192    7.3157   15.0955 C   0  0  0  0  0  0  0  0  0  0  0  0
   10.2489    6.4227   23.0218 N   0  0  0  0  0  0  0  0  0  0  0  0
    7.2472    8.0746   23.5050 C   0  0  0  0  0  0  0  0  0  0  0  0
    9.2051    6.9101   23.4604 C   0  0  0  0  0  0  0  0  0  0  0  0
   11.9646    6.0299   21.4251 C   0  0  0  0  0  0  0  0  0  0  0  0
  1  5  1  0
  1 13  1  0
  2 20  2  0
  2 28  1  0
  2 29  1  0
  3 19  4  0
  3 25  4  0
  4 23  4  0
  4 27  1  0
  4 30  4  0
  5 17  1  0
  6  8  1  0
  6 29  1  0
  7 24  4  0
  7 26  4  0
  8 28  1  0
  9 13  2  0
 10 18  1  0
 10 21  4  0
 10 30  4  0
 11 17  2  0
 12 18  1  0
 13 15  1  0
 14 24  1  0
 15 25  1  0
 16 28  2  0
 17 20  1  0
 19 24  4  0
 20 23  1  0
 21 22  4  0
 22 23  4  0
 25 26  4  0
 27 29  2  0
M  END
$$$$

 Created by Python create_sdf_string function

 30 33  0  0  0  0  0  0  0  0999 V2000
    8.3036    9.8571   18.4133 C   0  0  0  0  0  0  0  0  0  0  0  0
    8.3694    7.6612   22.6703 C   0  0  0  0  0  0  0  0  0  0  0  0
    8.4143    6.6863   16.2273 C   0  0  0  0  0  0  0  0  0  0  0  0
   10.7581    6.5674   21.7636 C   0  0  0  0  0  0  0  0  0  0  0  0
    8.4452    8.7960   19.2958 O   0  0  0  0  0  0  0  0  0  0  0  0
    8.7122    6.7842   24.8569 C   0  0  0  0  0  0  0  0  0  0  0  0
   10.3400    6.1726   14.3081 C   0  0  0  0  0  0  0  0  0  0  0  0
    7.4297    7.5873   24.8962 C   0  0  0  0  0  0  0  0  0  0  0  0
    8.1566   10.0536   16.0516 O   0  0  0  0  0  0  0  0  0  0  0  0
   12.4989    6.2074   20.1776 C   0  0  0  0  0  0  0  0  0  0  0  0
    6.9192    9.1053   20.9073 O   0  0  0  0  0  0  0  0  0  0  0  0
   14.3979    6.0729   18.7784 C   0  0  0  0  0  0  0  0  0  0  0  0
    8.6811    9.5354   16.9998 C   0  0  0  0  0  0  0  0  0  0  0  0
    9.2512    4.2713   13.7653 O   0  0  0  0  0  0  0  0  0  0  0  0
    9.6495    8.6317   16.8332 N   0  0  0  0  0  0  0  0  0  0  0  0
    6.2934    8.6988   23.1988 O   0  0  0  0  0  0  0  0  0  0  0  0
    7.9806    8.6543   20.5437 C   0  0  0  0  0  0  0  0  0  0  0  0
   13.7270    5.7144   19.8610 O   0  0  0  0  0  0  0  0  0  0  0  0
    8.3351    5.5235   15.4478 C   0  0  0  0  0  0  0  0  0  0  0  0
    8.7700    7.8434   21.3915 C   0  0  0  0  0  0  0  0  0  0  0  0
   11.7856    6.8851   19.2401 C   0  0  0  0  0  0  0  0  0  0  0  0
   10.5281    7.4276   19.5649 C   0  0  0  0  0  0  0  0  0  0  0  0
   10.0256    7.2907   20.8484 C   0  0  0  0  0  0  0  0  0  0  0  0
    9.3113    5.3049   14.4911 C   0  0  0  0  0  0  0  0  0  0  0  0
    9.4607    7.5646   16.0139 C   0  0  0  0  0  0  0  0  0  0  0  0
   10.4192    7.3157   15.0955 C   0  0  0  0  0  0  0  0  0  0  0  0
   10.2489    6.4227   23.0218 N   0  0  0  0  0  0  0  0  0  0  0  0
    7.2472    8.0746   23.5050 C   0  0  0  0  0  0  0  0  0  0  0  0
    9.2051    6.9101   23.4604 C   0  0  0  0  0  0  0  0  0  0  0  0
   11.9646    6.0299   21.4251 C   0  0  0  0  0  0  0  0  0  0  0  0
  1  5  1  0
  1 13  1  0
  2 20  2  0
  2 28  1  0
  2 29  1  0
  3 19  4  0
  3 25  4  0
  4 23  4  0
  4 27  1  0
  4 30  4  0
  5 17  1  0
  6  8  1  0
  6 29  1  0
  7 24  4  0
  7 26  4  0
  8 28  1  0
  9 13  2  0
 10 18  1  0
 10 21  4  0
 10 30  4  0
 11 17  2  0
 12 18  1  0
 13 15  1  0
 14 24  1  0
 15 25  1  0
 16 28  2  0
 17 20  1  0
 19 24  4  0
 20 23  1  0
 21 22  4  0
 22 23  4  0
 25 26  4  0
 27 29  2  0
M  END
$$$$

 Created by Python create_sdf_string function

 30 33  0  0  0  0  0  0  0  0999 V2000
    8.3036    9.8571   18.4133 C   0  0  0  0  0  0  0  0  0  0  0  0
    8.3694    7.6612   22.6703 C   0  0  0  0  0  0  0  0  0  0  0  0
    8.4143    6.6863   16.2273 C   0  0  0  0  0  0  0  0  0  0  0  0
   10.7581    6.5674   21.7636 C   0  0  0  0  0  0  0  0  0  0  0  0
    8.4452    8.7960   19.2958 O   0  0  0  0  0  0  0  0  0  0  0  0
    8.7122    6.7842   24.8569 C   0  0  0  0  0  0  0  0  0  0  0  0
   10.3400    6.1726   14.3081 C   0  0  0  0  0  0  0  0  0  0  0  0
    7.4297    7.5873   24.8962 C   0  0  0  0  0  0  0  0  0  0  0  0
    8.1566   10.0536   16.0516 O   0  0  0  0  0  0  0  0  0  0  0  0
   12.4989    6.2074   20.1776 C   0  0  0  0  0  0  0  0  0  0  0  0
    6.9192    9.1053   20.9073 O   0  0  0  0  0  0  0  0  0  0  0  0
   14.3979    6.0729   18.7784 C   0  0  0  0  0  0  0  0  0  0  0  0
    8.6811    9.5354   16.9998 C   0  0  0  0  0  0  0  0  0  0  0  0
    9.2512    4.2713   13.7653 O   0  0  0  0  0  0  0  0  0  0  0  0
    9.6495    8.6317   16.8332 N   0  0  0  0  0  0  0  0  0  0  0  0
    6.2934    8.6988   23.1988 O   0  0  0  0  0  0  0  0  0  0  0  0
    7.9806    8.6543   20.5437 C   0  0  0  0  0  0  0  0  0  0  0  0
   13.7270    5.7144   19.8610 O   0  0  0  0  0  0  0  0  0  0  0  0
    8.3351    5.5235   15.4478 C   0  0  0  0  0  0  0  0  0  0  0  0
    8.7700    7.8434   21.3915 C   0  0  0  0  0  0  0  0  0  0  0  0
   11.7856    6.8851   19.2401 C   0  0  0  0  0  0  0  0  0  0  0  0
   10.5281    7.4276   19.5649 C   0  0  0  0  0  0  0  0  0  0  0  0
   10.0256    7.2907   20.8484 C   0  0  0  0  0  0  0  0  0  0  0  0
    9.3113    5.3049   14.4911 C   0  0  0  0  0  0  0  0  0  0  0  0
    9.4607    7.5646   16.0139 C   0  0  0  0  0  0  0  0  0  0  0  0
   10.4192    7.3157   15.0955 C   0  0  0  0  0  0  0  0  0  0  0  0
   10.2489    6.4227   23.0218 N   0  0  0  0  0  0  0  0  0  0  0  0
    7.2472    8.0746   23.5050 C   0  0  0  0  0  0  0  0  0  0  0  0
    9.2051    6.9101   23.4604 C   0  0  0  0  0  0  0  0  0  0  0  0
   11.9646    6.0299   21.4251 C   0  0  0  0  0  0  0  0  0  0  0  0
  1  5  1  0
  1 13  1  0
  2 20  2  0
  2 28  1  0
  2 29  1  0
  3 19  4  0
  3 25  4  0
  4 23  4  0
  4 27  1  0
  4 30  4  0
  5 17  1  0
  6  8  1  0
  6 29  1  0
  7 24  4  0
  7 26  4  0
  8 28  1  0
  9 13  2  0
 10 18  1  0
 10 21  4  0
 10 30  4  0
 11 17  2  0
 12 18  1  0
 13 15  1  0
 14 24  1  0
 15 25  1  0
 16 28  2  0
 17 20  1  0
 19 24  4  0
 20 23  1  0
 21 22  4  0
 22 23  4  0
 25 26  4  0
 27 29  2  0
M  END
$$$$

 Created by Python create_sdf_string function

 30 33  0  0  0  0  0  0  0  0999 V2000
    8.3036    9.8571   18.4133 C   0  0  0  0  0  0  0  0  0  0  0  0
    8.3694    7.6612   22.6703 C   0  0  0  0  0  0  0  0  0  0  0  0
    8.4143    6.6863   16.2273 C   0  0  0  0  0  0  0  0  0  0  0  0
   10.7581    6.5674   21.7636 C   0  0  0  0  0  0  0  0  0  0  0  0
    8.4452    8.7960   19.2958 O   0  0  0  0  0  0  0  0  0  0  0  0
    8.7122    6.7842   24.8569 C   0  0  0  0  0  0  0  0  0  0  0  0
   10.3400    6.1726   14.3081 C   0  0  0  0  0  0  0  0  0  0  0  0
    7.4297    7.5873   24.8962 C   0  0  0  0  0  0  0  0  0  0  0  0
    8.1566   10.0536   16.0516 O   0  0  0  0  0  0  0  0  0  0  0  0
   12.4989    6.2074   20.1776 C   0  0  0  0  0  0  0  0  0  0  0  0
    6.9192    9.1053   20.9073 O   0  0  0  0  0  0  0  0  0  0  0  0
   14.3979    6.0729   18.7784 C   0  0  0  0  0  0  0  0  0  0  0  0
    8.6811    9.5354   16.9998 C   0  0  0  0  0  0  0  0  0  0  0  0
    9.2512    4.2713   13.7653 O   0  0  0  0  0  0  0  0  0  0  0  0
    9.6495    8.6317   16.8332 N   0  0  0  0  0  0  0  0  0  0  0  0
    6.2934    8.6988   23.1988 O   0  0  0  0  0  0  0  0  0  0  0  0
    7.9806    8.6543   20.5437 C   0  0  0  0  0  0  0  0  0  0  0  0
   13.7270    5.7144   19.8610 O   0  0  0  0  0  0  0  0  0  0  0  0
    8.3351    5.5235   15.4478 C   0  0  0  0  0  0  0  0  0  0  0  0
    8.7700    7.8434   21.3915 C   0  0  0  0  0  0  0  0  0  0  0  0
   11.7856    6.8851   19.2401 C   0  0  0  0  0  0  0  0  0  0  0  0
   10.5281    7.4276   19.5649 C   0  0  0  0  0  0  0  0  0  0  0  0
   10.0256    7.2907   20.8484 C   0  0  0  0  0  0  0  0  0  0  0  0
    9.3113    5.3049   14.4911 C   0  0  0  0  0  0  0  0  0  0  0  0
    9.4607    7.5646   16.0139 C   0  0  0  0  0  0  0  0  0  0  0  0
   10.4192    7.3157   15.0955 C   0  0  0  0  0  0  0  0  0  0  0  0
   10.2489    6.4227   23.0218 N   0  0  0  0  0  0  0  0  0  0  0  0
    7.2472    8.0746   23.5050 C   0  0  0  0  0  0  0  0  0  0  0  0
    9.2051    6.9101   23.4604 C   0  0  0  0  0  0  0  0  0  0  0  0
   11.9646    6.0299   21.4251 C   0  0  0  0  0  0  0  0  0  0  0  0
  1  5  1  0
  1 13  1  0
  2 20  2  0
  2 28  1  0
  2 29  1  0
  3 19  4  0
  3 25  4  0
  4 23  4  0
  4 27  1  0
  4 30  4  0
  5 17  1  0
  6  8  1  0
  6 29  1  0
  7 24  4  0
  7 26  4  0
  8 28  1  0
  9 13  2  0
 10 18  1  0
 10 21  4  0
 10 30  4  0
 11 17  2  0
 12 18  1  0
 13 15  1  0
 14 24  1  0
 15 25  1  0
 16 28  2  0
 17 20  1  0
 19 24  4  0
 20 23  1  0
 21 22  4  0
 22 23  4  0
 25 26  4  0
 27 29  2  0
M  END
$$$$

 Created by Python create_sdf_string function

 30 33  0  0  0  0  0  0  0  0999 V2000
    8.3036    9.8571   18.4133 C   0  0  0  0  0  0  0  0  0  0  0  0
    8.3694    7.6612   22.6703 C   0  0  0  0  0  0  0  0  0  0  0  0
    8.4143    6.6863   16.2273 C   0  0  0  0  0  0  0  0  0  0  0  0
   10.7581    6.5674   21.7636 C   0  0  0  0  0  0  0  0  0  0  0  0
    8.4452    8.7960   19.2958 O   0  0  0  0  0  0  0  0  0  0  0  0
    8.7122    6.7842   24.8569 C   0  0  0  0  0  0  0  0  0  0  0  0
   10.3400    6.1726   14.3081 C   0  0  0  0  0  0  0  0  0  0  0  0
    7.4297    7.5873   24.8962 C   0  0  0  0  0  0  0  0  0  0  0  0
    8.1566   10.0536   16.0516 O   0  0  0  0  0  0  0  0  0  0  0  0
   12.4989    6.2074   20.1776 C   0  0  0  0  0  0  0  0  0  0  0  0
    6.9192    9.1053   20.9073 O   0  0  0  0  0  0  0  0  0  0  0  0
   14.3979    6.0729   18.7784 C   0  0  0  0  0  0  0  0  0  0  0  0
    8.6811    9.5354   16.9998 C   0  0  0  0  0  0  0  0  0  0  0  0
    9.2512    4.2713   13.7653 O   0  0  0  0  0  0  0  0  0  0  0  0
    9.6495    8.6317   16.8332 N   0  0  0  0  0  0  0  0  0  0  0  0
    6.2934    8.6988   23.1988 O   0  0  0  0  0  0  0  0  0  0  0  0
    7.9806    8.6543   20.5437 C   0  0  0  0  0  0  0  0  0  0  0  0
   13.7270    5.7144   19.8610 O   0  0  0  0  0  0  0  0  0  0  0  0
    8.3351    5.5235   15.4478 C   0  0  0  0  0  0  0  0  0  0  0  0
    8.7700    7.8434   21.3915 C   0  0  0  0  0  0  0  0  0  0  0  0
   11.7856    6.8851   19.2401 C   0  0  0  0  0  0  0  0  0  0  0  0
   10.5281    7.4276   19.5649 C   0  0  0  0  0  0  0  0  0  0  0  0
   10.0256    7.2907   20.8484 C   0  0  0  0  0  0  0  0  0  0  0  0
    9.3113    5.3049   14.4911 C   0  0  0  0  0  0  0  0  0  0  0  0
    9.4607    7.5646   16.0139 C   0  0  0  0  0  0  0  0  0  0  0  0
   10.4192    7.3157   15.0955 C   0  0  0  0  0  0  0  0  0  0  0  0
   10.2489    6.4227   23.0218 N   0  0  0  0  0  0  0  0  0  0  0  0
    7.2472    8.0746   23.5050 C   0  0  0  0  0  0  0  0  0  0  0  0
    9.2051    6.9101   23.4604 C   0  0  0  0  0  0  0  0  0  0  0  0
   11.9646    6.0299   21.4251 C   0  0  0  0  0  0  0  0  0  0  0  0
  1  5  1  0
  1 13  1  0
  2 20  2  0
  2 28  1  0
  2 29  1  0
  3 19  4  0
  3 25  4  0
  4 23  4  0
  4 27  1  0
  4 30  4  0
  5 17  1  0
  6  8  1  0
  6 29  1  0
  7 24  4  0
  7 26  4  0
  8 28  1  0
  9 13  2  0
 10 18  1  0
 10 21  4  0
 10 30  4  0
 11 17  2  0
 12 18  1  0
 13 15  1  0
 14 24  1  0
 15 25  1  0
 16 28  2  0
 17 20  1  0
 19 24  4  0
 20 23  1  0
 21 22  4  0
 22 23  4  0
 25 26  4  0
 27 29  2  0
M  END
$$$$

 Created by Python create_sdf_string function

 30 33  0  0  0  0  0  0  0  0999 V2000
    8.3036    9.8571   18.4133 C   0  0  0  0  0  0  0  0  0  0  0  0
    8.3694    7.6612   22.6703 C   0  0  0  0  0  0  0  0  0  0  0  0
    8.4143    6.6863   16.2273 C   0  0  0  0  0  0  0  0  0  0  0  0
   10.7581    6.5674   21.7636 C   0  0  0  0  0  0  0  0  0  0  0  0
    8.4452    8.7960   19.2958 O   0  0  0  0  0  0  0  0  0  0  0  0
    8.7122    6.7842   24.8569 C   0  0  0  0  0  0  0  0  0  0  0  0
   10.3400    6.1726   14.3081 C   0  0  0  0  0  0  0  0  0  0  0  0
    7.4297    7.5873   24.8962 C   0  0  0  0  0  0  0  0  0  0  0  0
    8.1566   10.0536   16.0516 O   0  0  0  0  0  0  0  0  0  0  0  0
   12.4989    6.2074   20.1776 C   0  0  0  0  0  0  0  0  0  0  0  0
    6.9192    9.1053   20.9073 O   0  0  0  0  0  0  0  0  0  0  0  0
   14.3979    6.0729   18.7784 C   0  0  0  0  0  0  0  0  0  0  0  0
    8.6811    9.5354   16.9998 C   0  0  0  0  0  0  0  0  0  0  0  0
    9.2512    4.2713   13.7653 O   0  0  0  0  0  0  0  0  0  0  0  0
    9.6495    8.6317   16.8332 N   0  0  0  0  0  0  0  0  0  0  0  0
    6.2934    8.6988   23.1988 O   0  0  0  0  0  0  0  0  0  0  0  0
    7.9806    8.6543   20.5437 C   0  0  0  0  0  0  0  0  0  0  0  0
   13.7270    5.7144   19.8610 O   0  0  0  0  0  0  0  0  0  0  0  0
    8.3351    5.5235   15.4478 C   0  0  0  0  0  0  0  0  0  0  0  0
    8.7700    7.8434   21.3915 C   0  0  0  0  0  0  0  0  0  0  0  0
   11.7856    6.8851   19.2401 C   0  0  0  0  0  0  0  0  0  0  0  0
   10.5281    7.4276   19.5649 C   0  0  0  0  0  0  0  0  0  0  0  0
   10.0256    7.2907   20.8484 C   0  0  0  0  0  0  0  0  0  0  0  0
    9.3113    5.3049   14.4911 C   0  0  0  0  0  0  0  0  0  0  0  0
    9.4607    7.5646   16.0139 C   0  0  0  0  0  0  0  0  0  0  0  0
   10.4192    7.3157   15.0955 C   0  0  0  0  0  0  0  0  0  0  0  0
   10.2489    6.4227   23.0218 N   0  0  0  0  0  0  0  0  0  0  0  0
    7.2472    8.0746   23.5050 C   0  0  0  0  0  0  0  0  0  0  0  0
    9.2051    6.9101   23.4604 C   0  0  0  0  0  0  0  0  0  0  0  0
   11.9646    6.0299   21.4251 C   0  0  0  0  0  0  0  0  0  0  0  0
  1  5  1  0
  1 13  1  0
  2 20  2  0
  2 28  1  0
  2 29  1  0
  3 19  4  0
  3 25  4  0
  4 23  4  0
  4 27  1  0
  4 30  4  0
  5 17  1  0
  6  8  1  0
  6 29  1  0
  7 24  4  0
  7 26  4  0
  8 28  1  0
  9 13  2  0
 10 18  1  0
 10 21  4  0
 10 30  4  0
 11 17  2  0
 12 18  1  0
 13 15  1  0
 14 24  1  0
 15 25  1  0
 16 28  2  0
 17 20  1  0
 19 24  4  0
 20 23  1  0
 21 22  4  0
 22 23  4  0
 25 26  4  0
 27 29  2  0
M  END
$$$$

 Created by Python create_sdf_string function

 30 33  0  0  0  0  0  0  0  0999 V2000
    8.3036    9.8571   18.4133 C   0  0  0  0  0  0  0  0  0  0  0  0
    8.3694    7.6612   22.6703 C   0  0  0  0  0  0  0  0  0  0  0  0
    8.4143    6.6863   16.2273 C   0  0  0  0  0  0  0  0  0  0  0  0
   10.7581    6.5674   21.7636 C   0  0  0  0  0  0  0  0  0  0  0  0
    8.4452    8.7960   19.2958 O   0  0  0  0  0  0  0  0  0  0  0  0
    8.7122    6.7842   24.8569 C   0  0  0  0  0  0  0  0  0  0  0  0
   10.3400    6.1726   14.3081 C   0  0  0  0  0  0  0  0  0  0  0  0
    7.4297    7.5873   24.8962 C   0  0  0  0  0  0  0  0  0  0  0  0
    8.1566   10.0536   16.0516 O   0  0  0  0  0  0  0  0  0  0  0  0
   12.4989    6.2074   20.1776 C   0  0  0  0  0  0  0  0  0  0  0  0
    6.9192    9.1053   20.9073 O   0  0  0  0  0  0  0  0  0  0  0  0
   14.3979    6.0729   18.7784 C   0  0  0  0  0  0  0  0  0  0  0  0
    8.6811    9.5354   16.9998 C   0  0  0  0  0  0  0  0  0  0  0  0
    9.2512    4.2713   13.7653 O   0  0  0  0  0  0  0  0  0  0  0  0
    9.6495    8.6317   16.8332 N   0  0  0  0  0  0  0  0  0  0  0  0
    6.2934    8.6988   23.1988 O   0  0  0  0  0  0  0  0  0  0  0  0
    7.9806    8.6543   20.5437 C   0  0  0  0  0  0  0  0  0  0  0  0
   13.7270    5.7144   19.8610 O   0  0  0  0  0  0  0  0  0  0  0  0
    8.3351    5.5235   15.4478 C   0  0  0  0  0  0  0  0  0  0  0  0
    8.7700    7.8434   21.3915 C   0  0  0  0  0  0  0  0  0  0  0  0
   11.7856    6.8851   19.2401 C   0  0  0  0  0  0  0  0  0  0  0  0
   10.5281    7.4276   19.5649 C   0  0  0  0  0  0  0  0  0  0  0  0
   10.0256    7.2907   20.8484 C   0  0  0  0  0  0  0  0  0  0  0  0
    9.3113    5.3049   14.4911 C   0  0  0  0  0  0  0  0  0  0  0  0
    9.4607    7.5646   16.0139 C   0  0  0  0  0  0  0  0  0  0  0  0
   10.4192    7.3157   15.0955 C   0  0  0  0  0  0  0  0  0  0  0  0
   10.2489    6.4227   23.0218 N   0  0  0  0  0  0  0  0  0  0  0  0
    7.2472    8.0746   23.5050 C   0  0  0  0  0  0  0  0  0  0  0  0
    9.2051    6.9101   23.4604 C   0  0  0  0  0  0  0  0  0  0  0  0
   11.9646    6.0299   21.4251 C   0  0  0  0  0  0  0  0  0  0  0  0
  1  5  1  0
  1 13  1  0
  2 20  2  0
  2 28  1  0
  2 29  1  0
  3 19  4  0
  3 25  4  0
  4 23  4  0
  4 27  1  0
  4 30  4  0
  5 17  1  0
  6  8  1  0
  6 29  1  0
  7 24  4  0
  7 26  4  0
  8 28  1  0
  9 13  2  0
 10 18  1  0
 10 21  4  0
 10 30  4  0
 11 17  2  0
 12 18  1  0
 13 15  1  0
 14 24  1  0
 15 25  1  0
 16 28  2  0
 17 20  1  0
 19 24  4  0
 20 23  1  0
 21 22  4  0
 22 23  4  0
 25 26  4  0
 27 29  2  0
M  END
$$$$

 Created by Python create_sdf_string function

 30 33  0  0  0  0  0  0  0  0999 V2000
    8.3036    9.8571   18.4133 C   0  0  0  0  0  0  0  0  0  0  0  0
    8.3694    7.6612   22.6703 C   0  0  0  0  0  0  0  0  0  0  0  0
    8.4143    6.6863   16.2273 C   0  0  0  0  0  0  0  0  0  0  0  0
   10.7581    6.5674   21.7636 C   0  0  0  0  0  0  0  0  0  0  0  0
    8.4452    8.7960   19.2958 O   0  0  0  0  0  0  0  0  0  0  0  0
    8.7122    6.7842   24.8569 C   0  0  0  0  0  0  0  0  0  0  0  0
   10.3400    6.1726   14.3081 C   0  0  0  0  0  0  0  0  0  0  0  0
    7.4297    7.5873   24.8962 C   0  0  0  0  0  0  0  0  0  0  0  0
    8.1566   10.0536   16.0516 O   0  0  0  0  0  0  0  0  0  0  0  0
   12.4989    6.2074   20.1776 C   0  0  0  0  0  0  0  0  0  0  0  0
    6.9192    9.1053   20.9073 O   0  0  0  0  0  0  0  0  0  0  0  0
   14.3979    6.0729   18.7784 C   0  0  0  0  0  0  0  0  0  0  0  0
    8.6811    9.5354   16.9998 C   0  0  0  0  0  0  0  0  0  0  0  0
    9.2512    4.2713   13.7653 O   0  0  0  0  0  0  0  0  0  0  0  0
    9.6495    8.6317   16.8332 N   0  0  0  0  0  0  0  0  0  0  0  0
    6.2934    8.6988   23.1988 O   0  0  0  0  0  0  0  0  0  0  0  0
    7.9806    8.6543   20.5437 C   0  0  0  0  0  0  0  0  0  0  0  0
   13.7270    5.7144   19.8610 O   0  0  0  0  0  0  0  0  0  0  0  0
    8.3351    5.5235   15.4478 C   0  0  0  0  0  0  0  0  0  0  0  0
    8.7700    7.8434   21.3915 C   0  0  0  0  0  0  0  0  0  0  0  0
   11.7856    6.8851   19.2401 C   0  0  0  0  0  0  0  0  0  0  0  0
   10.5281    7.4276   19.5649 C   0  0  0  0  0  0  0  0  0  0  0  0
   10.0256    7.2907   20.8484 C   0  0  0  0  0  0  0  0  0  0  0  0
    9.3113    5.3049   14.4911 C   0  0  0  0  0  0  0  0  0  0  0  0
    9.4607    7.5646   16.0139 C   0  0  0  0  0  0  0  0  0  0  0  0
   10.4192    7.3157   15.0955 C   0  0  0  0  0  0  0  0  0  0  0  0
   10.2489    6.4227   23.0218 N   0  0  0  0  0  0  0  0  0  0  0  0
    7.2472    8.0746   23.5050 C   0  0  0  0  0  0  0  0  0  0  0  0
    9.2051    6.9101   23.4604 C   0  0  0  0  0  0  0  0  0  0  0  0
   11.9646    6.0299   21.4251 C   0  0  0  0  0  0  0  0  0  0  0  0
  1  5  1  0
  1 13  1  0
  2 20  2  0
  2 28  1  0
  2 29  1  0
  3 19  4  0
  3 25  4  0
  4 23  4  0
  4 27  1  0
  4 30  4  0
  5 17  1  0
  6  8  1  0
  6 29  1  0
  7 24  4  0
  7 26  4  0
  8 28  1  0
  9 13  2  0
 10 18  1  0
 10 21  4  0
 10 30  4  0
 11 17  2  0
 12 18  1  0
 13 15  1  0
 14 24  1  0
 15 25  1  0
 16 28  2  0
 17 20  1  0
 19 24  4  0
 20 23  1  0
 21 22  4  0
 22 23  4  0
 25 26  4  0
 27 29  2  0
M  END
$$$$

 Created by Python create_sdf_string function

 30 33  0  0  0  0  0  0  0  0999 V2000
    8.3036    9.8571   18.4133 C   0  0  0  0  0  0  0  0  0  0  0  0
    8.3694    7.6612   22.6703 C   0  0  0  0  0  0  0  0  0  0  0  0
    8.4143    6.6863   16.2273 C   0  0  0  0  0  0  0  0  0  0  0  0
   10.7581    6.5674   21.7636 C   0  0  0  0  0  0  0  0  0  0  0  0
    8.4452    8.7960   19.2958 O   0  0  0  0  0  0  0  0  0  0  0  0
    8.7122    6.7842   24.8569 C   0  0  0  0  0  0  0  0  0  0  0  0
   10.3400    6.1726   14.3081 C   0  0  0  0  0  0  0  0  0  0  0  0
    7.4297    7.5873   24.8962 C   0  0  0  0  0  0  0  0  0  0  0  0
    8.1566   10.0536   16.0516 O   0  0  0  0  0  0  0  0  0  0  0  0
   12.4989    6.2074   20.1776 C   0  0  0  0  0  0  0  0  0  0  0  0
    6.9192    9.1053   20.9073 O   0  0  0  0  0  0  0  0  0  0  0  0
   14.3979    6.0729   18.7784 C   0  0  0  0  0  0  0  0  0  0  0  0
    8.6811    9.5354   16.9998 C   0  0  0  0  0  0  0  0  0  0  0  0
    9.2512    4.2713   13.7653 O   0  0  0  0  0  0  0  0  0  0  0  0
    9.6495    8.6317   16.8332 N   0  0  0  0  0  0  0  0  0  0  0  0
    6.2934    8.6988   23.1988 O   0  0  0  0  0  0  0  0  0  0  0  0
    7.9806    8.6543   20.5437 C   0  0  0  0  0  0  0  0  0  0  0  0
   13.7270    5.7144   19.8610 O   0  0  0  0  0  0  0  0  0  0  0  0
    8.3351    5.5235   15.4478 C   0  0  0  0  0  0  0  0  0  0  0  0
    8.7700    7.8434   21.3915 C   0  0  0  0  0  0  0  0  0  0  0  0
   11.7856    6.8851   19.2401 C   0  0  0  0  0  0  0  0  0  0  0  0
   10.5281    7.4276   19.5649 C   0  0  0  0  0  0  0  0  0  0  0  0
   10.0256    7.2907   20.8484 C   0  0  0  0  0  0  0  0  0  0  0  0
    9.3113    5.3049   14.4911 C   0  0  0  0  0  0  0  0  0  0  0  0
    9.4607    7.5646   16.0139 C   0  0  0  0  0  0  0  0  0  0  0  0
   10.4192    7.3157   15.0955 C   0  0  0  0  0  0  0  0  0  0  0  0
   10.2489    6.4227   23.0218 N   0  0  0  0  0  0  0  0  0  0  0  0
    7.2472    8.0746   23.5050 C   0  0  0  0  0  0  0  0  0  0  0  0
    9.2051    6.9101   23.4604 C   0  0  0  0  0  0  0  0  0  0  0  0
   11.9646    6.0299   21.4251 C   0  0  0  0  0  0  0  0  0  0  0  0
  1  5  1  0
  1 13  1  0
  2 20  2  0
  2 28  1  0
  2 29  1  0
  3 19  4  0
  3 25  4  0
  4 23  4  0
  4 27  1  0
  4 30  4  0
  5 17  1  0
  6  8  1  0
  6 29  1  0
  7 24  4  0
  7 26  4  0
  8 28  1  0
  9 13  2  0
 10 18  1  0
 10 21  4  0
 10 30  4  0
 11 17  2  0
 12 18  1  0
 13 15  1  0
 14 24  1  0
 15 25  1  0
 16 28  2  0
 17 20  1  0
 19 24  4  0
 20 23  1  0
 21 22  4  0
 22 23  4  0
 25 26  4  0
 27 29  2  0
M  END
$$$$

 Created by Python create_sdf_string function

 30 33  0  0  0  0  0  0  0  0999 V2000
    8.3036    9.8571   18.4133 C   0  0  0  0  0  0  0  0  0  0  0  0
    8.3694    7.6612   22.6703 C   0  0  0  0  0  0  0  0  0  0  0  0
    8.4143    6.6863   16.2273 C   0  0  0  0  0  0  0  0  0  0  0  0
   10.7581    6.5674   21.7636 C   0  0  0  0  0  0  0  0  0  0  0  0
    8.4452    8.7960   19.2958 O   0  0  0  0  0  0  0  0  0  0  0  0
    8.7122    6.7842   24.8569 C   0  0  0  0  0  0  0  0  0  0  0  0
   10.3400    6.1726   14.3081 C   0  0  0  0  0  0  0  0  0  0  0  0
    7.4297    7.5873   24.8962 C   0  0  0  0  0  0  0  0  0  0  0  0
    8.1566   10.0536   16.0516 O   0  0  0  0  0  0  0  0  0  0  0  0
   12.4989    6.2074   20.1776 C   0  0  0  0  0  0  0  0  0  0  0  0
    6.9192    9.1053   20.9073 O   0  0  0  0  0  0  0  0  0  0  0  0
   14.3979    6.0729   18.7784 C   0  0  0  0  0  0  0  0  0  0  0  0
    8.6811    9.5354   16.9998 C   0  0  0  0  0  0  0  0  0  0  0  0
    9.2512    4.2713   13.7653 O   0  0  0  0  0  0  0  0  0  0  0  0
    9.6495    8.6317   16.8332 N   0  0  0  0  0  0  0  0  0  0  0  0
    6.2934    8.6988   23.1988 O   0  0  0  0  0  0  0  0  0  0  0  0
    7.9806    8.6543   20.5437 C   0  0  0  0  0  0  0  0  0  0  0  0
   13.7270    5.7144   19.8610 O   0  0  0  0  0  0  0  0  0  0  0  0
    8.3351    5.5235   15.4478 C   0  0  0  0  0  0  0  0  0  0  0  0
    8.7700    7.8434   21.3915 C   0  0  0  0  0  0  0  0  0  0  0  0
   11.7856    6.8851   19.2401 C   0  0  0  0  0  0  0  0  0  0  0  0
   10.5281    7.4276   19.5649 C   0  0  0  0  0  0  0  0  0  0  0  0
   10.0256    7.2907   20.8484 C   0  0  0  0  0  0  0  0  0  0  0  0
    9.3113    5.3049   14.4911 C   0  0  0  0  0  0  0  0  0  0  0  0
    9.4607    7.5646   16.0139 C   0  0  0  0  0  0  0  0  0  0  0  0
   10.4192    7.3157   15.0955 C   0  0  0  0  0  0  0  0  0  0  0  0
   10.2489    6.4227   23.0218 N   0  0  0  0  0  0  0  0  0  0  0  0
    7.2472    8.0746   23.5050 C   0  0  0  0  0  0  0  0  0  0  0  0
    9.2051    6.9101   23.4604 C   0  0  0  0  0  0  0  0  0  0  0  0
   11.9646    6.0299   21.4251 C   0  0  0  0  0  0  0  0  0  0  0  0
  1  5  1  0
  1 13  1  0
  2 20  2  0
  2 28  1  0
  2 29  1  0
  3 19  4  0
  3 25  4  0
  4 23  4  0
  4 27  1  0
  4 30  4  0
  5 17  1  0
  6  8  1  0
  6 29  1  0
  7 24  4  0
  7 26  4  0
  8 28  1  0
  9 13  2  0
 10 18  1  0
 10 21  4  0
 10 30  4  0
 11 17  2  0
 12 18  1  0
 13 15  1  0
 14 24  1  0
 15 25  1  0
 16 28  2  0
 17 20  1  0
 19 24  4  0
 20 23  1  0
 21 22  4  0
 22 23  4  0
 25 26  4  0
 27 29  2  0
M  END
$$$$

 Created by Python create_sdf_string function

 30 33  0  0  0  0  0  0  0  0999 V2000
    8.3036    9.8571   18.4133 C   0  0  0  0  0  0  0  0  0  0  0  0
    8.3694    7.6612   22.6703 C   0  0  0  0  0  0  0  0  0  0  0  0
    8.4143    6.6863   16.2273 C   0  0  0  0  0  0  0  0  0  0  0  0
   10.7581    6.5674   21.7636 C   0  0  0  0  0  0  0  0  0  0  0  0
    8.4452    8.7960   19.2958 O   0  0  0  0  0  0  0  0  0  0  0  0
    8.7122    6.7842   24.8569 C   0  0  0  0  0  0  0  0  0  0  0  0
   10.3400    6.1726   14.3081 C   0  0  0  0  0  0  0  0  0  0  0  0
    7.4297    7.5873   24.8962 C   0  0  0  0  0  0  0  0  0  0  0  0
    8.1566   10.0536   16.0516 O   0  0  0  0  0  0  0  0  0  0  0  0
   12.4989    6.2074   20.1776 C   0  0  0  0  0  0  0  0  0  0  0  0
    6.9192    9.1053   20.9073 O   0  0  0  0  0  0  0  0  0  0  0  0
   14.3979    6.0729   18.7784 C   0  0  0  0  0  0  0  0  0  0  0  0
    8.6811    9.5354   16.9998 C   0  0  0  0  0  0  0  0  0  0  0  0
    9.2512    4.2713   13.7653 O   0  0  0  0  0  0  0  0  0  0  0  0
    9.6495    8.6317   16.8332 N   0  0  0  0  0  0  0  0  0  0  0  0
    6.2934    8.6988   23.1988 O   0  0  0  0  0  0  0  0  0  0  0  0
    7.9806    8.6543   20.5437 C   0  0  0  0  0  0  0  0  0  0  0  0
   13.7270    5.7144   19.8610 O   0  0  0  0  0  0  0  0  0  0  0  0
    8.3351    5.5235   15.4478 C   0  0  0  0  0  0  0  0  0  0  0  0
    8.7700    7.8434   21.3915 C   0  0  0  0  0  0  0  0  0  0  0  0
   11.7856    6.8851   19.2401 C   0  0  0  0  0  0  0  0  0  0  0  0
   10.5281    7.4276   19.5649 C   0  0  0  0  0  0  0  0  0  0  0  0
   10.0256    7.2907   20.8484 C   0  0  0  0  0  0  0  0  0  0  0  0
    9.3113    5.3049   14.4911 C   0  0  0  0  0  0  0  0  0  0  0  0
    9.4607    7.5646   16.0139 C   0  0  0  0  0  0  0  0  0  0  0  0
   10.4192    7.3157   15.0955 C   0  0  0  0  0  0  0  0  0  0  0  0
   10.2489    6.4227   23.0218 N   0  0  0  0  0  0  0  0  0  0  0  0
    7.2472    8.0746   23.5050 C   0  0  0  0  0  0  0  0  0  0  0  0
    9.2051    6.9101   23.4604 C   0  0  0  0  0  0  0  0  0  0  0  0
   11.9646    6.0299   21.4251 C   0  0  0  0  0  0  0  0  0  0  0  0
  1  5  1  0
  1 13  1  0
  2 20  2  0
  2 28  1  0
  2 29  1  0
  3 19  4  0
  3 25  4  0
  4 23  4  0
  4 27  1  0
  4 30  4  0
  5 17  1  0
  6  8  1  0
  6 29  1  0
  7 24  4  0
  7 26  4  0
  8 28  1  0
  9 13  2  0
 10 18  1  0
 10 21  4  0
 10 30  4  0
 11 17  2  0
 12 18  1  0
 13 15  1  0
 14 24  1  0
 15 25  1  0
 16 28  2  0
 17 20  1  0
 19 24  4  0
 20 23  1  0
 21 22  4  0
 22 23  4  0
 25 26  4  0
 27 29  2  0
M  END
$$$$

 Created by Python create_sdf_string function

 30 33  0  0  0  0  0  0  0  0999 V2000
    8.3036    9.8571   18.4133 C   0  0  0  0  0  0  0  0  0  0  0  0
    8.3694    7.6612   22.6703 C   0  0  0  0  0  0  0  0  0  0  0  0
    8.4143    6.6863   16.2273 C   0  0  0  0  0  0  0  0  0  0  0  0
   10.7581    6.5674   21.7636 C   0  0  0  0  0  0  0  0  0  0  0  0
    8.4452    8.7960   19.2958 O   0  0  0  0  0  0  0  0  0  0  0  0
    8.7122    6.7842   24.8569 C   0  0  0  0  0  0  0  0  0  0  0  0
   10.3400    6.1726   14.3081 C   0  0  0  0  0  0  0  0  0  0  0  0
    7.4297    7.5873   24.8962 C   0  0  0  0  0  0  0  0  0  0  0  0
    8.1566   10.0536   16.0516 O   0  0  0  0  0  0  0  0  0  0  0  0
   12.4989    6.2074   20.1776 C   0  0  0  0  0  0  0  0  0  0  0  0
    6.9192    9.1053   20.9073 O   0  0  0  0  0  0  0  0  0  0  0  0
   14.3979    6.0729   18.7784 C   0  0  0  0  0  0  0  0  0  0  0  0
    8.6811    9.5354   16.9998 C   0  0  0  0  0  0  0  0  0  0  0  0
    9.2512    4.2713   13.7653 O   0  0  0  0  0  0  0  0  0  0  0  0
    9.6495    8.6317   16.8332 N   0  0  0  0  0  0  0  0  0  0  0  0
    6.2934    8.6988   23.1988 O   0  0  0  0  0  0  0  0  0  0  0  0
    7.9806    8.6543   20.5437 C   0  0  0  0  0  0  0  0  0  0  0  0
   13.7270    5.7144   19.8610 O   0  0  0  0  0  0  0  0  0  0  0  0
    8.3351    5.5235   15.4478 C   0  0  0  0  0  0  0  0  0  0  0  0
    8.7700    7.8434   21.3915 C   0  0  0  0  0  0  0  0  0  0  0  0
   11.7856    6.8851   19.2401 C   0  0  0  0  0  0  0  0  0  0  0  0
   10.5281    7.4276   19.5649 C   0  0  0  0  0  0  0  0  0  0  0  0
   10.0256    7.2907   20.8484 C   0  0  0  0  0  0  0  0  0  0  0  0
    9.3113    5.3049   14.4911 C   0  0  0  0  0  0  0  0  0  0  0  0
    9.4607    7.5646   16.0139 C   0  0  0  0  0  0  0  0  0  0  0  0
   10.4192    7.3157   15.0955 C   0  0  0  0  0  0  0  0  0  0  0  0
   10.2489    6.4227   23.0218 N   0  0  0  0  0  0  0  0  0  0  0  0
    7.2472    8.0746   23.5050 C   0  0  0  0  0  0  0  0  0  0  0  0
    9.2051    6.9101   23.4604 C   0  0  0  0  0  0  0  0  0  0  0  0
   11.9646    6.0299   21.4251 C   0  0  0  0  0  0  0  0  0  0  0  0
  1  5  1  0
  1 13  1  0
  2 20  2  0
  2 28  1  0
  2 29  1  0
  3 19  4  0
  3 25  4  0
  4 23  4  0
  4 27  1  0
  4 30  4  0
  5 17  1  0
  6  8  1  0
  6 29  1  0
  7 24  4  0
  7 26  4  0
  8 28  1  0
  9 13  2  0
 10 18  1  0
 10 21  4  0
 10 30  4  0
 11 17  2  0
 12 18  1  0
 13 15  1  0
 14 24  1  0
 15 25  1  0
 16 28  2  0
 17 20  1  0
 19 24  4  0
 20 23  1  0
 21 22  4  0
 22 23  4  0
 25 26  4  0
 27 29  2  0
M  END
$$$$

 Created by Python create_sdf_string function

 30 33  0  0  0  0  0  0  0  0999 V2000
    8.3036    9.8571   18.4133 C   0  0  0  0  0  0  0  0  0  0  0  0
    8.3694    7.6612   22.6703 C   0  0  0  0  0  0  0  0  0  0  0  0
    8.4143    6.6863   16.2273 C   0  0  0  0  0  0  0  0  0  0  0  0
   10.7581    6.5674   21.7636 C   0  0  0  0  0  0  0  0  0  0  0  0
    8.4452    8.7960   19.2958 O   0  0  0  0  0  0  0  0  0  0  0  0
    8.7122    6.7842   24.8569 C   0  0  0  0  0  0  0  0  0  0  0  0
   10.3400    6.1726   14.3081 C   0  0  0  0  0  0  0  0  0  0  0  0
    7.4297    7.5873   24.8962 C   0  0  0  0  0  0  0  0  0  0  0  0
    8.1566   10.0536   16.0516 O   0  0  0  0  0  0  0  0  0  0  0  0
   12.4989    6.2074   20.1776 C   0  0  0  0  0  0  0  0  0  0  0  0
    6.9192    9.1053   20.9073 O   0  0  0  0  0  0  0  0  0  0  0  0
   14.3979    6.0729   18.7784 C   0  0  0  0  0  0  0  0  0  0  0  0
    8.6811    9.5354   16.9998 C   0  0  0  0  0  0  0  0  0  0  0  0
    9.2512    4.2713   13.7653 O   0  0  0  0  0  0  0  0  0  0  0  0
    9.6495    8.6317   16.8332 N   0  0  0  0  0  0  0  0  0  0  0  0
    6.2934    8.6988   23.1988 O   0  0  0  0  0  0  0  0  0  0  0  0
    7.9806    8.6543   20.5437 C   0  0  0  0  0  0  0  0  0  0  0  0
   13.7270    5.7144   19.8610 O   0  0  0  0  0  0  0  0  0  0  0  0
    8.3351    5.5235   15.4478 C   0  0  0  0  0  0  0  0  0  0  0  0
    8.7700    7.8434   21.3915 C   0  0  0  0  0  0  0  0  0  0  0  0
   11.7856    6.8851   19.2401 C   0  0  0  0  0  0  0  0  0  0  0  0
   10.5281    7.4276   19.5649 C   0  0  0  0  0  0  0  0  0  0  0  0
   10.0256    7.2907   20.8484 C   0  0  0  0  0  0  0  0  0  0  0  0
    9.3113    5.3049   14.4911 C   0  0  0  0  0  0  0  0  0  0  0  0
    9.4607    7.5646   16.0139 C   0  0  0  0  0  0  0  0  0  0  0  0
   10.4192    7.3157   15.0955 C   0  0  0  0  0  0  0  0  0  0  0  0
   10.2489    6.4227   23.0218 N   0  0  0  0  0  0  0  0  0  0  0  0
    7.2472    8.0746   23.5050 C   0  0  0  0  0  0  0  0  0  0  0  0
    9.2051    6.9101   23.4604 C   0  0  0  0  0  0  0  0  0  0  0  0
   11.9646    6.0299   21.4251 C   0  0  0  0  0  0  0  0  0  0  0  0
  1  5  1  0
  1 13  1  0
  2 20  2  0
  2 28  1  0
  2 29  1  0
  3 19  4  0
  3 25  4  0
  4 23  4  0
  4 27  1  0
  4 30  4  0
  5 17  1  0
  6  8  1  0
  6 29  1  0
  7 24  4  0
  7 26  4  0
  8 28  1  0
  9 13  2  0
 10 18  1  0
 10 21  4  0
 10 30  4  0
 11 17  2  0
 12 18  1  0
 13 15  1  0
 14 24  1  0
 15 25  1  0
 16 28  2  0
 17 20  1  0
 19 24  4  0
 20 23  1  0
 21 22  4  0
 22 23  4  0
 25 26  4  0
 27 29  2  0
M  END
$$$$

 Created by Python create_sdf_string function

 30 33  0  0  0  0  0  0  0  0999 V2000
    8.3036    9.8571   18.4133 C   0  0  0  0  0  0  0  0  0  0  0  0
    8.3694    7.6612   22.6703 C   0  0  0  0  0  0  0  0  0  0  0  0
    8.4143    6.6863   16.2273 C   0  0  0  0  0  0  0  0  0  0  0  0
   10.7581    6.5674   21.7636 C   0  0  0  0  0  0  0  0  0  0  0  0
    8.4452    8.7960   19.2958 O   0  0  0  0  0  0  0  0  0  0  0  0
    8.7122    6.7842   24.8569 C   0  0  0  0  0  0  0  0  0  0  0  0
   10.3400    6.1726   14.3081 C   0  0  0  0  0  0  0  0  0  0  0  0
    7.4297    7.5873   24.8962 C   0  0  0  0  0  0  0  0  0  0  0  0
    8.1566   10.0536   16.0516 O   0  0  0  0  0  0  0  0  0  0  0  0
   12.4989    6.2074   20.1776 C   0  0  0  0  0  0  0  0  0  0  0  0
    6.9192    9.1053   20.9073 O   0  0  0  0  0  0  0  0  0  0  0  0
   14.3979    6.0729   18.7784 C   0  0  0  0  0  0  0  0  0  0  0  0
    8.6811    9.5354   16.9998 C   0  0  0  0  0  0  0  0  0  0  0  0
    9.2512    4.2713   13.7653 O   0  0  0  0  0  0  0  0  0  0  0  0
    9.6495    8.6317   16.8332 N   0  0  0  0  0  0  0  0  0  0  0  0
    6.2934    8.6988   23.1988 O   0  0  0  0  0  0  0  0  0  0  0  0
    7.9806    8.6543   20.5437 C   0  0  0  0  0  0  0  0  0  0  0  0
   13.7270    5.7144   19.8610 O   0  0  0  0  0  0  0  0  0  0  0  0
    8.3351    5.5235   15.4478 C   0  0  0  0  0  0  0  0  0  0  0  0
    8.7700    7.8434   21.3915 C   0  0  0  0  0  0  0  0  0  0  0  0
   11.7856    6.8851   19.2401 C   0  0  0  0  0  0  0  0  0  0  0  0
   10.5281    7.4276   19.5649 C   0  0  0  0  0  0  0  0  0  0  0  0
   10.0256    7.2907   20.8484 C   0  0  0  0  0  0  0  0  0  0  0  0
    9.3113    5.3049   14.4911 C   0  0  0  0  0  0  0  0  0  0  0  0
    9.4607    7.5646   16.0139 C   0  0  0  0  0  0  0  0  0  0  0  0
   10.4192    7.3157   15.0955 C   0  0  0  0  0  0  0  0  0  0  0  0
   10.2489    6.4227   23.0218 N   0  0  0  0  0  0  0  0  0  0  0  0
    7.2472    8.0746   23.5050 C   0  0  0  0  0  0  0  0  0  0  0  0
    9.2051    6.9101   23.4604 C   0  0  0  0  0  0  0  0  0  0  0  0
   11.9646    6.0299   21.4251 C   0  0  0  0  0  0  0  0  0  0  0  0
  1  5  1  0
  1 13  1  0
  2 20  2  0
  2 28  1  0
  2 29  1  0
  3 19  4  0
  3 25  4  0
  4 23  4  0
  4 27  1  0
  4 30  4  0
  5 17  1  0
  6  8  1  0
  6 29  1  0
  7 24  4  0
  7 26  4  0
  8 28  1  0
  9 13  2  0
 10 18  1  0
 10 21  4  0
 10 30  4  0
 11 17  2  0
 12 18  1  0
 13 15  1  0
 14 24  1  0
 15 25  1  0
 16 28  2  0
 17 20  1  0
 19 24  4  0
 20 23  1  0
 21 22  4  0
 22 23  4  0
 25 26  4  0
 27 29  2  0
M  END
$$$$

 Created by Python create_sdf_string function

 30 33  0  0  0  0  0  0  0  0999 V2000
    8.3036    9.8571   18.4133 C   0  0  0  0  0  0  0  0  0  0  0  0
    8.3694    7.6612   22.6703 C   0  0  0  0  0  0  0  0  0  0  0  0
    8.4143    6.6863   16.2273 C   0  0  0  0  0  0  0  0  0  0  0  0
   10.7581    6.5674   21.7636 C   0  0  0  0  0  0  0  0  0  0  0  0
    8.4452    8.7960   19.2958 O   0  0  0  0  0  0  0  0  0  0  0  0
    8.7122    6.7842   24.8569 C   0  0  0  0  0  0  0  0  0  0  0  0
   10.3400    6.1726   14.3081 C   0  0  0  0  0  0  0  0  0  0  0  0
    7.4297    7.5873   24.8962 C   0  0  0  0  0  0  0  0  0  0  0  0
    8.1566   10.0536   16.0516 O   0  0  0  0  0  0  0  0  0  0  0  0
   12.4989    6.2074   20.1776 C   0  0  0  0  0  0  0  0  0  0  0  0
    6.9192    9.1053   20.9073 O   0  0  0  0  0  0  0  0  0  0  0  0
   14.3979    6.0729   18.7784 C   0  0  0  0  0  0  0  0  0  0  0  0
    8.6811    9.5354   16.9998 C   0  0  0  0  0  0  0  0  0  0  0  0
    9.2512    4.2713   13.7653 O   0  0  0  0  0  0  0  0  0  0  0  0
    9.6495    8.6317   16.8332 N   0  0  0  0  0  0  0  0  0  0  0  0
    6.2934    8.6988   23.1988 O   0  0  0  0  0  0  0  0  0  0  0  0
    7.9806    8.6543   20.5437 C   0  0  0  0  0  0  0  0  0  0  0  0
   13.7270    5.7144   19.8610 O   0  0  0  0  0  0  0  0  0  0  0  0
    8.3351    5.5235   15.4478 C   0  0  0  0  0  0  0  0  0  0  0  0
    8.7700    7.8434   21.3915 C   0  0  0  0  0  0  0  0  0  0  0  0
   11.7856    6.8851   19.2401 C   0  0  0  0  0  0  0  0  0  0  0  0
   10.5281    7.4276   19.5649 C   0  0  0  0  0  0  0  0  0  0  0  0
   10.0256    7.2907   20.8484 C   0  0  0  0  0  0  0  0  0  0  0  0
    9.3113    5.3049   14.4911 C   0  0  0  0  0  0  0  0  0  0  0  0
    9.4607    7.5646   16.0139 C   0  0  0  0  0  0  0  0  0  0  0  0
   10.4192    7.3157   15.0955 C   0  0  0  0  0  0  0  0  0  0  0  0
   10.2489    6.4227   23.0218 N   0  0  0  0  0  0  0  0  0  0  0  0
    7.2472    8.0746   23.5050 C   0  0  0  0  0  0  0  0  0  0  0  0
    9.2051    6.9101   23.4604 C   0  0  0  0  0  0  0  0  0  0  0  0
   11.9646    6.0299   21.4251 C   0  0  0  0  0  0  0  0  0  0  0  0
  1  5  1  0
  1 13  1  0
  2 20  2  0
  2 28  1  0
  2 29  1  0
  3 19  4  0
  3 25  4  0
  4 23  4  0
  4 27  1  0
  4 30  4  0
  5 17  1  0
  6  8  1  0
  6 29  1  0
  7 24  4  0
  7 26  4  0
  8 28  1  0
  9 13  2  0
 10 18  1  0
 10 21  4  0
 10 30  4  0
 11 17  2  0
 12 18  1  0
 13 15  1  0
 14 24  1  0
 15 25  1  0
 16 28  2  0
 17 20  1  0
 19 24  4  0
 20 23  1  0
 21 22  4  0
 22 23  4  0
 25 26  4  0
 27 29  2  0
M  END
$$$$

 Created by Python create_sdf_string function

 30 33  0  0  0  0  0  0  0  0999 V2000
    8.3036    9.8571   18.4133 C   0  0  0  0  0  0  0  0  0  0  0  0
    8.3694    7.6612   22.6703 C   0  0  0  0  0  0  0  0  0  0  0  0
    8.4143    6.6863   16.2273 C   0  0  0  0  0  0  0  0  0  0  0  0
   10.7581    6.5674   21.7636 C   0  0  0  0  0  0  0  0  0  0  0  0
    8.4452    8.7960   19.2958 O   0  0  0  0  0  0  0  0  0  0  0  0
    8.7122    6.7842   24.8569 C   0  0  0  0  0  0  0  0  0  0  0  0
   10.3400    6.1726   14.3081 C   0  0  0  0  0  0  0  0  0  0  0  0
    7.4297    7.5873   24.8962 C   0  0  0  0  0  0  0  0  0  0  0  0
    8.1566   10.0536   16.0516 O   0  0  0  0  0  0  0  0  0  0  0  0
   12.4989    6.2074   20.1776 C   0  0  0  0  0  0  0  0  0  0  0  0
    6.9192    9.1053   20.9073 O   0  0  0  0  0  0  0  0  0  0  0  0
   14.3979    6.0729   18.7784 C   0  0  0  0  0  0  0  0  0  0  0  0
    8.6811    9.5354   16.9998 C   0  0  0  0  0  0  0  0  0  0  0  0
    9.2512    4.2713   13.7653 O   0  0  0  0  0  0  0  0  0  0  0  0
    9.6495    8.6317   16.8332 N   0  0  0  0  0  0  0  0  0  0  0  0
    6.2934    8.6988   23.1988 O   0  0  0  0  0  0  0  0  0  0  0  0
    7.9806    8.6543   20.5437 C   0  0  0  0  0  0  0  0  0  0  0  0
   13.7270    5.7144   19.8610 O   0  0  0  0  0  0  0  0  0  0  0  0
    8.3351    5.5235   15.4478 C   0  0  0  0  0  0  0  0  0  0  0  0
    8.7700    7.8434   21.3915 C   0  0  0  0  0  0  0  0  0  0  0  0
   11.7856    6.8851   19.2401 C   0  0  0  0  0  0  0  0  0  0  0  0
   10.5281    7.4276   19.5649 C   0  0  0  0  0  0  0  0  0  0  0  0
   10.0256    7.2907   20.8484 C   0  0  0  0  0  0  0  0  0  0  0  0
    9.3113    5.3049   14.4911 C   0  0  0  0  0  0  0  0  0  0  0  0
    9.4607    7.5646   16.0139 C   0  0  0  0  0  0  0  0  0  0  0  0
   10.4192    7.3157   15.0955 C   0  0  0  0  0  0  0  0  0  0  0  0
   10.2489    6.4227   23.0218 N   0  0  0  0  0  0  0  0  0  0  0  0
    7.2472    8.0746   23.5050 C   0  0  0  0  0  0  0  0  0  0  0  0
    9.2051    6.9101   23.4604 C   0  0  0  0  0  0  0  0  0  0  0  0
   11.9646    6.0299   21.4251 C   0  0  0  0  0  0  0  0  0  0  0  0
  1  5  1  0
  1 13  1  0
  2 20  2  0
  2 28  1  0
  2 29  1  0
  3 19  4  0
  3 25  4  0
  4 23  4  0
  4 27  1  0
  4 30  4  0
  5 17  1  0
  6  8  1  0
  6 29  1  0
  7 24  4  0
  7 26  4  0
  8 28  1  0
  9 13  2  0
 10 18  1  0
 10 21  4  0
 10 30  4  0
 11 17  2  0
 12 18  1  0
 13 15  1  0
 14 24  1  0
 15 25  1  0
 16 28  2  0
 17 20  1  0
 19 24  4  0
 20 23  1  0
 21 22  4  0
 22 23  4  0
 25 26  4  0
 27 29  2  0
M  END
$$$$

 Created by Python create_sdf_string function

 30 33  0  0  0  0  0  0  0  0999 V2000
    8.3036    9.8571   18.4133 C   0  0  0  0  0  0  0  0  0  0  0  0
    8.3694    7.6612   22.6703 C   0  0  0  0  0  0  0  0  0  0  0  0
    8.4143    6.6863   16.2273 C   0  0  0  0  0  0  0  0  0  0  0  0
   10.7581    6.5674   21.7636 C   0  0  0  0  0  0  0  0  0  0  0  0
    8.4452    8.7960   19.2958 O   0  0  0  0  0  0  0  0  0  0  0  0
    8.7122    6.7842   24.8569 C   0  0  0  0  0  0  0  0  0  0  0  0
   10.3400    6.1726   14.3081 C   0  0  0  0  0  0  0  0  0  0  0  0
    7.4297    7.5873   24.8962 C   0  0  0  0  0  0  0  0  0  0  0  0
    8.1566   10.0536   16.0516 O   0  0  0  0  0  0  0  0  0  0  0  0
   12.4989    6.2074   20.1776 C   0  0  0  0  0  0  0  0  0  0  0  0
    6.9192    9.1053   20.9073 O   0  0  0  0  0  0  0  0  0  0  0  0
   14.3979    6.0729   18.7784 C   0  0  0  0  0  0  0  0  0  0  0  0
    8.6811    9.5354   16.9998 C   0  0  0  0  0  0  0  0  0  0  0  0
    9.2512    4.2713   13.7653 O   0  0  0  0  0  0  0  0  0  0  0  0
    9.6495    8.6317   16.8332 N   0  0  0  0  0  0  0  0  0  0  0  0
    6.2934    8.6988   23.1988 O   0  0  0  0  0  0  0  0  0  0  0  0
    7.9806    8.6543   20.5437 C   0  0  0  0  0  0  0  0  0  0  0  0
   13.7270    5.7144   19.8610 O   0  0  0  0  0  0  0  0  0  0  0  0
    8.3351    5.5235   15.4478 C   0  0  0  0  0  0  0  0  0  0  0  0
    8.7700    7.8434   21.3915 C   0  0  0  0  0  0  0  0  0  0  0  0
   11.7856    6.8851   19.2401 C   0  0  0  0  0  0  0  0  0  0  0  0
   10.5281    7.4276   19.5649 C   0  0  0  0  0  0  0  0  0  0  0  0
   10.0256    7.2907   20.8484 C   0  0  0  0  0  0  0  0  0  0  0  0
    9.3113    5.3049   14.4911 C   0  0  0  0  0  0  0  0  0  0  0  0
    9.4607    7.5646   16.0139 C   0  0  0  0  0  0  0  0  0  0  0  0
   10.4192    7.3157   15.0955 C   0  0  0  0  0  0  0  0  0  0  0  0
   10.2489    6.4227   23.0218 N   0  0  0  0  0  0  0  0  0  0  0  0
    7.2472    8.0746   23.5050 C   0  0  0  0  0  0  0  0  0  0  0  0
    9.2051    6.9101   23.4604 C   0  0  0  0  0  0  0  0  0  0  0  0
   11.9646    6.0299   21.4251 C   0  0  0  0  0  0  0  0  0  0  0  0
  1  5  1  0
  1 13  1  0
  2 20  2  0
  2 28  1  0
  2 29  1  0
  3 19  4  0
  3 25  4  0
  4 23  4  0
  4 27  1  0
  4 30  4  0
  5 17  1  0
  6  8  1  0
  6 29  1  0
  7 24  4  0
  7 26  4  0
  8 28  1  0
  9 13  2  0
 10 18  1  0
 10 21  4  0
 10 30  4  0
 11 17  2  0
 12 18  1  0
 13 15  1  0
 14 24  1  0
 15 25  1  0
 16 28  2  0
 17 20  1  0
 19 24  4  0
 20 23  1  0
 21 22  4  0
 22 23  4  0
 25 26  4  0
 27 29  2  0
M  END
$$$$

 Created by Python create_sdf_string function

 30 33  0  0  0  0  0  0  0  0999 V2000
    8.3036    9.8571   18.4133 C   0  0  0  0  0  0  0  0  0  0  0  0
    8.3694    7.6612   22.6703 C   0  0  0  0  0  0  0  0  0  0  0  0
    8.4143    6.6863   16.2273 C   0  0  0  0  0  0  0  0  0  0  0  0
   10.7581    6.5674   21.7636 C   0  0  0  0  0  0  0  0  0  0  0  0
    8.4452    8.7960   19.2958 O   0  0  0  0  0  0  0  0  0  0  0  0
    8.7122    6.7842   24.8569 C   0  0  0  0  0  0  0  0  0  0  0  0
   10.3400    6.1726   14.3081 C   0  0  0  0  0  0  0  0  0  0  0  0
    7.4297    7.5873   24.8962 C   0  0  0  0  0  0  0  0  0  0  0  0
    8.1566   10.0536   16.0516 O   0  0  0  0  0  0  0  0  0  0  0  0
   12.4989    6.2074   20.1776 C   0  0  0  0  0  0  0  0  0  0  0  0
    6.9192    9.1053   20.9073 O   0  0  0  0  0  0  0  0  0  0  0  0
   14.3979    6.0729   18.7784 C   0  0  0  0  0  0  0  0  0  0  0  0
    8.6811    9.5354   16.9998 C   0  0  0  0  0  0  0  0  0  0  0  0
    9.2512    4.2713   13.7653 O   0  0  0  0  0  0  0  0  0  0  0  0
    9.6495    8.6317   16.8332 N   0  0  0  0  0  0  0  0  0  0  0  0
    6.2934    8.6988   23.1988 O   0  0  0  0  0  0  0  0  0  0  0  0
    7.9806    8.6543   20.5437 C   0  0  0  0  0  0  0  0  0  0  0  0
   13.7270    5.7144   19.8610 O   0  0  0  0  0  0  0  0  0  0  0  0
    8.3351    5.5235   15.4478 C   0  0  0  0  0  0  0  0  0  0  0  0
    8.7700    7.8434   21.3915 C   0  0  0  0  0  0  0  0  0  0  0  0
   11.7856    6.8851   19.2401 C   0  0  0  0  0  0  0  0  0  0  0  0
   10.5281    7.4276   19.5649 C   0  0  0  0  0  0  0  0  0  0  0  0
   10.0256    7.2907   20.8484 C   0  0  0  0  0  0  0  0  0  0  0  0
    9.3113    5.3049   14.4911 C   0  0  0  0  0  0  0  0  0  0  0  0
    9.4607    7.5646   16.0139 C   0  0  0  0  0  0  0  0  0  0  0  0
   10.4192    7.3157   15.0955 C   0  0  0  0  0  0  0  0  0  0  0  0
   10.2489    6.4227   23.0218 N   0  0  0  0  0  0  0  0  0  0  0  0
    7.2472    8.0746   23.5050 C   0  0  0  0  0  0  0  0  0  0  0  0
    9.2051    6.9101   23.4604 C   0  0  0  0  0  0  0  0  0  0  0  0
   11.9646    6.0299   21.4251 C   0  0  0  0  0  0  0  0  0  0  0  0
  1  5  1  0
  1 13  1  0
  2 20  2  0
  2 28  1  0
  2 29  1  0
  3 19  4  0
  3 25  4  0
  4 23  4  0
  4 27  1  0
  4 30  4  0
  5 17  1  0
  6  8  1  0
  6 29  1  0
  7 24  4  0
  7 26  4  0
  8 28  1  0
  9 13  2  0
 10 18  1  0
 10 21  4  0
 10 30  4  0
 11 17  2  0
 12 18  1  0
 13 15  1  0
 14 24  1  0
 15 25  1  0
 16 28  2  0
 17 20  1  0
 19 24  4  0
 20 23  1  0
 21 22  4  0
 22 23  4  0
 25 26  4  0
 27 29  2  0
M  END
$$$$

 Created by Python create_sdf_string function

 30 33  0  0  0  0  0  0  0  0999 V2000
    8.3036    9.8571   18.4133 C   0  0  0  0  0  0  0  0  0  0  0  0
    8.3694    7.6612   22.6703 C   0  0  0  0  0  0  0  0  0  0  0  0
    8.4143    6.6863   16.2273 C   0  0  0  0  0  0  0  0  0  0  0  0
   10.7581    6.5674   21.7636 C   0  0  0  0  0  0  0  0  0  0  0  0
    8.4452    8.7960   19.2958 O   0  0  0  0  0  0  0  0  0  0  0  0
    8.7122    6.7842   24.8569 C   0  0  0  0  0  0  0  0  0  0  0  0
   10.3400    6.1726   14.3081 C   0  0  0  0  0  0  0  0  0  0  0  0
    7.4297    7.5873   24.8962 C   0  0  0  0  0  0  0  0  0  0  0  0
    8.1566   10.0536   16.0516 O   0  0  0  0  0  0  0  0  0  0  0  0
   12.4989    6.2074   20.1776 C   0  0  0  0  0  0  0  0  0  0  0  0
    6.9192    9.1053   20.9073 O   0  0  0  0  0  0  0  0  0  0  0  0
   14.3979    6.0729   18.7784 C   0  0  0  0  0  0  0  0  0  0  0  0
    8.6811    9.5354   16.9998 C   0  0  0  0  0  0  0  0  0  0  0  0
    9.2512    4.2713   13.7653 O   0  0  0  0  0  0  0  0  0  0  0  0
    9.6495    8.6317   16.8332 N   0  0  0  0  0  0  0  0  0  0  0  0
    6.2934    8.6988   23.1988 O   0  0  0  0  0  0  0  0  0  0  0  0
    7.9806    8.6543   20.5437 C   0  0  0  0  0  0  0  0  0  0  0  0
   13.7270    5.7144   19.8610 O   0  0  0  0  0  0  0  0  0  0  0  0
    8.3351    5.5235   15.4478 C   0  0  0  0  0  0  0  0  0  0  0  0
    8.7700    7.8434   21.3915 C   0  0  0  0  0  0  0  0  0  0  0  0
   11.7856    6.8851   19.2401 C   0  0  0  0  0  0  0  0  0  0  0  0
   10.5281    7.4276   19.5649 C   0  0  0  0  0  0  0  0  0  0  0  0
   10.0256    7.2907   20.8484 C   0  0  0  0  0  0  0  0  0  0  0  0
    9.3113    5.3049   14.4911 C   0  0  0  0  0  0  0  0  0  0  0  0
    9.4607    7.5646   16.0139 C   0  0  0  0  0  0  0  0  0  0  0  0
   10.4192    7.3157   15.0955 C   0  0  0  0  0  0  0  0  0  0  0  0
   10.2489    6.4227   23.0218 N   0  0  0  0  0  0  0  0  0  0  0  0
    7.2472    8.0746   23.5050 C   0  0  0  0  0  0  0  0  0  0  0  0
    9.2051    6.9101   23.4604 C   0  0  0  0  0  0  0  0  0  0  0  0
   11.9646    6.0299   21.4251 C   0  0  0  0  0  0  0  0  0  0  0  0
  1  5  1  0
  1 13  1  0
  2 20  2  0
  2 28  1  0
  2 29  1  0
  3 19  4  0
  3 25  4  0
  4 23  4  0
  4 27  1  0
  4 30  4  0
  5 17  1  0
  6  8  1  0
  6 29  1  0
  7 24  4  0
  7 26  4  0
  8 28  1  0
  9 13  2  0
 10 18  1  0
 10 21  4  0
 10 30  4  0
 11 17  2  0
 12 18  1  0
 13 15  1  0
 14 24  1  0
 15 25  1  0
 16 28  2  0
 17 20  1  0
 19 24  4  0
 20 23  1  0
 21 22  4  0
 22 23  4  0
 25 26  4  0
 27 29  2  0
M  END
$$$$

 Created by Python create_sdf_string function

 30 33  0  0  0  0  0  0  0  0999 V2000
    8.3036    9.8571   18.4133 C   0  0  0  0  0  0  0  0  0  0  0  0
    8.3694    7.6612   22.6703 C   0  0  0  0  0  0  0  0  0  0  0  0
    8.4143    6.6863   16.2273 C   0  0  0  0  0  0  0  0  0  0  0  0
   10.7581    6.5674   21.7636 C   0  0  0  0  0  0  0  0  0  0  0  0
    8.4452    8.7960   19.2958 O   0  0  0  0  0  0  0  0  0  0  0  0
    8.7122    6.7842   24.8569 C   0  0  0  0  0  0  0  0  0  0  0  0
   10.3400    6.1726   14.3081 C   0  0  0  0  0  0  0  0  0  0  0  0
    7.4297    7.5873   24.8962 C   0  0  0  0  0  0  0  0  0  0  0  0
    8.1566   10.0536   16.0516 O   0  0  0  0  0  0  0  0  0  0  0  0
   12.4989    6.2074   20.1776 C   0  0  0  0  0  0  0  0  0  0  0  0
    6.9192    9.1053   20.9073 O   0  0  0  0  0  0  0  0  0  0  0  0
   14.3979    6.0729   18.7784 C   0  0  0  0  0  0  0  0  0  0  0  0
    8.6811    9.5354   16.9998 C   0  0  0  0  0  0  0  0  0  0  0  0
    9.2512    4.2713   13.7653 O   0  0  0  0  0  0  0  0  0  0  0  0
    9.6495    8.6317   16.8332 N   0  0  0  0  0  0  0  0  0  0  0  0
    6.2934    8.6988   23.1988 O   0  0  0  0  0  0  0  0  0  0  0  0
    7.9806    8.6543   20.5437 C   0  0  0  0  0  0  0  0  0  0  0  0
   13.7270    5.7144   19.8610 O   0  0  0  0  0  0  0  0  0  0  0  0
    8.3351    5.5235   15.4478 C   0  0  0  0  0  0  0  0  0  0  0  0
    8.7700    7.8434   21.3915 C   0  0  0  0  0  0  0  0  0  0  0  0
   11.7856    6.8851   19.2401 C   0  0  0  0  0  0  0  0  0  0  0  0
   10.5281    7.4276   19.5649 C   0  0  0  0  0  0  0  0  0  0  0  0
   10.0256    7.2907   20.8484 C   0  0  0  0  0  0  0  0  0  0  0  0
    9.3113    5.3049   14.4911 C   0  0  0  0  0  0  0  0  0  0  0  0
    9.4607    7.5646   16.0139 C   0  0  0  0  0  0  0  0  0  0  0  0
   10.4192    7.3157   15.0955 C   0  0  0  0  0  0  0  0  0  0  0  0
   10.2489    6.4227   23.0218 N   0  0  0  0  0  0  0  0  0  0  0  0
    7.2472    8.0746   23.5050 C   0  0  0  0  0  0  0  0  0  0  0  0
    9.2051    6.9101   23.4604 C   0  0  0  0  0  0  0  0  0  0  0  0
   11.9646    6.0299   21.4251 C   0  0  0  0  0  0  0  0  0  0  0  0
  1  5  1  0
  1 13  1  0
  2 20  2  0
  2 28  1  0
  2 29  1  0
  3 19  4  0
  3 25  4  0
  4 23  4  0
  4 27  1  0
  4 30  4  0
  5 17  1  0
  6  8  1  0
  6 29  1  0
  7 24  4  0
  7 26  4  0
  8 28  1  0
  9 13  2  0
 10 18  1  0
 10 21  4  0
 10 30  4  0
 11 17  2  0
 12 18  1  0
 13 15  1  0
 14 24  1  0
 15 25  1  0
 16 28  2  0
 17 20  1  0
 19 24  4  0
 20 23  1  0
 21 22  4  0
 22 23  4  0
 25 26  4  0
 27 29  2  0
M  END
$$$$

 Created by Python create_sdf_string function

 30 33  0  0  0  0  0  0  0  0999 V2000
    8.3036    9.8571   18.4133 C   0  0  0  0  0  0  0  0  0  0  0  0
    8.3694    7.6612   22.6703 C   0  0  0  0  0  0  0  0  0  0  0  0
    8.4143    6.6863   16.2273 C   0  0  0  0  0  0  0  0  0  0  0  0
   10.7581    6.5674   21.7636 C   0  0  0  0  0  0  0  0  0  0  0  0
    8.4452    8.7960   19.2958 O   0  0  0  0  0  0  0  0  0  0  0  0
    8.7122    6.7842   24.8569 C   0  0  0  0  0  0  0  0  0  0  0  0
   10.3400    6.1726   14.3081 C   0  0  0  0  0  0  0  0  0  0  0  0
    7.4297    7.5873   24.8962 C   0  0  0  0  0  0  0  0  0  0  0  0
    8.1566   10.0536   16.0516 O   0  0  0  0  0  0  0  0  0  0  0  0
   12.4989    6.2074   20.1776 C   0  0  0  0  0  0  0  0  0  0  0  0
    6.9192    9.1053   20.9073 O   0  0  0  0  0  0  0  0  0  0  0  0
   14.3979    6.0729   18.7784 C   0  0  0  0  0  0  0  0  0  0  0  0
    8.6811    9.5354   16.9998 C   0  0  0  0  0  0  0  0  0  0  0  0
    9.2512    4.2713   13.7653 O   0  0  0  0  0  0  0  0  0  0  0  0
    9.6495    8.6317   16.8332 N   0  0  0  0  0  0  0  0  0  0  0  0
    6.2934    8.6988   23.1988 O   0  0  0  0  0  0  0  0  0  0  0  0
    7.9806    8.6543   20.5437 C   0  0  0  0  0  0  0  0  0  0  0  0
   13.7270    5.7144   19.8610 O   0  0  0  0  0  0  0  0  0  0  0  0
    8.3351    5.5235   15.4478 C   0  0  0  0  0  0  0  0  0  0  0  0
    8.7700    7.8434   21.3915 C   0  0  0  0  0  0  0  0  0  0  0  0
   11.7856    6.8851   19.2401 C   0  0  0  0  0  0  0  0  0  0  0  0
   10.5281    7.4276   19.5649 C   0  0  0  0  0  0  0  0  0  0  0  0
   10.0256    7.2907   20.8484 C   0  0  0  0  0  0  0  0  0  0  0  0
    9.3113    5.3049   14.4911 C   0  0  0  0  0  0  0  0  0  0  0  0
    9.4607    7.5646   16.0139 C   0  0  0  0  0  0  0  0  0  0  0  0
   10.4192    7.3157   15.0955 C   0  0  0  0  0  0  0  0  0  0  0  0
   10.2489    6.4227   23.0218 N   0  0  0  0  0  0  0  0  0  0  0  0
    7.2472    8.0746   23.5050 C   0  0  0  0  0  0  0  0  0  0  0  0
    9.2051    6.9101   23.4604 C   0  0  0  0  0  0  0  0  0  0  0  0
   11.9646    6.0299   21.4251 C   0  0  0  0  0  0  0  0  0  0  0  0
  1  5  1  0
  1 13  1  0
  2 20  2  0
  2 28  1  0
  2 29  1  0
  3 19  4  0
  3 25  4  0
  4 23  4  0
  4 27  1  0
  4 30  4  0
  5 17  1  0
  6  8  1  0
  6 29  1  0
  7 24  4  0
  7 26  4  0
  8 28  1  0
  9 13  2  0
 10 18  1  0
 10 21  4  0
 10 30  4  0
 11 17  2  0
 12 18  1  0
 13 15  1  0
 14 24  1  0
 15 25  1  0
 16 28  2  0
 17 20  1  0
 19 24  4  0
 20 23  1  0
 21 22  4  0
 22 23  4  0
 25 26  4  0
 27 29  2  0
M  END
$$$$

 Created by Python create_sdf_string function

 30 33  0  0  0  0  0  0  0  0999 V2000
    8.3036    9.8571   18.4133 C   0  0  0  0  0  0  0  0  0  0  0  0
    8.3694    7.6612   22.6703 C   0  0  0  0  0  0  0  0  0  0  0  0
    8.4143    6.6863   16.2273 C   0  0  0  0  0  0  0  0  0  0  0  0
   10.7581    6.5674   21.7636 C   0  0  0  0  0  0  0  0  0  0  0  0
    8.4452    8.7960   19.2958 O   0  0  0  0  0  0  0  0  0  0  0  0
    8.7122    6.7842   24.8569 C   0  0  0  0  0  0  0  0  0  0  0  0
   10.3400    6.1726   14.3081 C   0  0  0  0  0  0  0  0  0  0  0  0
    7.4297    7.5873   24.8962 C   0  0  0  0  0  0  0  0  0  0  0  0
    8.1566   10.0536   16.0516 O   0  0  0  0  0  0  0  0  0  0  0  0
   12.4989    6.2074   20.1776 C   0  0  0  0  0  0  0  0  0  0  0  0
    6.9192    9.1053   20.9073 O   0  0  0  0  0  0  0  0  0  0  0  0
   14.3979    6.0729   18.7784 C   0  0  0  0  0  0  0  0  0  0  0  0
    8.6811    9.5354   16.9998 C   0  0  0  0  0  0  0  0  0  0  0  0
    9.2512    4.2713   13.7653 O   0  0  0  0  0  0  0  0  0  0  0  0
    9.6495    8.6317   16.8332 N   0  0  0  0  0  0  0  0  0  0  0  0
    6.2934    8.6988   23.1988 O   0  0  0  0  0  0  0  0  0  0  0  0
    7.9806    8.6543   20.5437 C   0  0  0  0  0  0  0  0  0  0  0  0
   13.7270    5.7144   19.8610 O   0  0  0  0  0  0  0  0  0  0  0  0
    8.3351    5.5235   15.4478 C   0  0  0  0  0  0  0  0  0  0  0  0
    8.7700    7.8434   21.3915 C   0  0  0  0  0  0  0  0  0  0  0  0
   11.7856    6.8851   19.2401 C   0  0  0  0  0  0  0  0  0  0  0  0
   10.5281    7.4276   19.5649 C   0  0  0  0  0  0  0  0  0  0  0  0
   10.0256    7.2907   20.8484 C   0  0  0  0  0  0  0  0  0  0  0  0
    9.3113    5.3049   14.4911 C   0  0  0  0  0  0  0  0  0  0  0  0
    9.4607    7.5646   16.0139 C   0  0  0  0  0  0  0  0  0  0  0  0
   10.4192    7.3157   15.0955 C   0  0  0  0  0  0  0  0  0  0  0  0
   10.2489    6.4227   23.0218 N   0  0  0  0  0  0  0  0  0  0  0  0
    7.2472    8.0746   23.5050 C   0  0  0  0  0  0  0  0  0  0  0  0
    9.2051    6.9101   23.4604 C   0  0  0  0  0  0  0  0  0  0  0  0
   11.9646    6.0299   21.4251 C   0  0  0  0  0  0  0  0  0  0  0  0
  1  5  1  0
  1 13  1  0
  2 20  2  0
  2 28  1  0
  2 29  1  0
  3 19  4  0
  3 25  4  0
  4 23  4  0
  4 27  1  0
  4 30  4  0
  5 17  1  0
  6  8  1  0
  6 29  1  0
  7 24  4  0
  7 26  4  0
  8 28  1  0
  9 13  2  0
 10 18  1  0
 10 21  4  0
 10 30  4  0
 11 17  2  0
 12 18  1  0
 13 15  1  0
 14 24  1  0
 15 25  1  0
 16 28  2  0
 17 20  1  0
 19 24  4  0
 20 23  1  0
 21 22  4  0
 22 23  4  0
 25 26  4  0
 27 29  2  0
M  END
$$$$

 Created by Python create_sdf_string function

 30 33  0  0  0  0  0  0  0  0999 V2000
    8.3036    9.8571   18.4133 C   0  0  0  0  0  0  0  0  0  0  0  0
    8.3694    7.6612   22.6703 C   0  0  0  0  0  0  0  0  0  0  0  0
    8.4143    6.6863   16.2273 C   0  0  0  0  0  0  0  0  0  0  0  0
   10.7581    6.5674   21.7636 C   0  0  0  0  0  0  0  0  0  0  0  0
    8.4452    8.7960   19.2958 O   0  0  0  0  0  0  0  0  0  0  0  0
    8.7122    6.7842   24.8569 C   0  0  0  0  0  0  0  0  0  0  0  0
   10.3400    6.1726   14.3081 C   0  0  0  0  0  0  0  0  0  0  0  0
    7.4297    7.5873   24.8962 C   0  0  0  0  0  0  0  0  0  0  0  0
    8.1566   10.0536   16.0516 O   0  0  0  0  0  0  0  0  0  0  0  0
   12.4989    6.2074   20.1776 C   0  0  0  0  0  0  0  0  0  0  0  0
    6.9192    9.1053   20.9073 O   0  0  0  0  0  0  0  0  0  0  0  0
   14.3979    6.0729   18.7784 C   0  0  0  0  0  0  0  0  0  0  0  0
    8.6811    9.5354   16.9998 C   0  0  0  0  0  0  0  0  0  0  0  0
    9.2512    4.2713   13.7653 O   0  0  0  0  0  0  0  0  0  0  0  0
    9.6495    8.6317   16.8332 N   0  0  0  0  0  0  0  0  0  0  0  0
    6.2934    8.6988   23.1988 O   0  0  0  0  0  0  0  0  0  0  0  0
    7.9806    8.6543   20.5437 C   0  0  0  0  0  0  0  0  0  0  0  0
   13.7270    5.7144   19.8610 O   0  0  0  0  0  0  0  0  0  0  0  0
    8.3351    5.5235   15.4478 C   0  0  0  0  0  0  0  0  0  0  0  0
    8.7700    7.8434   21.3915 C   0  0  0  0  0  0  0  0  0  0  0  0
   11.7856    6.8851   19.2401 C   0  0  0  0  0  0  0  0  0  0  0  0
   10.5281    7.4276   19.5649 C   0  0  0  0  0  0  0  0  0  0  0  0
   10.0256    7.2907   20.8484 C   0  0  0  0  0  0  0  0  0  0  0  0
    9.3113    5.3049   14.4911 C   0  0  0  0  0  0  0  0  0  0  0  0
    9.4607    7.5646   16.0139 C   0  0  0  0  0  0  0  0  0  0  0  0
   10.4192    7.3157   15.0955 C   0  0  0  0  0  0  0  0  0  0  0  0
   10.2489    6.4227   23.0218 N   0  0  0  0  0  0  0  0  0  0  0  0
    7.2472    8.0746   23.5050 C   0  0  0  0  0  0  0  0  0  0  0  0
    9.2051    6.9101   23.4604 C   0  0  0  0  0  0  0  0  0  0  0  0
   11.9646    6.0299   21.4251 C   0  0  0  0  0  0  0  0  0  0  0  0
  1  5  1  0
  1 13  1  0
  2 20  2  0
  2 28  1  0
  2 29  1  0
  3 19  4  0
  3 25  4  0
  4 23  4  0
  4 27  1  0
  4 30  4  0
  5 17  1  0
  6  8  1  0
  6 29  1  0
  7 24  4  0
  7 26  4  0
  8 28  1  0
  9 13  2  0
 10 18  1  0
 10 21  4  0
 10 30  4  0
 11 17  2  0
 12 18  1  0
 13 15  1  0
 14 24  1  0
 15 25  1  0
 16 28  2  0
 17 20  1  0
 19 24  4  0
 20 23  1  0
 21 22  4  0
 22 23  4  0
 25 26  4  0
 27 29  2  0
M  END
$$$$

 Created by Python create_sdf_string function

 30 33  0  0  0  0  0  0  0  0999 V2000
    8.3036    9.8571   18.4133 C   0  0  0  0  0  0  0  0  0  0  0  0
    8.3694    7.6612   22.6703 C   0  0  0  0  0  0  0  0  0  0  0  0
    8.4143    6.6863   16.2273 C   0  0  0  0  0  0  0  0  0  0  0  0
   10.7581    6.5674   21.7636 C   0  0  0  0  0  0  0  0  0  0  0  0
    8.4452    8.7960   19.2958 O   0  0  0  0  0  0  0  0  0  0  0  0
    8.7122    6.7842   24.8569 C   0  0  0  0  0  0  0  0  0  0  0  0
   10.3400    6.1726   14.3081 C   0  0  0  0  0  0  0  0  0  0  0  0
    7.4297    7.5873   24.8962 C   0  0  0  0  0  0  0  0  0  0  0  0
    8.1566   10.0536   16.0516 O   0  0  0  0  0  0  0  0  0  0  0  0
   12.4989    6.2074   20.1776 C   0  0  0  0  0  0  0  0  0  0  0  0
    6.9192    9.1053   20.9073 O   0  0  0  0  0  0  0  0  0  0  0  0
   14.3979    6.0729   18.7784 C   0  0  0  0  0  0  0  0  0  0  0  0
    8.6811    9.5354   16.9998 C   0  0  0  0  0  0  0  0  0  0  0  0
    9.2512    4.2713   13.7653 O   0  0  0  0  0  0  0  0  0  0  0  0
    9.6495    8.6317   16.8332 N   0  0  0  0  0  0  0  0  0  0  0  0
    6.2934    8.6988   23.1988 O   0  0  0  0  0  0  0  0  0  0  0  0
    7.9806    8.6543   20.5437 C   0  0  0  0  0  0  0  0  0  0  0  0
   13.7270    5.7144   19.8610 O   0  0  0  0  0  0  0  0  0  0  0  0
    8.3351    5.5235   15.4478 C   0  0  0  0  0  0  0  0  0  0  0  0
    8.7700    7.8434   21.3915 C   0  0  0  0  0  0  0  0  0  0  0  0
   11.7856    6.8851   19.2401 C   0  0  0  0  0  0  0  0  0  0  0  0
   10.5281    7.4276   19.5649 C   0  0  0  0  0  0  0  0  0  0  0  0
   10.0256    7.2907   20.8484 C   0  0  0  0  0  0  0  0  0  0  0  0
    9.3113    5.3049   14.4911 C   0  0  0  0  0  0  0  0  0  0  0  0
    9.4607    7.5646   16.0139 C   0  0  0  0  0  0  0  0  0  0  0  0
   10.4192    7.3157   15.0955 C   0  0  0  0  0  0  0  0  0  0  0  0
   10.2489    6.4227   23.0218 N   0  0  0  0  0  0  0  0  0  0  0  0
    7.2472    8.0746   23.5050 C   0  0  0  0  0  0  0  0  0  0  0  0
    9.2051    6.9101   23.4604 C   0  0  0  0  0  0  0  0  0  0  0  0
   11.9646    6.0299   21.4251 C   0  0  0  0  0  0  0  0  0  0  0  0
  1  5  1  0
  1 13  1  0
  2 20  2  0
  2 28  1  0
  2 29  1  0
  3 19  4  0
  3 25  4  0
  4 23  4  0
  4 27  1  0
  4 30  4  0
  5 17  1  0
  6  8  1  0
  6 29  1  0
  7 24  4  0
  7 26  4  0
  8 28  1  0
  9 13  2  0
 10 18  1  0
 10 21  4  0
 10 30  4  0
 11 17  2  0
 12 18  1  0
 13 15  1  0
 14 24  1  0
 15 25  1  0
 16 28  2  0
 17 20  1  0
 19 24  4  0
 20 23  1  0
 21 22  4  0
 22 23  4  0
 25 26  4  0
 27 29  2  0
M  END
$$$$

 Created by Python create_sdf_string function

 30 33  0  0  0  0  0  0  0  0999 V2000
    8.3036    9.8571   18.4133 C   0  0  0  0  0  0  0  0  0  0  0  0
    8.3694    7.6612   22.6703 C   0  0  0  0  0  0  0  0  0  0  0  0
    8.4143    6.6863   16.2273 C   0  0  0  0  0  0  0  0  0  0  0  0
   10.7581    6.5674   21.7636 C   0  0  0  0  0  0  0  0  0  0  0  0
    8.4452    8.7960   19.2958 O   0  0  0  0  0  0  0  0  0  0  0  0
    8.7122    6.7842   24.8569 C   0  0  0  0  0  0  0  0  0  0  0  0
   10.3400    6.1726   14.3081 C   0  0  0  0  0  0  0  0  0  0  0  0
    7.4297    7.5873   24.8962 C   0  0  0  0  0  0  0  0  0  0  0  0
    8.1566   10.0536   16.0516 O   0  0  0  0  0  0  0  0  0  0  0  0
   12.4989    6.2074   20.1776 C   0  0  0  0  0  0  0  0  0  0  0  0
    6.9192    9.1053   20.9073 O   0  0  0  0  0  0  0  0  0  0  0  0
   14.3979    6.0729   18.7784 C   0  0  0  0  0  0  0  0  0  0  0  0
    8.6811    9.5354   16.9998 C   0  0  0  0  0  0  0  0  0  0  0  0
    9.2512    4.2713   13.7653 O   0  0  0  0  0  0  0  0  0  0  0  0
    9.6495    8.6317   16.8332 N   0  0  0  0  0  0  0  0  0  0  0  0
    6.2934    8.6988   23.1988 O   0  0  0  0  0  0  0  0  0  0  0  0
    7.9806    8.6543   20.5437 C   0  0  0  0  0  0  0  0  0  0  0  0
   13.7270    5.7144   19.8610 O   0  0  0  0  0  0  0  0  0  0  0  0
    8.3351    5.5235   15.4478 C   0  0  0  0  0  0  0  0  0  0  0  0
    8.7700    7.8434   21.3915 C   0  0  0  0  0  0  0  0  0  0  0  0
   11.7856    6.8851   19.2401 C   0  0  0  0  0  0  0  0  0  0  0  0
   10.5281    7.4276   19.5649 C   0  0  0  0  0  0  0  0  0  0  0  0
   10.0256    7.2907   20.8484 C   0  0  0  0  0  0  0  0  0  0  0  0
    9.3113    5.3049   14.4911 C   0  0  0  0  0  0  0  0  0  0  0  0
    9.4607    7.5646   16.0139 C   0  0  0  0  0  0  0  0  0  0  0  0
   10.4192    7.3157   15.0955 C   0  0  0  0  0  0  0  0  0  0  0  0
   10.2489    6.4227   23.0218 N   0  0  0  0  0  0  0  0  0  0  0  0
    7.2472    8.0746   23.5050 C   0  0  0  0  0  0  0  0  0  0  0  0
    9.2051    6.9101   23.4604 C   0  0  0  0  0  0  0  0  0  0  0  0
   11.9646    6.0299   21.4251 C   0  0  0  0  0  0  0  0  0  0  0  0
  1  5  1  0
  1 13  1  0
  2 20  2  0
  2 28  1  0
  2 29  1  0
  3 19  4  0
  3 25  4  0
  4 23  4  0
  4 27  1  0
  4 30  4  0
  5 17  1  0
  6  8  1  0
  6 29  1  0
  7 24  4  0
  7 26  4  0
  8 28  1  0
  9 13  2  0
 10 18  1  0
 10 21  4  0
 10 30  4  0
 11 17  2  0
 12 18  1  0
 13 15  1  0
 14 24  1  0
 15 25  1  0
 16 28  2  0
 17 20  1  0
 19 24  4  0
 20 23  1  0
 21 22  4  0
 22 23  4  0
 25 26  4  0
 27 29  2  0
M  END
$$$$

 Created by Python create_sdf_string function

 30 33  0  0  0  0  0  0  0  0999 V2000
    8.3036    9.8571   18.4133 C   0  0  0  0  0  0  0  0  0  0  0  0
    8.3694    7.6612   22.6703 C   0  0  0  0  0  0  0  0  0  0  0  0
    8.4143    6.6863   16.2273 C   0  0  0  0  0  0  0  0  0  0  0  0
   10.7581    6.5674   21.7636 C   0  0  0  0  0  0  0  0  0  0  0  0
    8.4452    8.7960   19.2958 O   0  0  0  0  0  0  0  0  0  0  0  0
    8.7122    6.7842   24.8569 C   0  0  0  0  0  0  0  0  0  0  0  0
   10.3400    6.1726   14.3081 C   0  0  0  0  0  0  0  0  0  0  0  0
    7.4297    7.5873   24.8962 C   0  0  0  0  0  0  0  0  0  0  0  0
    8.1566   10.0536   16.0516 O   0  0  0  0  0  0  0  0  0  0  0  0
   12.4989    6.2074   20.1776 C   0  0  0  0  0  0  0  0  0  0  0  0
    6.9192    9.1053   20.9073 O   0  0  0  0  0  0  0  0  0  0  0  0
   14.3979    6.0729   18.7784 C   0  0  0  0  0  0  0  0  0  0  0  0
    8.6811    9.5354   16.9998 C   0  0  0  0  0  0  0  0  0  0  0  0
    9.2512    4.2713   13.7653 O   0  0  0  0  0  0  0  0  0  0  0  0
    9.6495    8.6317   16.8332 N   0  0  0  0  0  0  0  0  0  0  0  0
    6.2934    8.6988   23.1988 O   0  0  0  0  0  0  0  0  0  0  0  0
    7.9806    8.6543   20.5437 C   0  0  0  0  0  0  0  0  0  0  0  0
   13.7270    5.7144   19.8610 O   0  0  0  0  0  0  0  0  0  0  0  0
    8.3351    5.5235   15.4478 C   0  0  0  0  0  0  0  0  0  0  0  0
    8.7700    7.8434   21.3915 C   0  0  0  0  0  0  0  0  0  0  0  0
   11.7856    6.8851   19.2401 C   0  0  0  0  0  0  0  0  0  0  0  0
   10.5281    7.4276   19.5649 C   0  0  0  0  0  0  0  0  0  0  0  0
   10.0256    7.2907   20.8484 C   0  0  0  0  0  0  0  0  0  0  0  0
    9.3113    5.3049   14.4911 C   0  0  0  0  0  0  0  0  0  0  0  0
    9.4607    7.5646   16.0139 C   0  0  0  0  0  0  0  0  0  0  0  0
   10.4192    7.3157   15.0955 C   0  0  0  0  0  0  0  0  0  0  0  0
   10.2489    6.4227   23.0218 N   0  0  0  0  0  0  0  0  0  0  0  0
    7.2472    8.0746   23.5050 C   0  0  0  0  0  0  0  0  0  0  0  0
    9.2051    6.9101   23.4604 C   0  0  0  0  0  0  0  0  0  0  0  0
   11.9646    6.0299   21.4251 C   0  0  0  0  0  0  0  0  0  0  0  0
  1  5  1  0
  1 13  1  0
  2 20  2  0
  2 28  1  0
  2 29  1  0
  3 19  4  0
  3 25  4  0
  4 23  4  0
  4 27  1  0
  4 30  4  0
  5 17  1  0
  6  8  1  0
  6 29  1  0
  7 24  4  0
  7 26  4  0
  8 28  1  0
  9 13  2  0
 10 18  1  0
 10 21  4  0
 10 30  4  0
 11 17  2  0
 12 18  1  0
 13 15  1  0
 14 24  1  0
 15 25  1  0
 16 28  2  0
 17 20  1  0
 19 24  4  0
 20 23  1  0
 21 22  4  0
 22 23  4  0
 25 26  4  0
 27 29  2  0
M  END
$$$$

 Created by Python create_sdf_string function

 30 33  0  0  0  0  0  0  0  0999 V2000
    8.3036    9.8571   18.4133 C   0  0  0  0  0  0  0  0  0  0  0  0
    8.3694    7.6612   22.6703 C   0  0  0  0  0  0  0  0  0  0  0  0
    8.4143    6.6863   16.2273 C   0  0  0  0  0  0  0  0  0  0  0  0
   10.7581    6.5674   21.7636 C   0  0  0  0  0  0  0  0  0  0  0  0
    8.4452    8.7960   19.2958 O   0  0  0  0  0  0  0  0  0  0  0  0
    8.7122    6.7842   24.8569 C   0  0  0  0  0  0  0  0  0  0  0  0
   10.3400    6.1726   14.3081 C   0  0  0  0  0  0  0  0  0  0  0  0
    7.4297    7.5873   24.8962 C   0  0  0  0  0  0  0  0  0  0  0  0
    8.1566   10.0536   16.0516 O   0  0  0  0  0  0  0  0  0  0  0  0
   12.4989    6.2074   20.1776 C   0  0  0  0  0  0  0  0  0  0  0  0
    6.9192    9.1053   20.9073 O   0  0  0  0  0  0  0  0  0  0  0  0
   14.3979    6.0729   18.7784 C   0  0  0  0  0  0  0  0  0  0  0  0
    8.6811    9.5354   16.9998 C   0  0  0  0  0  0  0  0  0  0  0  0
    9.2512    4.2713   13.7653 O   0  0  0  0  0  0  0  0  0  0  0  0
    9.6495    8.6317   16.8332 N   0  0  0  0  0  0  0  0  0  0  0  0
    6.2934    8.6988   23.1988 O   0  0  0  0  0  0  0  0  0  0  0  0
    7.9806    8.6543   20.5437 C   0  0  0  0  0  0  0  0  0  0  0  0
   13.7270    5.7144   19.8610 O   0  0  0  0  0  0  0  0  0  0  0  0
    8.3351    5.5235   15.4478 C   0  0  0  0  0  0  0  0  0  0  0  0
    8.7700    7.8434   21.3915 C   0  0  0  0  0  0  0  0  0  0  0  0
   11.7856    6.8851   19.2401 C   0  0  0  0  0  0  0  0  0  0  0  0
   10.5281    7.4276   19.5649 C   0  0  0  0  0  0  0  0  0  0  0  0
   10.0256    7.2907   20.8484 C   0  0  0  0  0  0  0  0  0  0  0  0
    9.3113    5.3049   14.4911 C   0  0  0  0  0  0  0  0  0  0  0  0
    9.4607    7.5646   16.0139 C   0  0  0  0  0  0  0  0  0  0  0  0
   10.4192    7.3157   15.0955 C   0  0  0  0  0  0  0  0  0  0  0  0
   10.2489    6.4227   23.0218 N   0  0  0  0  0  0  0  0  0  0  0  0
    7.2472    8.0746   23.5050 C   0  0  0  0  0  0  0  0  0  0  0  0
    9.2051    6.9101   23.4604 C   0  0  0  0  0  0  0  0  0  0  0  0
   11.9646    6.0299   21.4251 C   0  0  0  0  0  0  0  0  0  0  0  0
  1  5  1  0
  1 13  1  0
  2 20  2  0
  2 28  1  0
  2 29  1  0
  3 19  4  0
  3 25  4  0
  4 23  4  0
  4 27  1  0
  4 30  4  0
  5 17  1  0
  6  8  1  0
  6 29  1  0
  7 24  4  0
  7 26  4  0
  8 28  1  0
  9 13  2  0
 10 18  1  0
 10 21  4  0
 10 30  4  0
 11 17  2  0
 12 18  1  0
 13 15  1  0
 14 24  1  0
 15 25  1  0
 16 28  2  0
 17 20  1  0
 19 24  4  0
 20 23  1  0
 21 22  4  0
 22 23  4  0
 25 26  4  0
 27 29  2  0
M  END
$$$$

 Created by Python create_sdf_string function

 30 33  0  0  0  0  0  0  0  0999 V2000
    8.3036    9.8571   18.4133 C   0  0  0  0  0  0  0  0  0  0  0  0
    8.3694    7.6612   22.6703 C   0  0  0  0  0  0  0  0  0  0  0  0
    8.4143    6.6863   16.2273 C   0  0  0  0  0  0  0  0  0  0  0  0
   10.7581    6.5674   21.7636 C   0  0  0  0  0  0  0  0  0  0  0  0
    8.4452    8.7960   19.2958 O   0  0  0  0  0  0  0  0  0  0  0  0
    8.7122    6.7842   24.8569 C   0  0  0  0  0  0  0  0  0  0  0  0
   10.3400    6.1726   14.3081 C   0  0  0  0  0  0  0  0  0  0  0  0
    7.4297    7.5873   24.8962 C   0  0  0  0  0  0  0  0  0  0  0  0
    8.1566   10.0536   16.0516 O   0  0  0  0  0  0  0  0  0  0  0  0
   12.4989    6.2074   20.1776 C   0  0  0  0  0  0  0  0  0  0  0  0
    6.9192    9.1053   20.9073 O   0  0  0  0  0  0  0  0  0  0  0  0
   14.3979    6.0729   18.7784 C   0  0  0  0  0  0  0  0  0  0  0  0
    8.6811    9.5354   16.9998 C   0  0  0  0  0  0  0  0  0  0  0  0
    9.2512    4.2713   13.7653 O   0  0  0  0  0  0  0  0  0  0  0  0
    9.6495    8.6317   16.8332 N   0  0  0  0  0  0  0  0  0  0  0  0
    6.2934    8.6988   23.1988 O   0  0  0  0  0  0  0  0  0  0  0  0
    7.9806    8.6543   20.5437 C   0  0  0  0  0  0  0  0  0  0  0  0
   13.7270    5.7144   19.8610 O   0  0  0  0  0  0  0  0  0  0  0  0
    8.3351    5.5235   15.4478 C   0  0  0  0  0  0  0  0  0  0  0  0
    8.7700    7.8434   21.3915 C   0  0  0  0  0  0  0  0  0  0  0  0
   11.7856    6.8851   19.2401 C   0  0  0  0  0  0  0  0  0  0  0  0
   10.5281    7.4276   19.5649 C   0  0  0  0  0  0  0  0  0  0  0  0
   10.0256    7.2907   20.8484 C   0  0  0  0  0  0  0  0  0  0  0  0
    9.3113    5.3049   14.4911 C   0  0  0  0  0  0  0  0  0  0  0  0
    9.4607    7.5646   16.0139 C   0  0  0  0  0  0  0  0  0  0  0  0
   10.4192    7.3157   15.0955 C   0  0  0  0  0  0  0  0  0  0  0  0
   10.2489    6.4227   23.0218 N   0  0  0  0  0  0  0  0  0  0  0  0
    7.2472    8.0746   23.5050 C   0  0  0  0  0  0  0  0  0  0  0  0
    9.2051    6.9101   23.4604 C   0  0  0  0  0  0  0  0  0  0  0  0
   11.9646    6.0299   21.4251 C   0  0  0  0  0  0  0  0  0  0  0  0
  1  5  1  0
  1 13  1  0
  2 20  2  0
  2 28  1  0
  2 29  1  0
  3 19  4  0
  3 25  4  0
  4 23  4  0
  4 27  1  0
  4 30  4  0
  5 17  1  0
  6  8  1  0
  6 29  1  0
  7 24  4  0
  7 26  4  0
  8 28  1  0
  9 13  2  0
 10 18  1  0
 10 21  4  0
 10 30  4  0
 11 17  2  0
 12 18  1  0
 13 15  1  0
 14 24  1  0
 15 25  1  0
 16 28  2  0
 17 20  1  0
 19 24  4  0
 20 23  1  0
 21 22  4  0
 22 23  4  0
 25 26  4  0
 27 29  2  0
M  END
$$$$

 Created by Python create_sdf_string function

 30 33  0  0  0  0  0  0  0  0999 V2000
    8.3036    9.8571   18.4133 C   0  0  0  0  0  0  0  0  0  0  0  0
    8.3694    7.6612   22.6703 C   0  0  0  0  0  0  0  0  0  0  0  0
    8.4143    6.6863   16.2273 C   0  0  0  0  0  0  0  0  0  0  0  0
   10.7581    6.5674   21.7636 C   0  0  0  0  0  0  0  0  0  0  0  0
    8.4452    8.7960   19.2958 O   0  0  0  0  0  0  0  0  0  0  0  0
    8.7122    6.7842   24.8569 C   0  0  0  0  0  0  0  0  0  0  0  0
   10.3400    6.1726   14.3081 C   0  0  0  0  0  0  0  0  0  0  0  0
    7.4297    7.5873   24.8962 C   0  0  0  0  0  0  0  0  0  0  0  0
    8.1566   10.0536   16.0516 O   0  0  0  0  0  0  0  0  0  0  0  0
   12.4989    6.2074   20.1776 C   0  0  0  0  0  0  0  0  0  0  0  0
    6.9192    9.1053   20.9073 O   0  0  0  0  0  0  0  0  0  0  0  0
   14.3979    6.0729   18.7784 C   0  0  0  0  0  0  0  0  0  0  0  0
    8.6811    9.5354   16.9998 C   0  0  0  0  0  0  0  0  0  0  0  0
    9.2512    4.2713   13.7653 O   0  0  0  0  0  0  0  0  0  0  0  0
    9.6495    8.6317   16.8332 N   0  0  0  0  0  0  0  0  0  0  0  0
    6.2934    8.6988   23.1988 O   0  0  0  0  0  0  0  0  0  0  0  0
    7.9806    8.6543   20.5437 C   0  0  0  0  0  0  0  0  0  0  0  0
   13.7270    5.7144   19.8610 O   0  0  0  0  0  0  0  0  0  0  0  0
    8.3351    5.5235   15.4478 C   0  0  0  0  0  0  0  0  0  0  0  0
    8.7700    7.8434   21.3915 C   0  0  0  0  0  0  0  0  0  0  0  0
   11.7856    6.8851   19.2401 C   0  0  0  0  0  0  0  0  0  0  0  0
   10.5281    7.4276   19.5649 C   0  0  0  0  0  0  0  0  0  0  0  0
   10.0256    7.2907   20.8484 C   0  0  0  0  0  0  0  0  0  0  0  0
    9.3113    5.3049   14.4911 C   0  0  0  0  0  0  0  0  0  0  0  0
    9.4607    7.5646   16.0139 C   0  0  0  0  0  0  0  0  0  0  0  0
   10.4192    7.3157   15.0955 C   0  0  0  0  0  0  0  0  0  0  0  0
   10.2489    6.4227   23.0218 N   0  0  0  0  0  0  0  0  0  0  0  0
    7.2472    8.0746   23.5050 C   0  0  0  0  0  0  0  0  0  0  0  0
    9.2051    6.9101   23.4604 C   0  0  0  0  0  0  0  0  0  0  0  0
   11.9646    6.0299   21.4251 C   0  0  0  0  0  0  0  0  0  0  0  0
  1  5  1  0
  1 13  1  0
  2 20  2  0
  2 28  1  0
  2 29  1  0
  3 19  4  0
  3 25  4  0
  4 23  4  0
  4 27  1  0
  4 30  4  0
  5 17  1  0
  6  8  1  0
  6 29  1  0
  7 24  4  0
  7 26  4  0
  8 28  1  0
  9 13  2  0
 10 18  1  0
 10 21  4  0
 10 30  4  0
 11 17  2  0
 12 18  1  0
 13 15  1  0
 14 24  1  0
 15 25  1  0
 16 28  2  0
 17 20  1  0
 19 24  4  0
 20 23  1  0
 21 22  4  0
 22 23  4  0
 25 26  4  0
 27 29  2  0
M  END
$$$$

 Created by Python create_sdf_string function

 30 33  0  0  0  0  0  0  0  0999 V2000
    8.3036    9.8571   18.4133 C   0  0  0  0  0  0  0  0  0  0  0  0
    8.3694    7.6612   22.6703 C   0  0  0  0  0  0  0  0  0  0  0  0
    8.4143    6.6863   16.2273 C   0  0  0  0  0  0  0  0  0  0  0  0
   10.7581    6.5674   21.7636 C   0  0  0  0  0  0  0  0  0  0  0  0
    8.4452    8.7960   19.2958 O   0  0  0  0  0  0  0  0  0  0  0  0
    8.7122    6.7842   24.8569 C   0  0  0  0  0  0  0  0  0  0  0  0
   10.3400    6.1726   14.3081 C   0  0  0  0  0  0  0  0  0  0  0  0
    7.4297    7.5873   24.8962 C   0  0  0  0  0  0  0  0  0  0  0  0
    8.1566   10.0536   16.0516 O   0  0  0  0  0  0  0  0  0  0  0  0
   12.4989    6.2074   20.1776 C   0  0  0  0  0  0  0  0  0  0  0  0
    6.9192    9.1053   20.9073 O   0  0  0  0  0  0  0  0  0  0  0  0
   14.3979    6.0729   18.7784 C   0  0  0  0  0  0  0  0  0  0  0  0
    8.6811    9.5354   16.9998 C   0  0  0  0  0  0  0  0  0  0  0  0
    9.2512    4.2713   13.7653 O   0  0  0  0  0  0  0  0  0  0  0  0
    9.6495    8.6317   16.8332 N   0  0  0  0  0  0  0  0  0  0  0  0
    6.2934    8.6988   23.1988 O   0  0  0  0  0  0  0  0  0  0  0  0
    7.9806    8.6543   20.5437 C   0  0  0  0  0  0  0  0  0  0  0  0
   13.7270    5.7144   19.8610 O   0  0  0  0  0  0  0  0  0  0  0  0
    8.3351    5.5235   15.4478 C   0  0  0  0  0  0  0  0  0  0  0  0
    8.7700    7.8434   21.3915 C   0  0  0  0  0  0  0  0  0  0  0  0
   11.7856    6.8851   19.2401 C   0  0  0  0  0  0  0  0  0  0  0  0
   10.5281    7.4276   19.5649 C   0  0  0  0  0  0  0  0  0  0  0  0
   10.0256    7.2907   20.8484 C   0  0  0  0  0  0  0  0  0  0  0  0
    9.3113    5.3049   14.4911 C   0  0  0  0  0  0  0  0  0  0  0  0
    9.4607    7.5646   16.0139 C   0  0  0  0  0  0  0  0  0  0  0  0
   10.4192    7.3157   15.0955 C   0  0  0  0  0  0  0  0  0  0  0  0
   10.2489    6.4227   23.0218 N   0  0  0  0  0  0  0  0  0  0  0  0
    7.2472    8.0746   23.5050 C   0  0  0  0  0  0  0  0  0  0  0  0
    9.2051    6.9101   23.4604 C   0  0  0  0  0  0  0  0  0  0  0  0
   11.9646    6.0299   21.4251 C   0  0  0  0  0  0  0  0  0  0  0  0
  1  5  1  0
  1 13  1  0
  2 20  2  0
  2 28  1  0
  2 29  1  0
  3 19  4  0
  3 25  4  0
  4 23  4  0
  4 27  1  0
  4 30  4  0
  5 17  1  0
  6  8  1  0
  6 29  1  0
  7 24  4  0
  7 26  4  0
  8 28  1  0
  9 13  2  0
 10 18  1  0
 10 21  4  0
 10 30  4  0
 11 17  2  0
 12 18  1  0
 13 15  1  0
 14 24  1  0
 15 25  1  0
 16 28  2  0
 17 20  1  0
 19 24  4  0
 20 23  1  0
 21 22  4  0
 22 23  4  0
 25 26  4  0
 27 29  2  0
M  END
$$$$

 Created by Python create_sdf_string function

 30 33  0  0  0  0  0  0  0  0999 V2000
    8.3036    9.8571   18.4133 C   0  0  0  0  0  0  0  0  0  0  0  0
    8.3694    7.6612   22.6703 C   0  0  0  0  0  0  0  0  0  0  0  0
    8.4143    6.6863   16.2273 C   0  0  0  0  0  0  0  0  0  0  0  0
   10.7581    6.5674   21.7636 C   0  0  0  0  0  0  0  0  0  0  0  0
    8.4452    8.7960   19.2958 O   0  0  0  0  0  0  0  0  0  0  0  0
    8.7122    6.7842   24.8569 C   0  0  0  0  0  0  0  0  0  0  0  0
   10.3400    6.1726   14.3081 C   0  0  0  0  0  0  0  0  0  0  0  0
    7.4297    7.5873   24.8962 C   0  0  0  0  0  0  0  0  0  0  0  0
    8.1566   10.0536   16.0516 O   0  0  0  0  0  0  0  0  0  0  0  0
   12.4989    6.2074   20.1776 C   0  0  0  0  0  0  0  0  0  0  0  0
    6.9192    9.1053   20.9073 O   0  0  0  0  0  0  0  0  0  0  0  0
   14.3979    6.0729   18.7784 C   0  0  0  0  0  0  0  0  0  0  0  0
    8.6811    9.5354   16.9998 C   0  0  0  0  0  0  0  0  0  0  0  0
    9.2512    4.2713   13.7653 O   0  0  0  0  0  0  0  0  0  0  0  0
    9.6495    8.6317   16.8332 N   0  0  0  0  0  0  0  0  0  0  0  0
    6.2934    8.6988   23.1988 O   0  0  0  0  0  0  0  0  0  0  0  0
    7.9806    8.6543   20.5437 C   0  0  0  0  0  0  0  0  0  0  0  0
   13.7270    5.7144   19.8610 O   0  0  0  0  0  0  0  0  0  0  0  0
    8.3351    5.5235   15.4478 C   0  0  0  0  0  0  0  0  0  0  0  0
    8.7700    7.8434   21.3915 C   0  0  0  0  0  0  0  0  0  0  0  0
   11.7856    6.8851   19.2401 C   0  0  0  0  0  0  0  0  0  0  0  0
   10.5281    7.4276   19.5649 C   0  0  0  0  0  0  0  0  0  0  0  0
   10.0256    7.2907   20.8484 C   0  0  0  0  0  0  0  0  0  0  0  0
    9.3113    5.3049   14.4911 C   0  0  0  0  0  0  0  0  0  0  0  0
    9.4607    7.5646   16.0139 C   0  0  0  0  0  0  0  0  0  0  0  0
   10.4192    7.3157   15.0955 C   0  0  0  0  0  0  0  0  0  0  0  0
   10.2489    6.4227   23.0218 N   0  0  0  0  0  0  0  0  0  0  0  0
    7.2472    8.0746   23.5050 C   0  0  0  0  0  0  0  0  0  0  0  0
    9.2051    6.9101   23.4604 C   0  0  0  0  0  0  0  0  0  0  0  0
   11.9646    6.0299   21.4251 C   0  0  0  0  0  0  0  0  0  0  0  0
  1  5  1  0
  1 13  1  0
  2 20  2  0
  2 28  1  0
  2 29  1  0
  3 19  4  0
  3 25  4  0
  4 23  4  0
  4 27  1  0
  4 30  4  0
  5 17  1  0
  6  8  1  0
  6 29  1  0
  7 24  4  0
  7 26  4  0
  8 28  1  0
  9 13  2  0
 10 18  1  0
 10 21  4  0
 10 30  4  0
 11 17  2  0
 12 18  1  0
 13 15  1  0
 14 24  1  0
 15 25  1  0
 16 28  2  0
 17 20  1  0
 19 24  4  0
 20 23  1  0
 21 22  4  0
 22 23  4  0
 25 26  4  0
 27 29  2  0
M  END
$$$$

 Created by Python create_sdf_string function

 30 33  0  0  0  0  0  0  0  0999 V2000
    8.3036    9.8571   18.4133 C   0  0  0  0  0  0  0  0  0  0  0  0
    8.3694    7.6612   22.6703 C   0  0  0  0  0  0  0  0  0  0  0  0
    8.4143    6.6863   16.2273 C   0  0  0  0  0  0  0  0  0  0  0  0
   10.7581    6.5674   21.7636 C   0  0  0  0  0  0  0  0  0  0  0  0
    8.4452    8.7960   19.2958 O   0  0  0  0  0  0  0  0  0  0  0  0
    8.7122    6.7842   24.8569 C   0  0  0  0  0  0  0  0  0  0  0  0
   10.3400    6.1726   14.3081 C   0  0  0  0  0  0  0  0  0  0  0  0
    7.4297    7.5873   24.8962 C   0  0  0  0  0  0  0  0  0  0  0  0
    8.1566   10.0536   16.0516 O   0  0  0  0  0  0  0  0  0  0  0  0
   12.4989    6.2074   20.1776 C   0  0  0  0  0  0  0  0  0  0  0  0
    6.9192    9.1053   20.9073 O   0  0  0  0  0  0  0  0  0  0  0  0
   14.3979    6.0729   18.7784 C   0  0  0  0  0  0  0  0  0  0  0  0
    8.6811    9.5354   16.9998 C   0  0  0  0  0  0  0  0  0  0  0  0
    9.2512    4.2713   13.7653 O   0  0  0  0  0  0  0  0  0  0  0  0
    9.6495    8.6317   16.8332 N   0  0  0  0  0  0  0  0  0  0  0  0
    6.2934    8.6988   23.1988 O   0  0  0  0  0  0  0  0  0  0  0  0
    7.9806    8.6543   20.5437 C   0  0  0  0  0  0  0  0  0  0  0  0
   13.7270    5.7144   19.8610 O   0  0  0  0  0  0  0  0  0  0  0  0
    8.3351    5.5235   15.4478 C   0  0  0  0  0  0  0  0  0  0  0  0
    8.7700    7.8434   21.3915 C   0  0  0  0  0  0  0  0  0  0  0  0
   11.7856    6.8851   19.2401 C   0  0  0  0  0  0  0  0  0  0  0  0
   10.5281    7.4276   19.5649 C   0  0  0  0  0  0  0  0  0  0  0  0
   10.0256    7.2907   20.8484 C   0  0  0  0  0  0  0  0  0  0  0  0
    9.3113    5.3049   14.4911 C   0  0  0  0  0  0  0  0  0  0  0  0
    9.4607    7.5646   16.0139 C   0  0  0  0  0  0  0  0  0  0  0  0
   10.4192    7.3157   15.0955 C   0  0  0  0  0  0  0  0  0  0  0  0
   10.2489    6.4227   23.0218 N   0  0  0  0  0  0  0  0  0  0  0  0
    7.2472    8.0746   23.5050 C   0  0  0  0  0  0  0  0  0  0  0  0
    9.2051    6.9101   23.4604 C   0  0  0  0  0  0  0  0  0  0  0  0
   11.9646    6.0299   21.4251 C   0  0  0  0  0  0  0  0  0  0  0  0
  1  5  1  0
  1 13  1  0
  2 20  2  0
  2 28  1  0
  2 29  1  0
  3 19  4  0
  3 25  4  0
  4 23  4  0
  4 27  1  0
  4 30  4  0
  5 17  1  0
  6  8  1  0
  6 29  1  0
  7 24  4  0
  7 26  4  0
  8 28  1  0
  9 13  2  0
 10 18  1  0
 10 21  4  0
 10 30  4  0
 11 17  2  0
 12 18  1  0
 13 15  1  0
 14 24  1  0
 15 25  1  0
 16 28  2  0
 17 20  1  0
 19 24  4  0
 20 23  1  0
 21 22  4  0
 22 23  4  0
 25 26  4  0
 27 29  2  0
M  END
$$$$

 Created by Python create_sdf_string function

 30 33  0  0  0  0  0  0  0  0999 V2000
    8.3036    9.8571   18.4133 C   0  0  0  0  0  0  0  0  0  0  0  0
    8.3694    7.6612   22.6703 C   0  0  0  0  0  0  0  0  0  0  0  0
    8.4143    6.6863   16.2273 C   0  0  0  0  0  0  0  0  0  0  0  0
   10.7581    6.5674   21.7636 C   0  0  0  0  0  0  0  0  0  0  0  0
    8.4452    8.7960   19.2958 O   0  0  0  0  0  0  0  0  0  0  0  0
    8.7122    6.7842   24.8569 C   0  0  0  0  0  0  0  0  0  0  0  0
   10.3400    6.1726   14.3081 C   0  0  0  0  0  0  0  0  0  0  0  0
    7.4297    7.5873   24.8962 C   0  0  0  0  0  0  0  0  0  0  0  0
    8.1566   10.0536   16.0516 O   0  0  0  0  0  0  0  0  0  0  0  0
   12.4989    6.2074   20.1776 C   0  0  0  0  0  0  0  0  0  0  0  0
    6.9192    9.1053   20.9073 O   0  0  0  0  0  0  0  0  0  0  0  0
   14.3979    6.0729   18.7784 C   0  0  0  0  0  0  0  0  0  0  0  0
    8.6811    9.5354   16.9998 C   0  0  0  0  0  0  0  0  0  0  0  0
    9.2512    4.2713   13.7653 O   0  0  0  0  0  0  0  0  0  0  0  0
    9.6495    8.6317   16.8332 N   0  0  0  0  0  0  0  0  0  0  0  0
    6.2934    8.6988   23.1988 O   0  0  0  0  0  0  0  0  0  0  0  0
    7.9806    8.6543   20.5437 C   0  0  0  0  0  0  0  0  0  0  0  0
   13.7270    5.7144   19.8610 O   0  0  0  0  0  0  0  0  0  0  0  0
    8.3351    5.5235   15.4478 C   0  0  0  0  0  0  0  0  0  0  0  0
    8.7700    7.8434   21.3915 C   0  0  0  0  0  0  0  0  0  0  0  0
   11.7856    6.8851   19.2401 C   0  0  0  0  0  0  0  0  0  0  0  0
   10.5281    7.4276   19.5649 C   0  0  0  0  0  0  0  0  0  0  0  0
   10.0256    7.2907   20.8484 C   0  0  0  0  0  0  0  0  0  0  0  0
    9.3113    5.3049   14.4911 C   0  0  0  0  0  0  0  0  0  0  0  0
    9.4607    7.5646   16.0139 C   0  0  0  0  0  0  0  0  0  0  0  0
   10.4192    7.3157   15.0955 C   0  0  0  0  0  0  0  0  0  0  0  0
   10.2489    6.4227   23.0218 N   0  0  0  0  0  0  0  0  0  0  0  0
    7.2472    8.0746   23.5050 C   0  0  0  0  0  0  0  0  0  0  0  0
    9.2051    6.9101   23.4604 C   0  0  0  0  0  0  0  0  0  0  0  0
   11.9646    6.0299   21.4251 C   0  0  0  0  0  0  0  0  0  0  0  0
  1  5  1  0
  1 13  1  0
  2 20  2  0
  2 28  1  0
  2 29  1  0
  3 19  4  0
  3 25  4  0
  4 23  4  0
  4 27  1  0
  4 30  4  0
  5 17  1  0
  6  8  1  0
  6 29  1  0
  7 24  4  0
  7 26  4  0
  8 28  1  0
  9 13  2  0
 10 18  1  0
 10 21  4  0
 10 30  4  0
 11 17  2  0
 12 18  1  0
 13 15  1  0
 14 24  1  0
 15 25  1  0
 16 28  2  0
 17 20  1  0
 19 24  4  0
 20 23  1  0
 21 22  4  0
 22 23  4  0
 25 26  4  0
 27 29  2  0
M  END
$$$$

 Created by Python create_sdf_string function

 30 33  0  0  0  0  0  0  0  0999 V2000
    8.3036    9.8571   18.4133 C   0  0  0  0  0  0  0  0  0  0  0  0
    8.3694    7.6612   22.6703 C   0  0  0  0  0  0  0  0  0  0  0  0
    8.4143    6.6863   16.2273 C   0  0  0  0  0  0  0  0  0  0  0  0
   10.7581    6.5674   21.7636 C   0  0  0  0  0  0  0  0  0  0  0  0
    8.4452    8.7960   19.2958 O   0  0  0  0  0  0  0  0  0  0  0  0
    8.7122    6.7842   24.8569 C   0  0  0  0  0  0  0  0  0  0  0  0
   10.3400    6.1726   14.3081 C   0  0  0  0  0  0  0  0  0  0  0  0
    7.4297    7.5873   24.8962 C   0  0  0  0  0  0  0  0  0  0  0  0
    8.1566   10.0536   16.0516 O   0  0  0  0  0  0  0  0  0  0  0  0
   12.4989    6.2074   20.1776 C   0  0  0  0  0  0  0  0  0  0  0  0
    6.9192    9.1053   20.9073 O   0  0  0  0  0  0  0  0  0  0  0  0
   14.3979    6.0729   18.7784 C   0  0  0  0  0  0  0  0  0  0  0  0
    8.6811    9.5354   16.9998 C   0  0  0  0  0  0  0  0  0  0  0  0
    9.2512    4.2713   13.7653 O   0  0  0  0  0  0  0  0  0  0  0  0
    9.6495    8.6317   16.8332 N   0  0  0  0  0  0  0  0  0  0  0  0
    6.2934    8.6988   23.1988 O   0  0  0  0  0  0  0  0  0  0  0  0
    7.9806    8.6543   20.5437 C   0  0  0  0  0  0  0  0  0  0  0  0
   13.7270    5.7144   19.8610 O   0  0  0  0  0  0  0  0  0  0  0  0
    8.3351    5.5235   15.4478 C   0  0  0  0  0  0  0  0  0  0  0  0
    8.7700    7.8434   21.3915 C   0  0  0  0  0  0  0  0  0  0  0  0
   11.7856    6.8851   19.2401 C   0  0  0  0  0  0  0  0  0  0  0  0
   10.5281    7.4276   19.5649 C   0  0  0  0  0  0  0  0  0  0  0  0
   10.0256    7.2907   20.8484 C   0  0  0  0  0  0  0  0  0  0  0  0
    9.3113    5.3049   14.4911 C   0  0  0  0  0  0  0  0  0  0  0  0
    9.4607    7.5646   16.0139 C   0  0  0  0  0  0  0  0  0  0  0  0
   10.4192    7.3157   15.0955 C   0  0  0  0  0  0  0  0  0  0  0  0
   10.2489    6.4227   23.0218 N   0  0  0  0  0  0  0  0  0  0  0  0
    7.2472    8.0746   23.5050 C   0  0  0  0  0  0  0  0  0  0  0  0
    9.2051    6.9101   23.4604 C   0  0  0  0  0  0  0  0  0  0  0  0
   11.9646    6.0299   21.4251 C   0  0  0  0  0  0  0  0  0  0  0  0
  1  5  1  0
  1 13  1  0
  2 20  2  0
  2 28  1  0
  2 29  1  0
  3 19  4  0
  3 25  4  0
  4 23  4  0
  4 27  1  0
  4 30  4  0
  5 17  1  0
  6  8  1  0
  6 29  1  0
  7 24  4  0
  7 26  4  0
  8 28  1  0
  9 13  2  0
 10 18  1  0
 10 21  4  0
 10 30  4  0
 11 17  2  0
 12 18  1  0
 13 15  1  0
 14 24  1  0
 15 25  1  0
 16 28  2  0
 17 20  1  0
 19 24  4  0
 20 23  1  0
 21 22  4  0
 22 23  4  0
 25 26  4  0
 27 29  2  0
M  END
$$$$

 Created by Python create_sdf_string function

 30 33  0  0  0  0  0  0  0  0999 V2000
    8.3036    9.8571   18.4133 C   0  0  0  0  0  0  0  0  0  0  0  0
    8.3694    7.6612   22.6703 C   0  0  0  0  0  0  0  0  0  0  0  0
    8.4143    6.6863   16.2273 C   0  0  0  0  0  0  0  0  0  0  0  0
   10.7581    6.5674   21.7636 C   0  0  0  0  0  0  0  0  0  0  0  0
    8.4452    8.7960   19.2958 O   0  0  0  0  0  0  0  0  0  0  0  0
    8.7122    6.7842   24.8569 C   0  0  0  0  0  0  0  0  0  0  0  0
   10.3400    6.1726   14.3081 C   0  0  0  0  0  0  0  0  0  0  0  0
    7.4297    7.5873   24.8962 C   0  0  0  0  0  0  0  0  0  0  0  0
    8.1566   10.0536   16.0516 O   0  0  0  0  0  0  0  0  0  0  0  0
   12.4989    6.2074   20.1776 C   0  0  0  0  0  0  0  0  0  0  0  0
    6.9192    9.1053   20.9073 O   0  0  0  0  0  0  0  0  0  0  0  0
   14.3979    6.0729   18.7784 C   0  0  0  0  0  0  0  0  0  0  0  0
    8.6811    9.5354   16.9998 C   0  0  0  0  0  0  0  0  0  0  0  0
    9.2512    4.2713   13.7653 O   0  0  0  0  0  0  0  0  0  0  0  0
    9.6495    8.6317   16.8332 N   0  0  0  0  0  0  0  0  0  0  0  0
    6.2934    8.6988   23.1988 O   0  0  0  0  0  0  0  0  0  0  0  0
    7.9806    8.6543   20.5437 C   0  0  0  0  0  0  0  0  0  0  0  0
   13.7270    5.7144   19.8610 O   0  0  0  0  0  0  0  0  0  0  0  0
    8.3351    5.5235   15.4478 C   0  0  0  0  0  0  0  0  0  0  0  0
    8.7700    7.8434   21.3915 C   0  0  0  0  0  0  0  0  0  0  0  0
   11.7856    6.8851   19.2401 C   0  0  0  0  0  0  0  0  0  0  0  0
   10.5281    7.4276   19.5649 C   0  0  0  0  0  0  0  0  0  0  0  0
   10.0256    7.2907   20.8484 C   0  0  0  0  0  0  0  0  0  0  0  0
    9.3113    5.3049   14.4911 C   0  0  0  0  0  0  0  0  0  0  0  0
    9.4607    7.5646   16.0139 C   0  0  0  0  0  0  0  0  0  0  0  0
   10.4192    7.3157   15.0955 C   0  0  0  0  0  0  0  0  0  0  0  0
   10.2489    6.4227   23.0218 N   0  0  0  0  0  0  0  0  0  0  0  0
    7.2472    8.0746   23.5050 C   0  0  0  0  0  0  0  0  0  0  0  0
    9.2051    6.9101   23.4604 C   0  0  0  0  0  0  0  0  0  0  0  0
   11.9646    6.0299   21.4251 C   0  0  0  0  0  0  0  0  0  0  0  0
  1  5  1  0
  1 13  1  0
  2 20  2  0
  2 28  1  0
  2 29  1  0
  3 19  4  0
  3 25  4  0
  4 23  4  0
  4 27  1  0
  4 30  4  0
  5 17  1  0
  6  8  1  0
  6 29  1  0
  7 24  4  0
  7 26  4  0
  8 28  1  0
  9 13  2  0
 10 18  1  0
 10 21  4  0
 10 30  4  0
 11 17  2  0
 12 18  1  0
 13 15  1  0
 14 24  1  0
 15 25  1  0
 16 28  2  0
 17 20  1  0
 19 24  4  0
 20 23  1  0
 21 22  4  0
 22 23  4  0
 25 26  4  0
 27 29  2  0
M  END
$$$$

 Created by Python create_sdf_string function

 30 33  0  0  0  0  0  0  0  0999 V2000
    8.3036    9.8571   18.4133 C   0  0  0  0  0  0  0  0  0  0  0  0
    8.3694    7.6612   22.6703 C   0  0  0  0  0  0  0  0  0  0  0  0
    8.4143    6.6863   16.2273 C   0  0  0  0  0  0  0  0  0  0  0  0
   10.7581    6.5674   21.7636 C   0  0  0  0  0  0  0  0  0  0  0  0
    8.4452    8.7960   19.2958 O   0  0  0  0  0  0  0  0  0  0  0  0
    8.7122    6.7842   24.8569 C   0  0  0  0  0  0  0  0  0  0  0  0
   10.3400    6.1726   14.3081 C   0  0  0  0  0  0  0  0  0  0  0  0
    7.4297    7.5873   24.8962 C   0  0  0  0  0  0  0  0  0  0  0  0
    8.1566   10.0536   16.0516 O   0  0  0  0  0  0  0  0  0  0  0  0
   12.4989    6.2074   20.1776 C   0  0  0  0  0  0  0  0  0  0  0  0
    6.9192    9.1053   20.9073 O   0  0  0  0  0  0  0  0  0  0  0  0
   14.3979    6.0729   18.7784 C   0  0  0  0  0  0  0  0  0  0  0  0
    8.6811    9.5354   16.9998 C   0  0  0  0  0  0  0  0  0  0  0  0
    9.2512    4.2713   13.7653 O   0  0  0  0  0  0  0  0  0  0  0  0
    9.6495    8.6317   16.8332 N   0  0  0  0  0  0  0  0  0  0  0  0
    6.2934    8.6988   23.1988 O   0  0  0  0  0  0  0  0  0  0  0  0
    7.9806    8.6543   20.5437 C   0  0  0  0  0  0  0  0  0  0  0  0
   13.7270    5.7144   19.8610 O   0  0  0  0  0  0  0  0  0  0  0  0
    8.3351    5.5235   15.4478 C   0  0  0  0  0  0  0  0  0  0  0  0
    8.7700    7.8434   21.3915 C   0  0  0  0  0  0  0  0  0  0  0  0
   11.7856    6.8851   19.2401 C   0  0  0  0  0  0  0  0  0  0  0  0
   10.5281    7.4276   19.5649 C   0  0  0  0  0  0  0  0  0  0  0  0
   10.0256    7.2907   20.8484 C   0  0  0  0  0  0  0  0  0  0  0  0
    9.3113    5.3049   14.4911 C   0  0  0  0  0  0  0  0  0  0  0  0
    9.4607    7.5646   16.0139 C   0  0  0  0  0  0  0  0  0  0  0  0
   10.4192    7.3157   15.0955 C   0  0  0  0  0  0  0  0  0  0  0  0
   10.2489    6.4227   23.0218 N   0  0  0  0  0  0  0  0  0  0  0  0
    7.2472    8.0746   23.5050 C   0  0  0  0  0  0  0  0  0  0  0  0
    9.2051    6.9101   23.4604 C   0  0  0  0  0  0  0  0  0  0  0  0
   11.9646    6.0299   21.4251 C   0  0  0  0  0  0  0  0  0  0  0  0
  1  5  1  0
  1 13  1  0
  2 20  2  0
  2 28  1  0
  2 29  1  0
  3 19  4  0
  3 25  4  0
  4 23  4  0
  4 27  1  0
  4 30  4  0
  5 17  1  0
  6  8  1  0
  6 29  1  0
  7 24  4  0
  7 26  4  0
  8 28  1  0
  9 13  2  0
 10 18  1  0
 10 21  4  0
 10 30  4  0
 11 17  2  0
 12 18  1  0
 13 15  1  0
 14 24  1  0
 15 25  1  0
 16 28  2  0
 17 20  1  0
 19 24  4  0
 20 23  1  0
 21 22  4  0
 22 23  4  0
 25 26  4  0
 27 29  2  0
M  END
$$$$

 Created by Python create_sdf_string function

 30 33  0  0  0  0  0  0  0  0999 V2000
    8.3036    9.8571   18.4133 C   0  0  0  0  0  0  0  0  0  0  0  0
    8.3694    7.6612   22.6703 C   0  0  0  0  0  0  0  0  0  0  0  0
    8.4143    6.6863   16.2273 C   0  0  0  0  0  0  0  0  0  0  0  0
   10.7581    6.5674   21.7636 C   0  0  0  0  0  0  0  0  0  0  0  0
    8.4452    8.7960   19.2958 O   0  0  0  0  0  0  0  0  0  0  0  0
    8.7122    6.7842   24.8569 C   0  0  0  0  0  0  0  0  0  0  0  0
   10.3400    6.1726   14.3081 C   0  0  0  0  0  0  0  0  0  0  0  0
    7.4297    7.5873   24.8962 C   0  0  0  0  0  0  0  0  0  0  0  0
    8.1566   10.0536   16.0516 O   0  0  0  0  0  0  0  0  0  0  0  0
   12.4989    6.2074   20.1776 C   0  0  0  0  0  0  0  0  0  0  0  0
    6.9192    9.1053   20.9073 O   0  0  0  0  0  0  0  0  0  0  0  0
   14.3979    6.0729   18.7784 C   0  0  0  0  0  0  0  0  0  0  0  0
    8.6811    9.5354   16.9998 C   0  0  0  0  0  0  0  0  0  0  0  0
    9.2512    4.2713   13.7653 O   0  0  0  0  0  0  0  0  0  0  0  0
    9.6495    8.6317   16.8332 N   0  0  0  0  0  0  0  0  0  0  0  0
    6.2934    8.6988   23.1988 O   0  0  0  0  0  0  0  0  0  0  0  0
    7.9806    8.6543   20.5437 C   0  0  0  0  0  0  0  0  0  0  0  0
   13.7270    5.7144   19.8610 O   0  0  0  0  0  0  0  0  0  0  0  0
    8.3351    5.5235   15.4478 C   0  0  0  0  0  0  0  0  0  0  0  0
    8.7700    7.8434   21.3915 C   0  0  0  0  0  0  0  0  0  0  0  0
   11.7856    6.8851   19.2401 C   0  0  0  0  0  0  0  0  0  0  0  0
   10.5281    7.4276   19.5649 C   0  0  0  0  0  0  0  0  0  0  0  0
   10.0256    7.2907   20.8484 C   0  0  0  0  0  0  0  0  0  0  0  0
    9.3113    5.3049   14.4911 C   0  0  0  0  0  0  0  0  0  0  0  0
    9.4607    7.5646   16.0139 C   0  0  0  0  0  0  0  0  0  0  0  0
   10.4192    7.3157   15.0955 C   0  0  0  0  0  0  0  0  0  0  0  0
   10.2489    6.4227   23.0218 N   0  0  0  0  0  0  0  0  0  0  0  0
    7.2472    8.0746   23.5050 C   0  0  0  0  0  0  0  0  0  0  0  0
    9.2051    6.9101   23.4604 C   0  0  0  0  0  0  0  0  0  0  0  0
   11.9646    6.0299   21.4251 C   0  0  0  0  0  0  0  0  0  0  0  0
  1  5  1  0
  1 13  1  0
  2 20  2  0
  2 28  1  0
  2 29  1  0
  3 19  4  0
  3 25  4  0
  4 23  4  0
  4 27  1  0
  4 30  4  0
  5 17  1  0
  6  8  1  0
  6 29  1  0
  7 24  4  0
  7 26  4  0
  8 28  1  0
  9 13  2  0
 10 18  1  0
 10 21  4  0
 10 30  4  0
 11 17  2  0
 12 18  1  0
 13 15  1  0
 14 24  1  0
 15 25  1  0
 16 28  2  0
 17 20  1  0
 19 24  4  0
 20 23  1  0
 21 22  4  0
 22 23  4  0
 25 26  4  0
 27 29  2  0
M  END
$$$$

 Created by Python create_sdf_string function

 30 33  0  0  0  0  0  0  0  0999 V2000
    8.3036    9.8571   18.4133 C   0  0  0  0  0  0  0  0  0  0  0  0
    8.3694    7.6612   22.6703 C   0  0  0  0  0  0  0  0  0  0  0  0
    8.4143    6.6863   16.2273 C   0  0  0  0  0  0  0  0  0  0  0  0
   10.7581    6.5674   21.7636 C   0  0  0  0  0  0  0  0  0  0  0  0
    8.4452    8.7960   19.2958 O   0  0  0  0  0  0  0  0  0  0  0  0
    8.7122    6.7842   24.8569 C   0  0  0  0  0  0  0  0  0  0  0  0
   10.3400    6.1726   14.3081 C   0  0  0  0  0  0  0  0  0  0  0  0
    7.4297    7.5873   24.8962 C   0  0  0  0  0  0  0  0  0  0  0  0
    8.1566   10.0536   16.0516 O   0  0  0  0  0  0  0  0  0  0  0  0
   12.4989    6.2074   20.1776 C   0  0  0  0  0  0  0  0  0  0  0  0
    6.9192    9.1053   20.9073 O   0  0  0  0  0  0  0  0  0  0  0  0
   14.3979    6.0729   18.7784 C   0  0  0  0  0  0  0  0  0  0  0  0
    8.6811    9.5354   16.9998 C   0  0  0  0  0  0  0  0  0  0  0  0
    9.2512    4.2713   13.7653 O   0  0  0  0  0  0  0  0  0  0  0  0
    9.6495    8.6317   16.8332 N   0  0  0  0  0  0  0  0  0  0  0  0
    6.2934    8.6988   23.1988 O   0  0  0  0  0  0  0  0  0  0  0  0
    7.9806    8.6543   20.5437 C   0  0  0  0  0  0  0  0  0  0  0  0
   13.7270    5.7144   19.8610 O   0  0  0  0  0  0  0  0  0  0  0  0
    8.3351    5.5235   15.4478 C   0  0  0  0  0  0  0  0  0  0  0  0
    8.7700    7.8434   21.3915 C   0  0  0  0  0  0  0  0  0  0  0  0
   11.7856    6.8851   19.2401 C   0  0  0  0  0  0  0  0  0  0  0  0
   10.5281    7.4276   19.5649 C   0  0  0  0  0  0  0  0  0  0  0  0
   10.0256    7.2907   20.8484 C   0  0  0  0  0  0  0  0  0  0  0  0
    9.3113    5.3049   14.4911 C   0  0  0  0  0  0  0  0  0  0  0  0
    9.4607    7.5646   16.0139 C   0  0  0  0  0  0  0  0  0  0  0  0
   10.4192    7.3157   15.0955 C   0  0  0  0  0  0  0  0  0  0  0  0
   10.2489    6.4227   23.0218 N   0  0  0  0  0  0  0  0  0  0  0  0
    7.2472    8.0746   23.5050 C   0  0  0  0  0  0  0  0  0  0  0  0
    9.2051    6.9101   23.4604 C   0  0  0  0  0  0  0  0  0  0  0  0
   11.9646    6.0299   21.4251 C   0  0  0  0  0  0  0  0  0  0  0  0
  1  5  1  0
  1 13  1  0
  2 20  2  0
  2 28  1  0
  2 29  1  0
  3 19  4  0
  3 25  4  0
  4 23  4  0
  4 27  1  0
  4 30  4  0
  5 17  1  0
  6  8  1  0
  6 29  1  0
  7 24  4  0
  7 26  4  0
  8 28  1  0
  9 13  2  0
 10 18  1  0
 10 21  4  0
 10 30  4  0
 11 17  2  0
 12 18  1  0
 13 15  1  0
 14 24  1  0
 15 25  1  0
 16 28  2  0
 17 20  1  0
 19 24  4  0
 20 23  1  0
 21 22  4  0
 22 23  4  0
 25 26  4  0
 27 29  2  0
M  END
$$$$

 Created by Python create_sdf_string function

 30 33  0  0  0  0  0  0  0  0999 V2000
    8.3036    9.8571   18.4133 C   0  0  0  0  0  0  0  0  0  0  0  0
    8.3694    7.6612   22.6703 C   0  0  0  0  0  0  0  0  0  0  0  0
    8.4143    6.6863   16.2273 C   0  0  0  0  0  0  0  0  0  0  0  0
   10.7581    6.5674   21.7636 C   0  0  0  0  0  0  0  0  0  0  0  0
    8.4452    8.7960   19.2958 O   0  0  0  0  0  0  0  0  0  0  0  0
    8.7122    6.7842   24.8569 C   0  0  0  0  0  0  0  0  0  0  0  0
   10.3400    6.1726   14.3081 C   0  0  0  0  0  0  0  0  0  0  0  0
    7.4297    7.5873   24.8962 C   0  0  0  0  0  0  0  0  0  0  0  0
    8.1566   10.0536   16.0516 O   0  0  0  0  0  0  0  0  0  0  0  0
   12.4989    6.2074   20.1776 C   0  0  0  0  0  0  0  0  0  0  0  0
    6.9192    9.1053   20.9073 O   0  0  0  0  0  0  0  0  0  0  0  0
   14.3979    6.0729   18.7784 C   0  0  0  0  0  0  0  0  0  0  0  0
    8.6811    9.5354   16.9998 C   0  0  0  0  0  0  0  0  0  0  0  0
    9.2512    4.2713   13.7653 O   0  0  0  0  0  0  0  0  0  0  0  0
    9.6495    8.6317   16.8332 N   0  0  0  0  0  0  0  0  0  0  0  0
    6.2934    8.6988   23.1988 O   0  0  0  0  0  0  0  0  0  0  0  0
    7.9806    8.6543   20.5437 C   0  0  0  0  0  0  0  0  0  0  0  0
   13.7270    5.7144   19.8610 O   0  0  0  0  0  0  0  0  0  0  0  0
    8.3351    5.5235   15.4478 C   0  0  0  0  0  0  0  0  0  0  0  0
    8.7700    7.8434   21.3915 C   0  0  0  0  0  0  0  0  0  0  0  0
   11.7856    6.8851   19.2401 C   0  0  0  0  0  0  0  0  0  0  0  0
   10.5281    7.4276   19.5649 C   0  0  0  0  0  0  0  0  0  0  0  0
   10.0256    7.2907   20.8484 C   0  0  0  0  0  0  0  0  0  0  0  0
    9.3113    5.3049   14.4911 C   0  0  0  0  0  0  0  0  0  0  0  0
    9.4607    7.5646   16.0139 C   0  0  0  0  0  0  0  0  0  0  0  0
   10.4192    7.3157   15.0955 C   0  0  0  0  0  0  0  0  0  0  0  0
   10.2489    6.4227   23.0218 N   0  0  0  0  0  0  0  0  0  0  0  0
    7.2472    8.0746   23.5050 C   0  0  0  0  0  0  0  0  0  0  0  0
    9.2051    6.9101   23.4604 C   0  0  0  0  0  0  0  0  0  0  0  0
   11.9646    6.0299   21.4251 C   0  0  0  0  0  0  0  0  0  0  0  0
  1  5  1  0
  1 13  1  0
  2 20  2  0
  2 28  1  0
  2 29  1  0
  3 19  4  0
  3 25  4  0
  4 23  4  0
  4 27  1  0
  4 30  4  0
  5 17  1  0
  6  8  1  0
  6 29  1  0
  7 24  4  0
  7 26  4  0
  8 28  1  0
  9 13  2  0
 10 18  1  0
 10 21  4  0
 10 30  4  0
 11 17  2  0
 12 18  1  0
 13 15  1  0
 14 24  1  0
 15 25  1  0
 16 28  2  0
 17 20  1  0
 19 24  4  0
 20 23  1  0
 21 22  4  0
 22 23  4  0
 25 26  4  0
 27 29  2  0
M  END
$$$$

 Created by Python create_sdf_string function

 30 33  0  0  0  0  0  0  0  0999 V2000
    8.3036    9.8571   18.4133 C   0  0  0  0  0  0  0  0  0  0  0  0
    8.3694    7.6612   22.6703 C   0  0  0  0  0  0  0  0  0  0  0  0
    8.4143    6.6863   16.2273 C   0  0  0  0  0  0  0  0  0  0  0  0
   10.7581    6.5674   21.7636 C   0  0  0  0  0  0  0  0  0  0  0  0
    8.4452    8.7960   19.2958 O   0  0  0  0  0  0  0  0  0  0  0  0
    8.7122    6.7842   24.8569 C   0  0  0  0  0  0  0  0  0  0  0  0
   10.3400    6.1726   14.3081 C   0  0  0  0  0  0  0  0  0  0  0  0
    7.4297    7.5873   24.8962 C   0  0  0  0  0  0  0  0  0  0  0  0
    8.1566   10.0536   16.0516 O   0  0  0  0  0  0  0  0  0  0  0  0
   12.4989    6.2074   20.1776 C   0  0  0  0  0  0  0  0  0  0  0  0
    6.9192    9.1053   20.9073 O   0  0  0  0  0  0  0  0  0  0  0  0
   14.3979    6.0729   18.7784 C   0  0  0  0  0  0  0  0  0  0  0  0
    8.6811    9.5354   16.9998 C   0  0  0  0  0  0  0  0  0  0  0  0
    9.2512    4.2713   13.7653 O   0  0  0  0  0  0  0  0  0  0  0  0
    9.6495    8.6317   16.8332 N   0  0  0  0  0  0  0  0  0  0  0  0
    6.2934    8.6988   23.1988 O   0  0  0  0  0  0  0  0  0  0  0  0
    7.9806    8.6543   20.5437 C   0  0  0  0  0  0  0  0  0  0  0  0
   13.7270    5.7144   19.8610 O   0  0  0  0  0  0  0  0  0  0  0  0
    8.3351    5.5235   15.4478 C   0  0  0  0  0  0  0  0  0  0  0  0
    8.7700    7.8434   21.3915 C   0  0  0  0  0  0  0  0  0  0  0  0
   11.7856    6.8851   19.2401 C   0  0  0  0  0  0  0  0  0  0  0  0
   10.5281    7.4276   19.5649 C   0  0  0  0  0  0  0  0  0  0  0  0
   10.0256    7.2907   20.8484 C   0  0  0  0  0  0  0  0  0  0  0  0
    9.3113    5.3049   14.4911 C   0  0  0  0  0  0  0  0  0  0  0  0
    9.4607    7.5646   16.0139 C   0  0  0  0  0  0  0  0  0  0  0  0
   10.4192    7.3157   15.0955 C   0  0  0  0  0  0  0  0  0  0  0  0
   10.2489    6.4227   23.0218 N   0  0  0  0  0  0  0  0  0  0  0  0
    7.2472    8.0746   23.5050 C   0  0  0  0  0  0  0  0  0  0  0  0
    9.2051    6.9101   23.4604 C   0  0  0  0  0  0  0  0  0  0  0  0
   11.9646    6.0299   21.4251 C   0  0  0  0  0  0  0  0  0  0  0  0
  1  5  1  0
  1 13  1  0
  2 20  2  0
  2 28  1  0
  2 29  1  0
  3 19  4  0
  3 25  4  0
  4 23  4  0
  4 27  1  0
  4 30  4  0
  5 17  1  0
  6  8  1  0
  6 29  1  0
  7 24  4  0
  7 26  4  0
  8 28  1  0
  9 13  2  0
 10 18  1  0
 10 21  4  0
 10 30  4  0
 11 17  2  0
 12 18  1  0
 13 15  1  0
 14 24  1  0
 15 25  1  0
 16 28  2  0
 17 20  1  0
 19 24  4  0
 20 23  1  0
 21 22  4  0
 22 23  4  0
 25 26  4  0
 27 29  2  0
M  END
$$$$

 Created by Python create_sdf_string function

 30 33  0  0  0  0  0  0  0  0999 V2000
    8.3036    9.8571   18.4133 C   0  0  0  0  0  0  0  0  0  0  0  0
    8.3694    7.6612   22.6703 C   0  0  0  0  0  0  0  0  0  0  0  0
    8.4143    6.6863   16.2273 C   0  0  0  0  0  0  0  0  0  0  0  0
   10.7581    6.5674   21.7636 C   0  0  0  0  0  0  0  0  0  0  0  0
    8.4452    8.7960   19.2958 O   0  0  0  0  0  0  0  0  0  0  0  0
    8.7122    6.7842   24.8569 C   0  0  0  0  0  0  0  0  0  0  0  0
   10.3400    6.1726   14.3081 C   0  0  0  0  0  0  0  0  0  0  0  0
    7.4297    7.5873   24.8962 C   0  0  0  0  0  0  0  0  0  0  0  0
    8.1566   10.0536   16.0516 O   0  0  0  0  0  0  0  0  0  0  0  0
   12.4989    6.2074   20.1776 C   0  0  0  0  0  0  0  0  0  0  0  0
    6.9192    9.1053   20.9073 O   0  0  0  0  0  0  0  0  0  0  0  0
   14.3979    6.0729   18.7784 C   0  0  0  0  0  0  0  0  0  0  0  0
    8.6811    9.5354   16.9998 C   0  0  0  0  0  0  0  0  0  0  0  0
    9.2512    4.2713   13.7653 O   0  0  0  0  0  0  0  0  0  0  0  0
    9.6495    8.6317   16.8332 N   0  0  0  0  0  0  0  0  0  0  0  0
    6.2934    8.6988   23.1988 O   0  0  0  0  0  0  0  0  0  0  0  0
    7.9806    8.6543   20.5437 C   0  0  0  0  0  0  0  0  0  0  0  0
   13.7270    5.7144   19.8610 O   0  0  0  0  0  0  0  0  0  0  0  0
    8.3351    5.5235   15.4478 C   0  0  0  0  0  0  0  0  0  0  0  0
    8.7700    7.8434   21.3915 C   0  0  0  0  0  0  0  0  0  0  0  0
   11.7856    6.8851   19.2401 C   0  0  0  0  0  0  0  0  0  0  0  0
   10.5281    7.4276   19.5649 C   0  0  0  0  0  0  0  0  0  0  0  0
   10.0256    7.2907   20.8484 C   0  0  0  0  0  0  0  0  0  0  0  0
    9.3113    5.3049   14.4911 C   0  0  0  0  0  0  0  0  0  0  0  0
    9.4607    7.5646   16.0139 C   0  0  0  0  0  0  0  0  0  0  0  0
   10.4192    7.3157   15.0955 C   0  0  0  0  0  0  0  0  0  0  0  0
   10.2489    6.4227   23.0218 N   0  0  0  0  0  0  0  0  0  0  0  0
    7.2472    8.0746   23.5050 C   0  0  0  0  0  0  0  0  0  0  0  0
    9.2051    6.9101   23.4604 C   0  0  0  0  0  0  0  0  0  0  0  0
   11.9646    6.0299   21.4251 C   0  0  0  0  0  0  0  0  0  0  0  0
  1  5  1  0
  1 13  1  0
  2 20  2  0
  2 28  1  0
  2 29  1  0
  3 19  4  0
  3 25  4  0
  4 23  4  0
  4 27  1  0
  4 30  4  0
  5 17  1  0
  6  8  1  0
  6 29  1  0
  7 24  4  0
  7 26  4  0
  8 28  1  0
  9 13  2  0
 10 18  1  0
 10 21  4  0
 10 30  4  0
 11 17  2  0
 12 18  1  0
 13 15  1  0
 14 24  1  0
 15 25  1  0
 16 28  2  0
 17 20  1  0
 19 24  4  0
 20 23  1  0
 21 22  4  0
 22 23  4  0
 25 26  4  0
 27 29  2  0
M  END
$$$$

 Created by Python create_sdf_string function

 30 33  0  0  0  0  0  0  0  0999 V2000
    8.3036    9.8571   18.4133 C   0  0  0  0  0  0  0  0  0  0  0  0
    8.3694    7.6612   22.6703 C   0  0  0  0  0  0  0  0  0  0  0  0
    8.4143    6.6863   16.2273 C   0  0  0  0  0  0  0  0  0  0  0  0
   10.7581    6.5674   21.7636 C   0  0  0  0  0  0  0  0  0  0  0  0
    8.4452    8.7960   19.2958 O   0  0  0  0  0  0  0  0  0  0  0  0
    8.7122    6.7842   24.8569 C   0  0  0  0  0  0  0  0  0  0  0  0
   10.3400    6.1726   14.3081 C   0  0  0  0  0  0  0  0  0  0  0  0
    7.4297    7.5873   24.8962 C   0  0  0  0  0  0  0  0  0  0  0  0
    8.1566   10.0536   16.0516 O   0  0  0  0  0  0  0  0  0  0  0  0
   12.4989    6.2074   20.1776 C   0  0  0  0  0  0  0  0  0  0  0  0
    6.9192    9.1053   20.9073 O   0  0  0  0  0  0  0  0  0  0  0  0
   14.3979    6.0729   18.7784 C   0  0  0  0  0  0  0  0  0  0  0  0
    8.6811    9.5354   16.9998 C   0  0  0  0  0  0  0  0  0  0  0  0
    9.2512    4.2713   13.7653 O   0  0  0  0  0  0  0  0  0  0  0  0
    9.6495    8.6317   16.8332 N   0  0  0  0  0  0  0  0  0  0  0  0
    6.2934    8.6988   23.1988 O   0  0  0  0  0  0  0  0  0  0  0  0
    7.9806    8.6543   20.5437 C   0  0  0  0  0  0  0  0  0  0  0  0
   13.7270    5.7144   19.8610 O   0  0  0  0  0  0  0  0  0  0  0  0
    8.3351    5.5235   15.4478 C   0  0  0  0  0  0  0  0  0  0  0  0
    8.7700    7.8434   21.3915 C   0  0  0  0  0  0  0  0  0  0  0  0
   11.7856    6.8851   19.2401 C   0  0  0  0  0  0  0  0  0  0  0  0
   10.5281    7.4276   19.5649 C   0  0  0  0  0  0  0  0  0  0  0  0
   10.0256    7.2907   20.8484 C   0  0  0  0  0  0  0  0  0  0  0  0
    9.3113    5.3049   14.4911 C   0  0  0  0  0  0  0  0  0  0  0  0
    9.4607    7.5646   16.0139 C   0  0  0  0  0  0  0  0  0  0  0  0
   10.4192    7.3157   15.0955 C   0  0  0  0  0  0  0  0  0  0  0  0
   10.2489    6.4227   23.0218 N   0  0  0  0  0  0  0  0  0  0  0  0
    7.2472    8.0746   23.5050 C   0  0  0  0  0  0  0  0  0  0  0  0
    9.2051    6.9101   23.4604 C   0  0  0  0  0  0  0  0  0  0  0  0
   11.9646    6.0299   21.4251 C   0  0  0  0  0  0  0  0  0  0  0  0
  1  5  1  0
  1 13  1  0
  2 20  2  0
  2 28  1  0
  2 29  1  0
  3 19  4  0
  3 25  4  0
  4 23  4  0
  4 27  1  0
  4 30  4  0
  5 17  1  0
  6  8  1  0
  6 29  1  0
  7 24  4  0
  7 26  4  0
  8 28  1  0
  9 13  2  0
 10 18  1  0
 10 21  4  0
 10 30  4  0
 11 17  2  0
 12 18  1  0
 13 15  1  0
 14 24  1  0
 15 25  1  0
 16 28  2  0
 17 20  1  0
 19 24  4  0
 20 23  1  0
 21 22  4  0
 22 23  4  0
 25 26  4  0
 27 29  2  0
M  END
$$$$

 Created by Python create_sdf_string function

 30 33  0  0  0  0  0  0  0  0999 V2000
    8.3036    9.8571   18.4133 C   0  0  0  0  0  0  0  0  0  0  0  0
    8.3694    7.6612   22.6703 C   0  0  0  0  0  0  0  0  0  0  0  0
    8.4143    6.6863   16.2273 C   0  0  0  0  0  0  0  0  0  0  0  0
   10.7581    6.5674   21.7636 C   0  0  0  0  0  0  0  0  0  0  0  0
    8.4452    8.7960   19.2958 O   0  0  0  0  0  0  0  0  0  0  0  0
    8.7122    6.7842   24.8569 C   0  0  0  0  0  0  0  0  0  0  0  0
   10.3400    6.1726   14.3081 C   0  0  0  0  0  0  0  0  0  0  0  0
    7.4297    7.5873   24.8962 C   0  0  0  0  0  0  0  0  0  0  0  0
    8.1566   10.0536   16.0516 O   0  0  0  0  0  0  0  0  0  0  0  0
   12.4989    6.2074   20.1776 C   0  0  0  0  0  0  0  0  0  0  0  0
    6.9192    9.1053   20.9073 O   0  0  0  0  0  0  0  0  0  0  0  0
   14.3979    6.0729   18.7784 C   0  0  0  0  0  0  0  0  0  0  0  0
    8.6811    9.5354   16.9998 C   0  0  0  0  0  0  0  0  0  0  0  0
    9.2512    4.2713   13.7653 O   0  0  0  0  0  0  0  0  0  0  0  0
    9.6495    8.6317   16.8332 N   0  0  0  0  0  0  0  0  0  0  0  0
    6.2934    8.6988   23.1988 O   0  0  0  0  0  0  0  0  0  0  0  0
    7.9806    8.6543   20.5437 C   0  0  0  0  0  0  0  0  0  0  0  0
   13.7270    5.7144   19.8610 O   0  0  0  0  0  0  0  0  0  0  0  0
    8.3351    5.5235   15.4478 C   0  0  0  0  0  0  0  0  0  0  0  0
    8.7700    7.8434   21.3915 C   0  0  0  0  0  0  0  0  0  0  0  0
   11.7856    6.8851   19.2401 C   0  0  0  0  0  0  0  0  0  0  0  0
   10.5281    7.4276   19.5649 C   0  0  0  0  0  0  0  0  0  0  0  0
   10.0256    7.2907   20.8484 C   0  0  0  0  0  0  0  0  0  0  0  0
    9.3113    5.3049   14.4911 C   0  0  0  0  0  0  0  0  0  0  0  0
    9.4607    7.5646   16.0139 C   0  0  0  0  0  0  0  0  0  0  0  0
   10.4192    7.3157   15.0955 C   0  0  0  0  0  0  0  0  0  0  0  0
   10.2489    6.4227   23.0218 N   0  0  0  0  0  0  0  0  0  0  0  0
    7.2472    8.0746   23.5050 C   0  0  0  0  0  0  0  0  0  0  0  0
    9.2051    6.9101   23.4604 C   0  0  0  0  0  0  0  0  0  0  0  0
   11.9646    6.0299   21.4251 C   0  0  0  0  0  0  0  0  0  0  0  0
  1  5  1  0
  1 13  1  0
  2 20  2  0
  2 28  1  0
  2 29  1  0
  3 19  4  0
  3 25  4  0
  4 23  4  0
  4 27  1  0
  4 30  4  0
  5 17  1  0
  6  8  1  0
  6 29  1  0
  7 24  4  0
  7 26  4  0
  8 28  1  0
  9 13  2  0
 10 18  1  0
 10 21  4  0
 10 30  4  0
 11 17  2  0
 12 18  1  0
 13 15  1  0
 14 24  1  0
 15 25  1  0
 16 28  2  0
 17 20  1  0
 19 24  4  0
 20 23  1  0
 21 22  4  0
 22 23  4  0
 25 26  4  0
 27 29  2  0
M  END
$$$$

 Created by Python create_sdf_string function

 30 33  0  0  0  0  0  0  0  0999 V2000
    8.3036    9.8571   18.4133 C   0  0  0  0  0  0  0  0  0  0  0  0
    8.3694    7.6612   22.6703 C   0  0  0  0  0  0  0  0  0  0  0  0
    8.4143    6.6863   16.2273 C   0  0  0  0  0  0  0  0  0  0  0  0
   10.7581    6.5674   21.7636 C   0  0  0  0  0  0  0  0  0  0  0  0
    8.4452    8.7960   19.2958 O   0  0  0  0  0  0  0  0  0  0  0  0
    8.7122    6.7842   24.8569 C   0  0  0  0  0  0  0  0  0  0  0  0
   10.3400    6.1726   14.3081 C   0  0  0  0  0  0  0  0  0  0  0  0
    7.4297    7.5873   24.8962 C   0  0  0  0  0  0  0  0  0  0  0  0
    8.1566   10.0536   16.0516 O   0  0  0  0  0  0  0  0  0  0  0  0
   12.4989    6.2074   20.1776 C   0  0  0  0  0  0  0  0  0  0  0  0
    6.9192    9.1053   20.9073 O   0  0  0  0  0  0  0  0  0  0  0  0
   14.3979    6.0729   18.7784 C   0  0  0  0  0  0  0  0  0  0  0  0
    8.6811    9.5354   16.9998 C   0  0  0  0  0  0  0  0  0  0  0  0
    9.2512    4.2713   13.7653 O   0  0  0  0  0  0  0  0  0  0  0  0
    9.6495    8.6317   16.8332 N   0  0  0  0  0  0  0  0  0  0  0  0
    6.2934    8.6988   23.1988 O   0  0  0  0  0  0  0  0  0  0  0  0
    7.9806    8.6543   20.5437 C   0  0  0  0  0  0  0  0  0  0  0  0
   13.7270    5.7144   19.8610 O   0  0  0  0  0  0  0  0  0  0  0  0
    8.3351    5.5235   15.4478 C   0  0  0  0  0  0  0  0  0  0  0  0
    8.7700    7.8434   21.3915 C   0  0  0  0  0  0  0  0  0  0  0  0
   11.7856    6.8851   19.2401 C   0  0  0  0  0  0  0  0  0  0  0  0
   10.5281    7.4276   19.5649 C   0  0  0  0  0  0  0  0  0  0  0  0
   10.0256    7.2907   20.8484 C   0  0  0  0  0  0  0  0  0  0  0  0
    9.3113    5.3049   14.4911 C   0  0  0  0  0  0  0  0  0  0  0  0
    9.4607    7.5646   16.0139 C   0  0  0  0  0  0  0  0  0  0  0  0
   10.4192    7.3157   15.0955 C   0  0  0  0  0  0  0  0  0  0  0  0
   10.2489    6.4227   23.0218 N   0  0  0  0  0  0  0  0  0  0  0  0
    7.2472    8.0746   23.5050 C   0  0  0  0  0  0  0  0  0  0  0  0
    9.2051    6.9101   23.4604 C   0  0  0  0  0  0  0  0  0  0  0  0
   11.9646    6.0299   21.4251 C   0  0  0  0  0  0  0  0  0  0  0  0
  1  5  1  0
  1 13  1  0
  2 20  2  0
  2 28  1  0
  2 29  1  0
  3 19  4  0
  3 25  4  0
  4 23  4  0
  4 27  1  0
  4 30  4  0
  5 17  1  0
  6  8  1  0
  6 29  1  0
  7 24  4  0
  7 26  4  0
  8 28  1  0
  9 13  2  0
 10 18  1  0
 10 21  4  0
 10 30  4  0
 11 17  2  0
 12 18  1  0
 13 15  1  0
 14 24  1  0
 15 25  1  0
 16 28  2  0
 17 20  1  0
 19 24  4  0
 20 23  1  0
 21 22  4  0
 22 23  4  0
 25 26  4  0
 27 29  2  0
M  END
$$$$

 Created by Python create_sdf_string function

 30 33  0  0  0  0  0  0  0  0999 V2000
    8.3036    9.8571   18.4133 C   0  0  0  0  0  0  0  0  0  0  0  0
    8.3694    7.6612   22.6703 C   0  0  0  0  0  0  0  0  0  0  0  0
    8.4143    6.6863   16.2273 C   0  0  0  0  0  0  0  0  0  0  0  0
   10.7581    6.5674   21.7636 C   0  0  0  0  0  0  0  0  0  0  0  0
    8.4452    8.7960   19.2958 O   0  0  0  0  0  0  0  0  0  0  0  0
    8.7122    6.7842   24.8569 C   0  0  0  0  0  0  0  0  0  0  0  0
   10.3400    6.1726   14.3081 C   0  0  0  0  0  0  0  0  0  0  0  0
    7.4297    7.5873   24.8962 C   0  0  0  0  0  0  0  0  0  0  0  0
    8.1566   10.0536   16.0516 O   0  0  0  0  0  0  0  0  0  0  0  0
   12.4989    6.2074   20.1776 C   0  0  0  0  0  0  0  0  0  0  0  0
    6.9192    9.1053   20.9073 O   0  0  0  0  0  0  0  0  0  0  0  0
   14.3979    6.0729   18.7784 C   0  0  0  0  0  0  0  0  0  0  0  0
    8.6811    9.5354   16.9998 C   0  0  0  0  0  0  0  0  0  0  0  0
    9.2512    4.2713   13.7653 O   0  0  0  0  0  0  0  0  0  0  0  0
    9.6495    8.6317   16.8332 N   0  0  0  0  0  0  0  0  0  0  0  0
    6.2934    8.6988   23.1988 O   0  0  0  0  0  0  0  0  0  0  0  0
    7.9806    8.6543   20.5437 C   0  0  0  0  0  0  0  0  0  0  0  0
   13.7270    5.7144   19.8610 O   0  0  0  0  0  0  0  0  0  0  0  0
    8.3351    5.5235   15.4478 C   0  0  0  0  0  0  0  0  0  0  0  0
    8.7700    7.8434   21.3915 C   0  0  0  0  0  0  0  0  0  0  0  0
   11.7856    6.8851   19.2401 C   0  0  0  0  0  0  0  0  0  0  0  0
   10.5281    7.4276   19.5649 C   0  0  0  0  0  0  0  0  0  0  0  0
   10.0256    7.2907   20.8484 C   0  0  0  0  0  0  0  0  0  0  0  0
    9.3113    5.3049   14.4911 C   0  0  0  0  0  0  0  0  0  0  0  0
    9.4607    7.5646   16.0139 C   0  0  0  0  0  0  0  0  0  0  0  0
   10.4192    7.3157   15.0955 C   0  0  0  0  0  0  0  0  0  0  0  0
   10.2489    6.4227   23.0218 N   0  0  0  0  0  0  0  0  0  0  0  0
    7.2472    8.0746   23.5050 C   0  0  0  0  0  0  0  0  0  0  0  0
    9.2051    6.9101   23.4604 C   0  0  0  0  0  0  0  0  0  0  0  0
   11.9646    6.0299   21.4251 C   0  0  0  0  0  0  0  0  0  0  0  0
  1  5  1  0
  1 13  1  0
  2 20  2  0
  2 28  1  0
  2 29  1  0
  3 19  4  0
  3 25  4  0
  4 23  4  0
  4 27  1  0
  4 30  4  0
  5 17  1  0
  6  8  1  0
  6 29  1  0
  7 24  4  0
  7 26  4  0
  8 28  1  0
  9 13  2  0
 10 18  1  0
 10 21  4  0
 10 30  4  0
 11 17  2  0
 12 18  1  0
 13 15  1  0
 14 24  1  0
 15 25  1  0
 16 28  2  0
 17 20  1  0
 19 24  4  0
 20 23  1  0
 21 22  4  0
 22 23  4  0
 25 26  4  0
 27 29  2  0
M  END
$$$$

 Created by Python create_sdf_string function

 30 33  0  0  0  0  0  0  0  0999 V2000
    8.3036    9.8571   18.4133 C   0  0  0  0  0  0  0  0  0  0  0  0
    8.3694    7.6612   22.6703 C   0  0  0  0  0  0  0  0  0  0  0  0
    8.4143    6.6863   16.2273 C   0  0  0  0  0  0  0  0  0  0  0  0
   10.7581    6.5674   21.7636 C   0  0  0  0  0  0  0  0  0  0  0  0
    8.4452    8.7960   19.2958 O   0  0  0  0  0  0  0  0  0  0  0  0
    8.7122    6.7842   24.8569 C   0  0  0  0  0  0  0  0  0  0  0  0
   10.3400    6.1726   14.3081 C   0  0  0  0  0  0  0  0  0  0  0  0
    7.4297    7.5873   24.8962 C   0  0  0  0  0  0  0  0  0  0  0  0
    8.1566   10.0536   16.0516 O   0  0  0  0  0  0  0  0  0  0  0  0
   12.4989    6.2074   20.1776 C   0  0  0  0  0  0  0  0  0  0  0  0
    6.9192    9.1053   20.9073 O   0  0  0  0  0  0  0  0  0  0  0  0
   14.3979    6.0729   18.7784 C   0  0  0  0  0  0  0  0  0  0  0  0
    8.6811    9.5354   16.9998 C   0  0  0  0  0  0  0  0  0  0  0  0
    9.2512    4.2713   13.7653 O   0  0  0  0  0  0  0  0  0  0  0  0
    9.6495    8.6317   16.8332 N   0  0  0  0  0  0  0  0  0  0  0  0
    6.2934    8.6988   23.1988 O   0  0  0  0  0  0  0  0  0  0  0  0
    7.9806    8.6543   20.5437 C   0  0  0  0  0  0  0  0  0  0  0  0
   13.7270    5.7144   19.8610 O   0  0  0  0  0  0  0  0  0  0  0  0
    8.3351    5.5235   15.4478 C   0  0  0  0  0  0  0  0  0  0  0  0
    8.7700    7.8434   21.3915 C   0  0  0  0  0  0  0  0  0  0  0  0
   11.7856    6.8851   19.2401 C   0  0  0  0  0  0  0  0  0  0  0  0
   10.5281    7.4276   19.5649 C   0  0  0  0  0  0  0  0  0  0  0  0
   10.0256    7.2907   20.8484 C   0  0  0  0  0  0  0  0  0  0  0  0
    9.3113    5.3049   14.4911 C   0  0  0  0  0  0  0  0  0  0  0  0
    9.4607    7.5646   16.0139 C   0  0  0  0  0  0  0  0  0  0  0  0
   10.4192    7.3157   15.0955 C   0  0  0  0  0  0  0  0  0  0  0  0
   10.2489    6.4227   23.0218 N   0  0  0  0  0  0  0  0  0  0  0  0
    7.2472    8.0746   23.5050 C   0  0  0  0  0  0  0  0  0  0  0  0
    9.2051    6.9101   23.4604 C   0  0  0  0  0  0  0  0  0  0  0  0
   11.9646    6.0299   21.4251 C   0  0  0  0  0  0  0  0  0  0  0  0
  1  5  1  0
  1 13  1  0
  2 20  2  0
  2 28  1  0
  2 29  1  0
  3 19  4  0
  3 25  4  0
  4 23  4  0
  4 27  1  0
  4 30  4  0
  5 17  1  0
  6  8  1  0
  6 29  1  0
  7 24  4  0
  7 26  4  0
  8 28  1  0
  9 13  2  0
 10 18  1  0
 10 21  4  0
 10 30  4  0
 11 17  2  0
 12 18  1  0
 13 15  1  0
 14 24  1  0
 15 25  1  0
 16 28  2  0
 17 20  1  0
 19 24  4  0
 20 23  1  0
 21 22  4  0
 22 23  4  0
 25 26  4  0
 27 29  2  0
M  END
$$$$

 Created by Python create_sdf_string function

 30 33  0  0  0  0  0  0  0  0999 V2000
    8.3036    9.8571   18.4133 C   0  0  0  0  0  0  0  0  0  0  0  0
    8.3694    7.6612   22.6703 C   0  0  0  0  0  0  0  0  0  0  0  0
    8.4143    6.6863   16.2273 C   0  0  0  0  0  0  0  0  0  0  0  0
   10.7581    6.5674   21.7636 C   0  0  0  0  0  0  0  0  0  0  0  0
    8.4452    8.7960   19.2958 O   0  0  0  0  0  0  0  0  0  0  0  0
    8.7122    6.7842   24.8569 C   0  0  0  0  0  0  0  0  0  0  0  0
   10.3400    6.1726   14.3081 C   0  0  0  0  0  0  0  0  0  0  0  0
    7.4297    7.5873   24.8962 C   0  0  0  0  0  0  0  0  0  0  0  0
    8.1566   10.0536   16.0516 O   0  0  0  0  0  0  0  0  0  0  0  0
   12.4989    6.2074   20.1776 C   0  0  0  0  0  0  0  0  0  0  0  0
    6.9192    9.1053   20.9073 O   0  0  0  0  0  0  0  0  0  0  0  0
   14.3979    6.0729   18.7784 C   0  0  0  0  0  0  0  0  0  0  0  0
    8.6811    9.5354   16.9998 C   0  0  0  0  0  0  0  0  0  0  0  0
    9.2512    4.2713   13.7653 O   0  0  0  0  0  0  0  0  0  0  0  0
    9.6495    8.6317   16.8332 N   0  0  0  0  0  0  0  0  0  0  0  0
    6.2934    8.6988   23.1988 O   0  0  0  0  0  0  0  0  0  0  0  0
    7.9806    8.6543   20.5437 C   0  0  0  0  0  0  0  0  0  0  0  0
   13.7270    5.7144   19.8610 O   0  0  0  0  0  0  0  0  0  0  0  0
    8.3351    5.5235   15.4478 C   0  0  0  0  0  0  0  0  0  0  0  0
    8.7700    7.8434   21.3915 C   0  0  0  0  0  0  0  0  0  0  0  0
   11.7856    6.8851   19.2401 C   0  0  0  0  0  0  0  0  0  0  0  0
   10.5281    7.4276   19.5649 C   0  0  0  0  0  0  0  0  0  0  0  0
   10.0256    7.2907   20.8484 C   0  0  0  0  0  0  0  0  0  0  0  0
    9.3113    5.3049   14.4911 C   0  0  0  0  0  0  0  0  0  0  0  0
    9.4607    7.5646   16.0139 C   0  0  0  0  0  0  0  0  0  0  0  0
   10.4192    7.3157   15.0955 C   0  0  0  0  0  0  0  0  0  0  0  0
   10.2489    6.4227   23.0218 N   0  0  0  0  0  0  0  0  0  0  0  0
    7.2472    8.0746   23.5050 C   0  0  0  0  0  0  0  0  0  0  0  0
    9.2051    6.9101   23.4604 C   0  0  0  0  0  0  0  0  0  0  0  0
   11.9646    6.0299   21.4251 C   0  0  0  0  0  0  0  0  0  0  0  0
  1  5  1  0
  1 13  1  0
  2 20  2  0
  2 28  1  0
  2 29  1  0
  3 19  4  0
  3 25  4  0
  4 23  4  0
  4 27  1  0
  4 30  4  0
  5 17  1  0
  6  8  1  0
  6 29  1  0
  7 24  4  0
  7 26  4  0
  8 28  1  0
  9 13  2  0
 10 18  1  0
 10 21  4  0
 10 30  4  0
 11 17  2  0
 12 18  1  0
 13 15  1  0
 14 24  1  0
 15 25  1  0
 16 28  2  0
 17 20  1  0
 19 24  4  0
 20 23  1  0
 21 22  4  0
 22 23  4  0
 25 26  4  0
 27 29  2  0
M  END
$$$$

 Created by Python create_sdf_string function

 30 33  0  0  0  0  0  0  0  0999 V2000
    8.3036    9.8571   18.4133 C   0  0  0  0  0  0  0  0  0  0  0  0
    8.3694    7.6612   22.6703 C   0  0  0  0  0  0  0  0  0  0  0  0
    8.4143    6.6863   16.2273 C   0  0  0  0  0  0  0  0  0  0  0  0
   10.7581    6.5674   21.7636 C   0  0  0  0  0  0  0  0  0  0  0  0
    8.4452    8.7960   19.2958 O   0  0  0  0  0  0  0  0  0  0  0  0
    8.7122    6.7842   24.8569 C   0  0  0  0  0  0  0  0  0  0  0  0
   10.3400    6.1726   14.3081 C   0  0  0  0  0  0  0  0  0  0  0  0
    7.4297    7.5873   24.8962 C   0  0  0  0  0  0  0  0  0  0  0  0
    8.1566   10.0536   16.0516 O   0  0  0  0  0  0  0  0  0  0  0  0
   12.4989    6.2074   20.1776 C   0  0  0  0  0  0  0  0  0  0  0  0
    6.9192    9.1053   20.9073 O   0  0  0  0  0  0  0  0  0  0  0  0
   14.3979    6.0729   18.7784 C   0  0  0  0  0  0  0  0  0  0  0  0
    8.6811    9.5354   16.9998 C   0  0  0  0  0  0  0  0  0  0  0  0
    9.2512    4.2713   13.7653 O   0  0  0  0  0  0  0  0  0  0  0  0
    9.6495    8.6317   16.8332 N   0  0  0  0  0  0  0  0  0  0  0  0
    6.2934    8.6988   23.1988 O   0  0  0  0  0  0  0  0  0  0  0  0
    7.9806    8.6543   20.5437 C   0  0  0  0  0  0  0  0  0  0  0  0
   13.7270    5.7144   19.8610 O   0  0  0  0  0  0  0  0  0  0  0  0
    8.3351    5.5235   15.4478 C   0  0  0  0  0  0  0  0  0  0  0  0
    8.7700    7.8434   21.3915 C   0  0  0  0  0  0  0  0  0  0  0  0
   11.7856    6.8851   19.2401 C   0  0  0  0  0  0  0  0  0  0  0  0
   10.5281    7.4276   19.5649 C   0  0  0  0  0  0  0  0  0  0  0  0
   10.0256    7.2907   20.8484 C   0  0  0  0  0  0  0  0  0  0  0  0
    9.3113    5.3049   14.4911 C   0  0  0  0  0  0  0  0  0  0  0  0
    9.4607    7.5646   16.0139 C   0  0  0  0  0  0  0  0  0  0  0  0
   10.4192    7.3157   15.0955 C   0  0  0  0  0  0  0  0  0  0  0  0
   10.2489    6.4227   23.0218 N   0  0  0  0  0  0  0  0  0  0  0  0
    7.2472    8.0746   23.5050 C   0  0  0  0  0  0  0  0  0  0  0  0
    9.2051    6.9101   23.4604 C   0  0  0  0  0  0  0  0  0  0  0  0
   11.9646    6.0299   21.4251 C   0  0  0  0  0  0  0  0  0  0  0  0
  1  5  1  0
  1 13  1  0
  2 20  2  0
  2 28  1  0
  2 29  1  0
  3 19  4  0
  3 25  4  0
  4 23  4  0
  4 27  1  0
  4 30  4  0
  5 17  1  0
  6  8  1  0
  6 29  1  0
  7 24  4  0
  7 26  4  0
  8 28  1  0
  9 13  2  0
 10 18  1  0
 10 21  4  0
 10 30  4  0
 11 17  2  0
 12 18  1  0
 13 15  1  0
 14 24  1  0
 15 25  1  0
 16 28  2  0
 17 20  1  0
 19 24  4  0
 20 23  1  0
 21 22  4  0
 22 23  4  0
 25 26  4  0
 27 29  2  0
M  END
$$$$

 Created by Python create_sdf_string function

 30 33  0  0  0  0  0  0  0  0999 V2000
    8.3036    9.8571   18.4133 C   0  0  0  0  0  0  0  0  0  0  0  0
    8.3694    7.6612   22.6703 C   0  0  0  0  0  0  0  0  0  0  0  0
    8.4143    6.6863   16.2273 C   0  0  0  0  0  0  0  0  0  0  0  0
   10.7581    6.5674   21.7636 C   0  0  0  0  0  0  0  0  0  0  0  0
    8.4452    8.7960   19.2958 O   0  0  0  0  0  0  0  0  0  0  0  0
    8.7122    6.7842   24.8569 C   0  0  0  0  0  0  0  0  0  0  0  0
   10.3400    6.1726   14.3081 C   0  0  0  0  0  0  0  0  0  0  0  0
    7.4297    7.5873   24.8962 C   0  0  0  0  0  0  0  0  0  0  0  0
    8.1566   10.0536   16.0516 O   0  0  0  0  0  0  0  0  0  0  0  0
   12.4989    6.2074   20.1776 C   0  0  0  0  0  0  0  0  0  0  0  0
    6.9192    9.1053   20.9073 O   0  0  0  0  0  0  0  0  0  0  0  0
   14.3979    6.0729   18.7784 C   0  0  0  0  0  0  0  0  0  0  0  0
    8.6811    9.5354   16.9998 C   0  0  0  0  0  0  0  0  0  0  0  0
    9.2512    4.2713   13.7653 O   0  0  0  0  0  0  0  0  0  0  0  0
    9.6495    8.6317   16.8332 N   0  0  0  0  0  0  0  0  0  0  0  0
    6.2934    8.6988   23.1988 O   0  0  0  0  0  0  0  0  0  0  0  0
    7.9806    8.6543   20.5437 C   0  0  0  0  0  0  0  0  0  0  0  0
   13.7270    5.7144   19.8610 O   0  0  0  0  0  0  0  0  0  0  0  0
    8.3351    5.5235   15.4478 C   0  0  0  0  0  0  0  0  0  0  0  0
    8.7700    7.8434   21.3915 C   0  0  0  0  0  0  0  0  0  0  0  0
   11.7856    6.8851   19.2401 C   0  0  0  0  0  0  0  0  0  0  0  0
   10.5281    7.4276   19.5649 C   0  0  0  0  0  0  0  0  0  0  0  0
   10.0256    7.2907   20.8484 C   0  0  0  0  0  0  0  0  0  0  0  0
    9.3113    5.3049   14.4911 C   0  0  0  0  0  0  0  0  0  0  0  0
    9.4607    7.5646   16.0139 C   0  0  0  0  0  0  0  0  0  0  0  0
   10.4192    7.3157   15.0955 C   0  0  0  0  0  0  0  0  0  0  0  0
   10.2489    6.4227   23.0218 N   0  0  0  0  0  0  0  0  0  0  0  0
    7.2472    8.0746   23.5050 C   0  0  0  0  0  0  0  0  0  0  0  0
    9.2051    6.9101   23.4604 C   0  0  0  0  0  0  0  0  0  0  0  0
   11.9646    6.0299   21.4251 C   0  0  0  0  0  0  0  0  0  0  0  0
  1  5  1  0
  1 13  1  0
  2 20  2  0
  2 28  1  0
  2 29  1  0
  3 19  4  0
  3 25  4  0
  4 23  4  0
  4 27  1  0
  4 30  4  0
  5 17  1  0
  6  8  1  0
  6 29  1  0
  7 24  4  0
  7 26  4  0
  8 28  1  0
  9 13  2  0
 10 18  1  0
 10 21  4  0
 10 30  4  0
 11 17  2  0
 12 18  1  0
 13 15  1  0
 14 24  1  0
 15 25  1  0
 16 28  2  0
 17 20  1  0
 19 24  4  0
 20 23  1  0
 21 22  4  0
 22 23  4  0
 25 26  4  0
 27 29  2  0
M  END
$$$$

 Created by Python create_sdf_string function

 30 33  0  0  0  0  0  0  0  0999 V2000
    8.3036    9.8571   18.4133 C   0  0  0  0  0  0  0  0  0  0  0  0
    8.3694    7.6612   22.6703 C   0  0  0  0  0  0  0  0  0  0  0  0
    8.4143    6.6863   16.2273 C   0  0  0  0  0  0  0  0  0  0  0  0
   10.7581    6.5674   21.7636 C   0  0  0  0  0  0  0  0  0  0  0  0
    8.4452    8.7960   19.2958 O   0  0  0  0  0  0  0  0  0  0  0  0
    8.7122    6.7842   24.8569 C   0  0  0  0  0  0  0  0  0  0  0  0
   10.3400    6.1726   14.3081 C   0  0  0  0  0  0  0  0  0  0  0  0
    7.4297    7.5873   24.8962 C   0  0  0  0  0  0  0  0  0  0  0  0
    8.1566   10.0536   16.0516 O   0  0  0  0  0  0  0  0  0  0  0  0
   12.4989    6.2074   20.1776 C   0  0  0  0  0  0  0  0  0  0  0  0
    6.9192    9.1053   20.9073 O   0  0  0  0  0  0  0  0  0  0  0  0
   14.3979    6.0729   18.7784 C   0  0  0  0  0  0  0  0  0  0  0  0
    8.6811    9.5354   16.9998 C   0  0  0  0  0  0  0  0  0  0  0  0
    9.2512    4.2713   13.7653 O   0  0  0  0  0  0  0  0  0  0  0  0
    9.6495    8.6317   16.8332 N   0  0  0  0  0  0  0  0  0  0  0  0
    6.2934    8.6988   23.1988 O   0  0  0  0  0  0  0  0  0  0  0  0
    7.9806    8.6543   20.5437 C   0  0  0  0  0  0  0  0  0  0  0  0
   13.7270    5.7144   19.8610 O   0  0  0  0  0  0  0  0  0  0  0  0
    8.3351    5.5235   15.4478 C   0  0  0  0  0  0  0  0  0  0  0  0
    8.7700    7.8434   21.3915 C   0  0  0  0  0  0  0  0  0  0  0  0
   11.7856    6.8851   19.2401 C   0  0  0  0  0  0  0  0  0  0  0  0
   10.5281    7.4276   19.5649 C   0  0  0  0  0  0  0  0  0  0  0  0
   10.0256    7.2907   20.8484 C   0  0  0  0  0  0  0  0  0  0  0  0
    9.3113    5.3049   14.4911 C   0  0  0  0  0  0  0  0  0  0  0  0
    9.4607    7.5646   16.0139 C   0  0  0  0  0  0  0  0  0  0  0  0
   10.4192    7.3157   15.0955 C   0  0  0  0  0  0  0  0  0  0  0  0
   10.2489    6.4227   23.0218 N   0  0  0  0  0  0  0  0  0  0  0  0
    7.2472    8.0746   23.5050 C   0  0  0  0  0  0  0  0  0  0  0  0
    9.2051    6.9101   23.4604 C   0  0  0  0  0  0  0  0  0  0  0  0
   11.9646    6.0299   21.4251 C   0  0  0  0  0  0  0  0  0  0  0  0
  1  5  1  0
  1 13  1  0
  2 20  2  0
  2 28  1  0
  2 29  1  0
  3 19  4  0
  3 25  4  0
  4 23  4  0
  4 27  1  0
  4 30  4  0
  5 17  1  0
  6  8  1  0
  6 29  1  0
  7 24  4  0
  7 26  4  0
  8 28  1  0
  9 13  2  0
 10 18  1  0
 10 21  4  0
 10 30  4  0
 11 17  2  0
 12 18  1  0
 13 15  1  0
 14 24  1  0
 15 25  1  0
 16 28  2  0
 17 20  1  0
 19 24  4  0
 20 23  1  0
 21 22  4  0
 22 23  4  0
 25 26  4  0
 27 29  2  0
M  END
$$$$

 Created by Python create_sdf_string function

 30 33  0  0  0  0  0  0  0  0999 V2000
    8.3036    9.8571   18.4133 C   0  0  0  0  0  0  0  0  0  0  0  0
    8.3694    7.6612   22.6703 C   0  0  0  0  0  0  0  0  0  0  0  0
    8.4143    6.6863   16.2273 C   0  0  0  0  0  0  0  0  0  0  0  0
   10.7581    6.5674   21.7636 C   0  0  0  0  0  0  0  0  0  0  0  0
    8.4452    8.7960   19.2958 O   0  0  0  0  0  0  0  0  0  0  0  0
    8.7122    6.7842   24.8569 C   0  0  0  0  0  0  0  0  0  0  0  0
   10.3400    6.1726   14.3081 C   0  0  0  0  0  0  0  0  0  0  0  0
    7.4297    7.5873   24.8962 C   0  0  0  0  0  0  0  0  0  0  0  0
    8.1566   10.0536   16.0516 O   0  0  0  0  0  0  0  0  0  0  0  0
   12.4989    6.2074   20.1776 C   0  0  0  0  0  0  0  0  0  0  0  0
    6.9192    9.1053   20.9073 O   0  0  0  0  0  0  0  0  0  0  0  0
   14.3979    6.0729   18.7784 C   0  0  0  0  0  0  0  0  0  0  0  0
    8.6811    9.5354   16.9998 C   0  0  0  0  0  0  0  0  0  0  0  0
    9.2512    4.2713   13.7653 O   0  0  0  0  0  0  0  0  0  0  0  0
    9.6495    8.6317   16.8332 N   0  0  0  0  0  0  0  0  0  0  0  0
    6.2934    8.6988   23.1988 O   0  0  0  0  0  0  0  0  0  0  0  0
    7.9806    8.6543   20.5437 C   0  0  0  0  0  0  0  0  0  0  0  0
   13.7270    5.7144   19.8610 O   0  0  0  0  0  0  0  0  0  0  0  0
    8.3351    5.5235   15.4478 C   0  0  0  0  0  0  0  0  0  0  0  0
    8.7700    7.8434   21.3915 C   0  0  0  0  0  0  0  0  0  0  0  0
   11.7856    6.8851   19.2401 C   0  0  0  0  0  0  0  0  0  0  0  0
   10.5281    7.4276   19.5649 C   0  0  0  0  0  0  0  0  0  0  0  0
   10.0256    7.2907   20.8484 C   0  0  0  0  0  0  0  0  0  0  0  0
    9.3113    5.3049   14.4911 C   0  0  0  0  0  0  0  0  0  0  0  0
    9.4607    7.5646   16.0139 C   0  0  0  0  0  0  0  0  0  0  0  0
   10.4192    7.3157   15.0955 C   0  0  0  0  0  0  0  0  0  0  0  0
   10.2489    6.4227   23.0218 N   0  0  0  0  0  0  0  0  0  0  0  0
    7.2472    8.0746   23.5050 C   0  0  0  0  0  0  0  0  0  0  0  0
    9.2051    6.9101   23.4604 C   0  0  0  0  0  0  0  0  0  0  0  0
   11.9646    6.0299   21.4251 C   0  0  0  0  0  0  0  0  0  0  0  0
  1  5  1  0
  1 13  1  0
  2 20  2  0
  2 28  1  0
  2 29  1  0
  3 19  4  0
  3 25  4  0
  4 23  4  0
  4 27  1  0
  4 30  4  0
  5 17  1  0
  6  8  1  0
  6 29  1  0
  7 24  4  0
  7 26  4  0
  8 28  1  0
  9 13  2  0
 10 18  1  0
 10 21  4  0
 10 30  4  0
 11 17  2  0
 12 18  1  0
 13 15  1  0
 14 24  1  0
 15 25  1  0
 16 28  2  0
 17 20  1  0
 19 24  4  0
 20 23  1  0
 21 22  4  0
 22 23  4  0
 25 26  4  0
 27 29  2  0
M  END
$$$$

 Created by Python create_sdf_string function

 30 33  0  0  0  0  0  0  0  0999 V2000
    8.3036    9.8571   18.4133 C   0  0  0  0  0  0  0  0  0  0  0  0
    8.3694    7.6612   22.6703 C   0  0  0  0  0  0  0  0  0  0  0  0
    8.4143    6.6863   16.2273 C   0  0  0  0  0  0  0  0  0  0  0  0
   10.7581    6.5674   21.7636 C   0  0  0  0  0  0  0  0  0  0  0  0
    8.4452    8.7960   19.2958 O   0  0  0  0  0  0  0  0  0  0  0  0
    8.7122    6.7842   24.8569 C   0  0  0  0  0  0  0  0  0  0  0  0
   10.3400    6.1726   14.3081 C   0  0  0  0  0  0  0  0  0  0  0  0
    7.4297    7.5873   24.8962 C   0  0  0  0  0  0  0  0  0  0  0  0
    8.1566   10.0536   16.0516 O   0  0  0  0  0  0  0  0  0  0  0  0
   12.4989    6.2074   20.1776 C   0  0  0  0  0  0  0  0  0  0  0  0
    6.9192    9.1053   20.9073 O   0  0  0  0  0  0  0  0  0  0  0  0
   14.3979    6.0729   18.7784 C   0  0  0  0  0  0  0  0  0  0  0  0
    8.6811    9.5354   16.9998 C   0  0  0  0  0  0  0  0  0  0  0  0
    9.2512    4.2713   13.7653 O   0  0  0  0  0  0  0  0  0  0  0  0
    9.6495    8.6317   16.8332 N   0  0  0  0  0  0  0  0  0  0  0  0
    6.2934    8.6988   23.1988 O   0  0  0  0  0  0  0  0  0  0  0  0
    7.9806    8.6543   20.5437 C   0  0  0  0  0  0  0  0  0  0  0  0
   13.7270    5.7144   19.8610 O   0  0  0  0  0  0  0  0  0  0  0  0
    8.3351    5.5235   15.4478 C   0  0  0  0  0  0  0  0  0  0  0  0
    8.7700    7.8434   21.3915 C   0  0  0  0  0  0  0  0  0  0  0  0
   11.7856    6.8851   19.2401 C   0  0  0  0  0  0  0  0  0  0  0  0
   10.5281    7.4276   19.5649 C   0  0  0  0  0  0  0  0  0  0  0  0
   10.0256    7.2907   20.8484 C   0  0  0  0  0  0  0  0  0  0  0  0
    9.3113    5.3049   14.4911 C   0  0  0  0  0  0  0  0  0  0  0  0
    9.4607    7.5646   16.0139 C   0  0  0  0  0  0  0  0  0  0  0  0
   10.4192    7.3157   15.0955 C   0  0  0  0  0  0  0  0  0  0  0  0
   10.2489    6.4227   23.0218 N   0  0  0  0  0  0  0  0  0  0  0  0
    7.2472    8.0746   23.5050 C   0  0  0  0  0  0  0  0  0  0  0  0
    9.2051    6.9101   23.4604 C   0  0  0  0  0  0  0  0  0  0  0  0
   11.9646    6.0299   21.4251 C   0  0  0  0  0  0  0  0  0  0  0  0
  1  5  1  0
  1 13  1  0
  2 20  2  0
  2 28  1  0
  2 29  1  0
  3 19  4  0
  3 25  4  0
  4 23  4  0
  4 27  1  0
  4 30  4  0
  5 17  1  0
  6  8  1  0
  6 29  1  0
  7 24  4  0
  7 26  4  0
  8 28  1  0
  9 13  2  0
 10 18  1  0
 10 21  4  0
 10 30  4  0
 11 17  2  0
 12 18  1  0
 13 15  1  0
 14 24  1  0
 15 25  1  0
 16 28  2  0
 17 20  1  0
 19 24  4  0
 20 23  1  0
 21 22  4  0
 22 23  4  0
 25 26  4  0
 27 29  2  0
M  END
$$$$

 Created by Python create_sdf_string function

 30 33  0  0  0  0  0  0  0  0999 V2000
    8.3036    9.8571   18.4133 C   0  0  0  0  0  0  0  0  0  0  0  0
    8.3694    7.6612   22.6703 C   0  0  0  0  0  0  0  0  0  0  0  0
    8.4143    6.6863   16.2273 C   0  0  0  0  0  0  0  0  0  0  0  0
   10.7581    6.5674   21.7636 C   0  0  0  0  0  0  0  0  0  0  0  0
    8.4452    8.7960   19.2958 O   0  0  0  0  0  0  0  0  0  0  0  0
    8.7122    6.7842   24.8569 C   0  0  0  0  0  0  0  0  0  0  0  0
   10.3400    6.1726   14.3081 C   0  0  0  0  0  0  0  0  0  0  0  0
    7.4297    7.5873   24.8962 C   0  0  0  0  0  0  0  0  0  0  0  0
    8.1566   10.0536   16.0516 O   0  0  0  0  0  0  0  0  0  0  0  0
   12.4989    6.2074   20.1776 C   0  0  0  0  0  0  0  0  0  0  0  0
    6.9192    9.1053   20.9073 O   0  0  0  0  0  0  0  0  0  0  0  0
   14.3979    6.0729   18.7784 C   0  0  0  0  0  0  0  0  0  0  0  0
    8.6811    9.5354   16.9998 C   0  0  0  0  0  0  0  0  0  0  0  0
    9.2512    4.2713   13.7653 O   0  0  0  0  0  0  0  0  0  0  0  0
    9.6495    8.6317   16.8332 N   0  0  0  0  0  0  0  0  0  0  0  0
    6.2934    8.6988   23.1988 O   0  0  0  0  0  0  0  0  0  0  0  0
    7.9806    8.6543   20.5437 C   0  0  0  0  0  0  0  0  0  0  0  0
   13.7270    5.7144   19.8610 O   0  0  0  0  0  0  0  0  0  0  0  0
    8.3351    5.5235   15.4478 C   0  0  0  0  0  0  0  0  0  0  0  0
    8.7700    7.8434   21.3915 C   0  0  0  0  0  0  0  0  0  0  0  0
   11.7856    6.8851   19.2401 C   0  0  0  0  0  0  0  0  0  0  0  0
   10.5281    7.4276   19.5649 C   0  0  0  0  0  0  0  0  0  0  0  0
   10.0256    7.2907   20.8484 C   0  0  0  0  0  0  0  0  0  0  0  0
    9.3113    5.3049   14.4911 C   0  0  0  0  0  0  0  0  0  0  0  0
    9.4607    7.5646   16.0139 C   0  0  0  0  0  0  0  0  0  0  0  0
   10.4192    7.3157   15.0955 C   0  0  0  0  0  0  0  0  0  0  0  0
   10.2489    6.4227   23.0218 N   0  0  0  0  0  0  0  0  0  0  0  0
    7.2472    8.0746   23.5050 C   0  0  0  0  0  0  0  0  0  0  0  0
    9.2051    6.9101   23.4604 C   0  0  0  0  0  0  0  0  0  0  0  0
   11.9646    6.0299   21.4251 C   0  0  0  0  0  0  0  0  0  0  0  0
  1  5  1  0
  1 13  1  0
  2 20  2  0
  2 28  1  0
  2 29  1  0
  3 19  4  0
  3 25  4  0
  4 23  4  0
  4 27  1  0
  4 30  4  0
  5 17  1  0
  6  8  1  0
  6 29  1  0
  7 24  4  0
  7 26  4  0
  8 28  1  0
  9 13  2  0
 10 18  1  0
 10 21  4  0
 10 30  4  0
 11 17  2  0
 12 18  1  0
 13 15  1  0
 14 24  1  0
 15 25  1  0
 16 28  2  0
 17 20  1  0
 19 24  4  0
 20 23  1  0
 21 22  4  0
 22 23  4  0
 25 26  4  0
 27 29  2  0
M  END
$$$$

 Created by Python create_sdf_string function

 30 33  0  0  0  0  0  0  0  0999 V2000
    8.3036    9.8571   18.4133 C   0  0  0  0  0  0  0  0  0  0  0  0
    8.3694    7.6612   22.6703 C   0  0  0  0  0  0  0  0  0  0  0  0
    8.4143    6.6863   16.2273 C   0  0  0  0  0  0  0  0  0  0  0  0
   10.7581    6.5674   21.7636 C   0  0  0  0  0  0  0  0  0  0  0  0
    8.4452    8.7960   19.2958 O   0  0  0  0  0  0  0  0  0  0  0  0
    8.7122    6.7842   24.8569 C   0  0  0  0  0  0  0  0  0  0  0  0
   10.3400    6.1726   14.3081 C   0  0  0  0  0  0  0  0  0  0  0  0
    7.4297    7.5873   24.8962 C   0  0  0  0  0  0  0  0  0  0  0  0
    8.1566   10.0536   16.0516 O   0  0  0  0  0  0  0  0  0  0  0  0
   12.4989    6.2074   20.1776 C   0  0  0  0  0  0  0  0  0  0  0  0
    6.9192    9.1053   20.9073 O   0  0  0  0  0  0  0  0  0  0  0  0
   14.3979    6.0729   18.7784 C   0  0  0  0  0  0  0  0  0  0  0  0
    8.6811    9.5354   16.9998 C   0  0  0  0  0  0  0  0  0  0  0  0
    9.2512    4.2713   13.7653 O   0  0  0  0  0  0  0  0  0  0  0  0
    9.6495    8.6317   16.8332 N   0  0  0  0  0  0  0  0  0  0  0  0
    6.2934    8.6988   23.1988 O   0  0  0  0  0  0  0  0  0  0  0  0
    7.9806    8.6543   20.5437 C   0  0  0  0  0  0  0  0  0  0  0  0
   13.7270    5.7144   19.8610 O   0  0  0  0  0  0  0  0  0  0  0  0
    8.3351    5.5235   15.4478 C   0  0  0  0  0  0  0  0  0  0  0  0
    8.7700    7.8434   21.3915 C   0  0  0  0  0  0  0  0  0  0  0  0
   11.7856    6.8851   19.2401 C   0  0  0  0  0  0  0  0  0  0  0  0
   10.5281    7.4276   19.5649 C   0  0  0  0  0  0  0  0  0  0  0  0
   10.0256    7.2907   20.8484 C   0  0  0  0  0  0  0  0  0  0  0  0
    9.3113    5.3049   14.4911 C   0  0  0  0  0  0  0  0  0  0  0  0
    9.4607    7.5646   16.0139 C   0  0  0  0  0  0  0  0  0  0  0  0
   10.4192    7.3157   15.0955 C   0  0  0  0  0  0  0  0  0  0  0  0
   10.2489    6.4227   23.0218 N   0  0  0  0  0  0  0  0  0  0  0  0
    7.2472    8.0746   23.5050 C   0  0  0  0  0  0  0  0  0  0  0  0
    9.2051    6.9101   23.4604 C   0  0  0  0  0  0  0  0  0  0  0  0
   11.9646    6.0299   21.4251 C   0  0  0  0  0  0  0  0  0  0  0  0
  1  5  1  0
  1 13  1  0
  2 20  2  0
  2 28  1  0
  2 29  1  0
  3 19  4  0
  3 25  4  0
  4 23  4  0
  4 27  1  0
  4 30  4  0
  5 17  1  0
  6  8  1  0
  6 29  1  0
  7 24  4  0
  7 26  4  0
  8 28  1  0
  9 13  2  0
 10 18  1  0
 10 21  4  0
 10 30  4  0
 11 17  2  0
 12 18  1  0
 13 15  1  0
 14 24  1  0
 15 25  1  0
 16 28  2  0
 17 20  1  0
 19 24  4  0
 20 23  1  0
 21 22  4  0
 22 23  4  0
 25 26  4  0
 27 29  2  0
M  END
$$$$

 Created by Python create_sdf_string function

 30 33  0  0  0  0  0  0  0  0999 V2000
    8.3036    9.8571   18.4133 C   0  0  0  0  0  0  0  0  0  0  0  0
    8.3694    7.6612   22.6703 C   0  0  0  0  0  0  0  0  0  0  0  0
    8.4143    6.6863   16.2273 C   0  0  0  0  0  0  0  0  0  0  0  0
   10.7581    6.5674   21.7636 C   0  0  0  0  0  0  0  0  0  0  0  0
    8.4452    8.7960   19.2958 O   0  0  0  0  0  0  0  0  0  0  0  0
    8.7122    6.7842   24.8569 C   0  0  0  0  0  0  0  0  0  0  0  0
   10.3400    6.1726   14.3081 C   0  0  0  0  0  0  0  0  0  0  0  0
    7.4297    7.5873   24.8962 C   0  0  0  0  0  0  0  0  0  0  0  0
    8.1566   10.0536   16.0516 O   0  0  0  0  0  0  0  0  0  0  0  0
   12.4989    6.2074   20.1776 C   0  0  0  0  0  0  0  0  0  0  0  0
    6.9192    9.1053   20.9073 O   0  0  0  0  0  0  0  0  0  0  0  0
   14.3979    6.0729   18.7784 C   0  0  0  0  0  0  0  0  0  0  0  0
    8.6811    9.5354   16.9998 C   0  0  0  0  0  0  0  0  0  0  0  0
    9.2512    4.2713   13.7653 O   0  0  0  0  0  0  0  0  0  0  0  0
    9.6495    8.6317   16.8332 N   0  0  0  0  0  0  0  0  0  0  0  0
    6.2934    8.6988   23.1988 O   0  0  0  0  0  0  0  0  0  0  0  0
    7.9806    8.6543   20.5437 C   0  0  0  0  0  0  0  0  0  0  0  0
   13.7270    5.7144   19.8610 O   0  0  0  0  0  0  0  0  0  0  0  0
    8.3351    5.5235   15.4478 C   0  0  0  0  0  0  0  0  0  0  0  0
    8.7700    7.8434   21.3915 C   0  0  0  0  0  0  0  0  0  0  0  0
   11.7856    6.8851   19.2401 C   0  0  0  0  0  0  0  0  0  0  0  0
   10.5281    7.4276   19.5649 C   0  0  0  0  0  0  0  0  0  0  0  0
   10.0256    7.2907   20.8484 C   0  0  0  0  0  0  0  0  0  0  0  0
    9.3113    5.3049   14.4911 C   0  0  0  0  0  0  0  0  0  0  0  0
    9.4607    7.5646   16.0139 C   0  0  0  0  0  0  0  0  0  0  0  0
   10.4192    7.3157   15.0955 C   0  0  0  0  0  0  0  0  0  0  0  0
   10.2489    6.4227   23.0218 N   0  0  0  0  0  0  0  0  0  0  0  0
    7.2472    8.0746   23.5050 C   0  0  0  0  0  0  0  0  0  0  0  0
    9.2051    6.9101   23.4604 C   0  0  0  0  0  0  0  0  0  0  0  0
   11.9646    6.0299   21.4251 C   0  0  0  0  0  0  0  0  0  0  0  0
  1  5  1  0
  1 13  1  0
  2 20  2  0
  2 28  1  0
  2 29  1  0
  3 19  4  0
  3 25  4  0
  4 23  4  0
  4 27  1  0
  4 30  4  0
  5 17  1  0
  6  8  1  0
  6 29  1  0
  7 24  4  0
  7 26  4  0
  8 28  1  0
  9 13  2  0
 10 18  1  0
 10 21  4  0
 10 30  4  0
 11 17  2  0
 12 18  1  0
 13 15  1  0
 14 24  1  0
 15 25  1  0
 16 28  2  0
 17 20  1  0
 19 24  4  0
 20 23  1  0
 21 22  4  0
 22 23  4  0
 25 26  4  0
 27 29  2  0
M  END
$$$$

 Created by Python create_sdf_string function

 30 33  0  0  0  0  0  0  0  0999 V2000
    8.3036    9.8571   18.4133 C   0  0  0  0  0  0  0  0  0  0  0  0
    8.3694    7.6612   22.6703 C   0  0  0  0  0  0  0  0  0  0  0  0
    8.4143    6.6863   16.2273 C   0  0  0  0  0  0  0  0  0  0  0  0
   10.7581    6.5674   21.7636 C   0  0  0  0  0  0  0  0  0  0  0  0
    8.4452    8.7960   19.2958 O   0  0  0  0  0  0  0  0  0  0  0  0
    8.7122    6.7842   24.8569 C   0  0  0  0  0  0  0  0  0  0  0  0
   10.3400    6.1726   14.3081 C   0  0  0  0  0  0  0  0  0  0  0  0
    7.4297    7.5873   24.8962 C   0  0  0  0  0  0  0  0  0  0  0  0
    8.1566   10.0536   16.0516 O   0  0  0  0  0  0  0  0  0  0  0  0
   12.4989    6.2074   20.1776 C   0  0  0  0  0  0  0  0  0  0  0  0
    6.9192    9.1053   20.9073 O   0  0  0  0  0  0  0  0  0  0  0  0
   14.3979    6.0729   18.7784 C   0  0  0  0  0  0  0  0  0  0  0  0
    8.6811    9.5354   16.9998 C   0  0  0  0  0  0  0  0  0  0  0  0
    9.2512    4.2713   13.7653 O   0  0  0  0  0  0  0  0  0  0  0  0
    9.6495    8.6317   16.8332 N   0  0  0  0  0  0  0  0  0  0  0  0
    6.2934    8.6988   23.1988 O   0  0  0  0  0  0  0  0  0  0  0  0
    7.9806    8.6543   20.5437 C   0  0  0  0  0  0  0  0  0  0  0  0
   13.7270    5.7144   19.8610 O   0  0  0  0  0  0  0  0  0  0  0  0
    8.3351    5.5235   15.4478 C   0  0  0  0  0  0  0  0  0  0  0  0
    8.7700    7.8434   21.3915 C   0  0  0  0  0  0  0  0  0  0  0  0
   11.7856    6.8851   19.2401 C   0  0  0  0  0  0  0  0  0  0  0  0
   10.5281    7.4276   19.5649 C   0  0  0  0  0  0  0  0  0  0  0  0
   10.0256    7.2907   20.8484 C   0  0  0  0  0  0  0  0  0  0  0  0
    9.3113    5.3049   14.4911 C   0  0  0  0  0  0  0  0  0  0  0  0
    9.4607    7.5646   16.0139 C   0  0  0  0  0  0  0  0  0  0  0  0
   10.4192    7.3157   15.0955 C   0  0  0  0  0  0  0  0  0  0  0  0
   10.2489    6.4227   23.0218 N   0  0  0  0  0  0  0  0  0  0  0  0
    7.2472    8.0746   23.5050 C   0  0  0  0  0  0  0  0  0  0  0  0
    9.2051    6.9101   23.4604 C   0  0  0  0  0  0  0  0  0  0  0  0
   11.9646    6.0299   21.4251 C   0  0  0  0  0  0  0  0  0  0  0  0
  1  5  1  0
  1 13  1  0
  2 20  2  0
  2 28  1  0
  2 29  1  0
  3 19  4  0
  3 25  4  0
  4 23  4  0
  4 27  1  0
  4 30  4  0
  5 17  1  0
  6  8  1  0
  6 29  1  0
  7 24  4  0
  7 26  4  0
  8 28  1  0
  9 13  2  0
 10 18  1  0
 10 21  4  0
 10 30  4  0
 11 17  2  0
 12 18  1  0
 13 15  1  0
 14 24  1  0
 15 25  1  0
 16 28  2  0
 17 20  1  0
 19 24  4  0
 20 23  1  0
 21 22  4  0
 22 23  4  0
 25 26  4  0
 27 29  2  0
M  END
$$$$

 Created by Python create_sdf_string function

 30 33  0  0  0  0  0  0  0  0999 V2000
    8.3036    9.8571   18.4133 C   0  0  0  0  0  0  0  0  0  0  0  0
    8.3694    7.6612   22.6703 C   0  0  0  0  0  0  0  0  0  0  0  0
    8.4143    6.6863   16.2273 C   0  0  0  0  0  0  0  0  0  0  0  0
   10.7581    6.5674   21.7636 C   0  0  0  0  0  0  0  0  0  0  0  0
    8.4452    8.7960   19.2958 O   0  0  0  0  0  0  0  0  0  0  0  0
    8.7122    6.7842   24.8569 C   0  0  0  0  0  0  0  0  0  0  0  0
   10.3400    6.1726   14.3081 C   0  0  0  0  0  0  0  0  0  0  0  0
    7.4297    7.5873   24.8962 C   0  0  0  0  0  0  0  0  0  0  0  0
    8.1566   10.0536   16.0516 O   0  0  0  0  0  0  0  0  0  0  0  0
   12.4989    6.2074   20.1776 C   0  0  0  0  0  0  0  0  0  0  0  0
    6.9192    9.1053   20.9073 O   0  0  0  0  0  0  0  0  0  0  0  0
   14.3979    6.0729   18.7784 C   0  0  0  0  0  0  0  0  0  0  0  0
    8.6811    9.5354   16.9998 C   0  0  0  0  0  0  0  0  0  0  0  0
    9.2512    4.2713   13.7653 O   0  0  0  0  0  0  0  0  0  0  0  0
    9.6495    8.6317   16.8332 N   0  0  0  0  0  0  0  0  0  0  0  0
    6.2934    8.6988   23.1988 O   0  0  0  0  0  0  0  0  0  0  0  0
    7.9806    8.6543   20.5437 C   0  0  0  0  0  0  0  0  0  0  0  0
   13.7270    5.7144   19.8610 O   0  0  0  0  0  0  0  0  0  0  0  0
    8.3351    5.5235   15.4478 C   0  0  0  0  0  0  0  0  0  0  0  0
    8.7700    7.8434   21.3915 C   0  0  0  0  0  0  0  0  0  0  0  0
   11.7856    6.8851   19.2401 C   0  0  0  0  0  0  0  0  0  0  0  0
   10.5281    7.4276   19.5649 C   0  0  0  0  0  0  0  0  0  0  0  0
   10.0256    7.2907   20.8484 C   0  0  0  0  0  0  0  0  0  0  0  0
    9.3113    5.3049   14.4911 C   0  0  0  0  0  0  0  0  0  0  0  0
    9.4607    7.5646   16.0139 C   0  0  0  0  0  0  0  0  0  0  0  0
   10.4192    7.3157   15.0955 C   0  0  0  0  0  0  0  0  0  0  0  0
   10.2489    6.4227   23.0218 N   0  0  0  0  0  0  0  0  0  0  0  0
    7.2472    8.0746   23.5050 C   0  0  0  0  0  0  0  0  0  0  0  0
    9.2051    6.9101   23.4604 C   0  0  0  0  0  0  0  0  0  0  0  0
   11.9646    6.0299   21.4251 C   0  0  0  0  0  0  0  0  0  0  0  0
  1  5  1  0
  1 13  1  0
  2 20  2  0
  2 28  1  0
  2 29  1  0
  3 19  4  0
  3 25  4  0
  4 23  4  0
  4 27  1  0
  4 30  4  0
  5 17  1  0
  6  8  1  0
  6 29  1  0
  7 24  4  0
  7 26  4  0
  8 28  1  0
  9 13  2  0
 10 18  1  0
 10 21  4  0
 10 30  4  0
 11 17  2  0
 12 18  1  0
 13 15  1  0
 14 24  1  0
 15 25  1  0
 16 28  2  0
 17 20  1  0
 19 24  4  0
 20 23  1  0
 21 22  4  0
 22 23  4  0
 25 26  4  0
 27 29  2  0
M  END
$$$$

 Created by Python create_sdf_string function

 30 33  0  0  0  0  0  0  0  0999 V2000
    8.3036    9.8571   18.4133 C   0  0  0  0  0  0  0  0  0  0  0  0
    8.3694    7.6612   22.6703 C   0  0  0  0  0  0  0  0  0  0  0  0
    8.4143    6.6863   16.2273 C   0  0  0  0  0  0  0  0  0  0  0  0
   10.7581    6.5674   21.7636 C   0  0  0  0  0  0  0  0  0  0  0  0
    8.4452    8.7960   19.2958 O   0  0  0  0  0  0  0  0  0  0  0  0
    8.7122    6.7842   24.8569 C   0  0  0  0  0  0  0  0  0  0  0  0
   10.3400    6.1726   14.3081 C   0  0  0  0  0  0  0  0  0  0  0  0
    7.4297    7.5873   24.8962 C   0  0  0  0  0  0  0  0  0  0  0  0
    8.1566   10.0536   16.0516 O   0  0  0  0  0  0  0  0  0  0  0  0
   12.4989    6.2074   20.1776 C   0  0  0  0  0  0  0  0  0  0  0  0
    6.9192    9.1053   20.9073 O   0  0  0  0  0  0  0  0  0  0  0  0
   14.3979    6.0729   18.7784 C   0  0  0  0  0  0  0  0  0  0  0  0
    8.6811    9.5354   16.9998 C   0  0  0  0  0  0  0  0  0  0  0  0
    9.2512    4.2713   13.7653 O   0  0  0  0  0  0  0  0  0  0  0  0
    9.6495    8.6317   16.8332 N   0  0  0  0  0  0  0  0  0  0  0  0
    6.2934    8.6988   23.1988 O   0  0  0  0  0  0  0  0  0  0  0  0
    7.9806    8.6543   20.5437 C   0  0  0  0  0  0  0  0  0  0  0  0
   13.7270    5.7144   19.8610 O   0  0  0  0  0  0  0  0  0  0  0  0
    8.3351    5.5235   15.4478 C   0  0  0  0  0  0  0  0  0  0  0  0
    8.7700    7.8434   21.3915 C   0  0  0  0  0  0  0  0  0  0  0  0
   11.7856    6.8851   19.2401 C   0  0  0  0  0  0  0  0  0  0  0  0
   10.5281    7.4276   19.5649 C   0  0  0  0  0  0  0  0  0  0  0  0
   10.0256    7.2907   20.8484 C   0  0  0  0  0  0  0  0  0  0  0  0
    9.3113    5.3049   14.4911 C   0  0  0  0  0  0  0  0  0  0  0  0
    9.4607    7.5646   16.0139 C   0  0  0  0  0  0  0  0  0  0  0  0
   10.4192    7.3157   15.0955 C   0  0  0  0  0  0  0  0  0  0  0  0
   10.2489    6.4227   23.0218 N   0  0  0  0  0  0  0  0  0  0  0  0
    7.2472    8.0746   23.5050 C   0  0  0  0  0  0  0  0  0  0  0  0
    9.2051    6.9101   23.4604 C   0  0  0  0  0  0  0  0  0  0  0  0
   11.9646    6.0299   21.4251 C   0  0  0  0  0  0  0  0  0  0  0  0
  1  5  1  0
  1 13  1  0
  2 20  2  0
  2 28  1  0
  2 29  1  0
  3 19  4  0
  3 25  4  0
  4 23  4  0
  4 27  1  0
  4 30  4  0
  5 17  1  0
  6  8  1  0
  6 29  1  0
  7 24  4  0
  7 26  4  0
  8 28  1  0
  9 13  2  0
 10 18  1  0
 10 21  4  0
 10 30  4  0
 11 17  2  0
 12 18  1  0
 13 15  1  0
 14 24  1  0
 15 25  1  0
 16 28  2  0
 17 20  1  0
 19 24  4  0
 20 23  1  0
 21 22  4  0
 22 23  4  0
 25 26  4  0
 27 29  2  0
M  END
$$$$

 Created by Python create_sdf_string function

 30 33  0  0  0  0  0  0  0  0999 V2000
    8.3036    9.8571   18.4133 C   0  0  0  0  0  0  0  0  0  0  0  0
    8.3694    7.6612   22.6703 C   0  0  0  0  0  0  0  0  0  0  0  0
    8.4143    6.6863   16.2273 C   0  0  0  0  0  0  0  0  0  0  0  0
   10.7581    6.5674   21.7636 C   0  0  0  0  0  0  0  0  0  0  0  0
    8.4452    8.7960   19.2958 O   0  0  0  0  0  0  0  0  0  0  0  0
    8.7122    6.7842   24.8569 C   0  0  0  0  0  0  0  0  0  0  0  0
   10.3400    6.1726   14.3081 C   0  0  0  0  0  0  0  0  0  0  0  0
    7.4297    7.5873   24.8962 C   0  0  0  0  0  0  0  0  0  0  0  0
    8.1566   10.0536   16.0516 O   0  0  0  0  0  0  0  0  0  0  0  0
   12.4989    6.2074   20.1776 C   0  0  0  0  0  0  0  0  0  0  0  0
    6.9192    9.1053   20.9073 O   0  0  0  0  0  0  0  0  0  0  0  0
   14.3979    6.0729   18.7784 C   0  0  0  0  0  0  0  0  0  0  0  0
    8.6811    9.5354   16.9998 C   0  0  0  0  0  0  0  0  0  0  0  0
    9.2512    4.2713   13.7653 O   0  0  0  0  0  0  0  0  0  0  0  0
    9.6495    8.6317   16.8332 N   0  0  0  0  0  0  0  0  0  0  0  0
    6.2934    8.6988   23.1988 O   0  0  0  0  0  0  0  0  0  0  0  0
    7.9806    8.6543   20.5437 C   0  0  0  0  0  0  0  0  0  0  0  0
   13.7270    5.7144   19.8610 O   0  0  0  0  0  0  0  0  0  0  0  0
    8.3351    5.5235   15.4478 C   0  0  0  0  0  0  0  0  0  0  0  0
    8.7700    7.8434   21.3915 C   0  0  0  0  0  0  0  0  0  0  0  0
   11.7856    6.8851   19.2401 C   0  0  0  0  0  0  0  0  0  0  0  0
   10.5281    7.4276   19.5649 C   0  0  0  0  0  0  0  0  0  0  0  0
   10.0256    7.2907   20.8484 C   0  0  0  0  0  0  0  0  0  0  0  0
    9.3113    5.3049   14.4911 C   0  0  0  0  0  0  0  0  0  0  0  0
    9.4607    7.5646   16.0139 C   0  0  0  0  0  0  0  0  0  0  0  0
   10.4192    7.3157   15.0955 C   0  0  0  0  0  0  0  0  0  0  0  0
   10.2489    6.4227   23.0218 N   0  0  0  0  0  0  0  0  0  0  0  0
    7.2472    8.0746   23.5050 C   0  0  0  0  0  0  0  0  0  0  0  0
    9.2051    6.9101   23.4604 C   0  0  0  0  0  0  0  0  0  0  0  0
   11.9646    6.0299   21.4251 C   0  0  0  0  0  0  0  0  0  0  0  0
  1  5  1  0
  1 13  1  0
  2 20  2  0
  2 28  1  0
  2 29  1  0
  3 19  4  0
  3 25  4  0
  4 23  4  0
  4 27  1  0
  4 30  4  0
  5 17  1  0
  6  8  1  0
  6 29  1  0
  7 24  4  0
  7 26  4  0
  8 28  1  0
  9 13  2  0
 10 18  1  0
 10 21  4  0
 10 30  4  0
 11 17  2  0
 12 18  1  0
 13 15  1  0
 14 24  1  0
 15 25  1  0
 16 28  2  0
 17 20  1  0
 19 24  4  0
 20 23  1  0
 21 22  4  0
 22 23  4  0
 25 26  4  0
 27 29  2  0
M  END
$$$$

 Created by Python create_sdf_string function

 30 33  0  0  0  0  0  0  0  0999 V2000
    8.3036    9.8571   18.4133 C   0  0  0  0  0  0  0  0  0  0  0  0
    8.3694    7.6612   22.6703 C   0  0  0  0  0  0  0  0  0  0  0  0
    8.4143    6.6863   16.2273 C   0  0  0  0  0  0  0  0  0  0  0  0
   10.7581    6.5674   21.7636 C   0  0  0  0  0  0  0  0  0  0  0  0
    8.4452    8.7960   19.2958 O   0  0  0  0  0  0  0  0  0  0  0  0
    8.7122    6.7842   24.8569 C   0  0  0  0  0  0  0  0  0  0  0  0
   10.3400    6.1726   14.3081 C   0  0  0  0  0  0  0  0  0  0  0  0
    7.4297    7.5873   24.8962 C   0  0  0  0  0  0  0  0  0  0  0  0
    8.1566   10.0536   16.0516 O   0  0  0  0  0  0  0  0  0  0  0  0
   12.4989    6.2074   20.1776 C   0  0  0  0  0  0  0  0  0  0  0  0
    6.9192    9.1053   20.9073 O   0  0  0  0  0  0  0  0  0  0  0  0
   14.3979    6.0729   18.7784 C   0  0  0  0  0  0  0  0  0  0  0  0
    8.6811    9.5354   16.9998 C   0  0  0  0  0  0  0  0  0  0  0  0
    9.2512    4.2713   13.7653 O   0  0  0  0  0  0  0  0  0  0  0  0
    9.6495    8.6317   16.8332 N   0  0  0  0  0  0  0  0  0  0  0  0
    6.2934    8.6988   23.1988 O   0  0  0  0  0  0  0  0  0  0  0  0
    7.9806    8.6543   20.5437 C   0  0  0  0  0  0  0  0  0  0  0  0
   13.7270    5.7144   19.8610 O   0  0  0  0  0  0  0  0  0  0  0  0
    8.3351    5.5235   15.4478 C   0  0  0  0  0  0  0  0  0  0  0  0
    8.7700    7.8434   21.3915 C   0  0  0  0  0  0  0  0  0  0  0  0
   11.7856    6.8851   19.2401 C   0  0  0  0  0  0  0  0  0  0  0  0
   10.5281    7.4276   19.5649 C   0  0  0  0  0  0  0  0  0  0  0  0
   10.0256    7.2907   20.8484 C   0  0  0  0  0  0  0  0  0  0  0  0
    9.3113    5.3049   14.4911 C   0  0  0  0  0  0  0  0  0  0  0  0
    9.4607    7.5646   16.0139 C   0  0  0  0  0  0  0  0  0  0  0  0
   10.4192    7.3157   15.0955 C   0  0  0  0  0  0  0  0  0  0  0  0
   10.2489    6.4227   23.0218 N   0  0  0  0  0  0  0  0  0  0  0  0
    7.2472    8.0746   23.5050 C   0  0  0  0  0  0  0  0  0  0  0  0
    9.2051    6.9101   23.4604 C   0  0  0  0  0  0  0  0  0  0  0  0
   11.9646    6.0299   21.4251 C   0  0  0  0  0  0  0  0  0  0  0  0
  1  5  1  0
  1 13  1  0
  2 20  2  0
  2 28  1  0
  2 29  1  0
  3 19  4  0
  3 25  4  0
  4 23  4  0
  4 27  1  0
  4 30  4  0
  5 17  1  0
  6  8  1  0
  6 29  1  0
  7 24  4  0
  7 26  4  0
  8 28  1  0
  9 13  2  0
 10 18  1  0
 10 21  4  0
 10 30  4  0
 11 17  2  0
 12 18  1  0
 13 15  1  0
 14 24  1  0
 15 25  1  0
 16 28  2  0
 17 20  1  0
 19 24  4  0
 20 23  1  0
 21 22  4  0
 22 23  4  0
 25 26  4  0
 27 29  2  0
M  END
$$$$

 Created by Python create_sdf_string function

 30 33  0  0  0  0  0  0  0  0999 V2000
    8.3036    9.8571   18.4133 C   0  0  0  0  0  0  0  0  0  0  0  0
    8.3694    7.6612   22.6703 C   0  0  0  0  0  0  0  0  0  0  0  0
    8.4143    6.6863   16.2273 C   0  0  0  0  0  0  0  0  0  0  0  0
   10.7581    6.5674   21.7636 C   0  0  0  0  0  0  0  0  0  0  0  0
    8.4452    8.7960   19.2958 O   0  0  0  0  0  0  0  0  0  0  0  0
    8.7122    6.7842   24.8569 C   0  0  0  0  0  0  0  0  0  0  0  0
   10.3400    6.1726   14.3081 C   0  0  0  0  0  0  0  0  0  0  0  0
    7.4297    7.5873   24.8962 C   0  0  0  0  0  0  0  0  0  0  0  0
    8.1566   10.0536   16.0516 O   0  0  0  0  0  0  0  0  0  0  0  0
   12.4989    6.2074   20.1776 C   0  0  0  0  0  0  0  0  0  0  0  0
    6.9192    9.1053   20.9073 O   0  0  0  0  0  0  0  0  0  0  0  0
   14.3979    6.0729   18.7784 C   0  0  0  0  0  0  0  0  0  0  0  0
    8.6811    9.5354   16.9998 C   0  0  0  0  0  0  0  0  0  0  0  0
    9.2512    4.2713   13.7653 O   0  0  0  0  0  0  0  0  0  0  0  0
    9.6495    8.6317   16.8332 N   0  0  0  0  0  0  0  0  0  0  0  0
    6.2934    8.6988   23.1988 O   0  0  0  0  0  0  0  0  0  0  0  0
    7.9806    8.6543   20.5437 C   0  0  0  0  0  0  0  0  0  0  0  0
   13.7270    5.7144   19.8610 O   0  0  0  0  0  0  0  0  0  0  0  0
    8.3351    5.5235   15.4478 C   0  0  0  0  0  0  0  0  0  0  0  0
    8.7700    7.8434   21.3915 C   0  0  0  0  0  0  0  0  0  0  0  0
   11.7856    6.8851   19.2401 C   0  0  0  0  0  0  0  0  0  0  0  0
   10.5281    7.4276   19.5649 C   0  0  0  0  0  0  0  0  0  0  0  0
   10.0256    7.2907   20.8484 C   0  0  0  0  0  0  0  0  0  0  0  0
    9.3113    5.3049   14.4911 C   0  0  0  0  0  0  0  0  0  0  0  0
    9.4607    7.5646   16.0139 C   0  0  0  0  0  0  0  0  0  0  0  0
   10.4192    7.3157   15.0955 C   0  0  0  0  0  0  0  0  0  0  0  0
   10.2489    6.4227   23.0218 N   0  0  0  0  0  0  0  0  0  0  0  0
    7.2472    8.0746   23.5050 C   0  0  0  0  0  0  0  0  0  0  0  0
    9.2051    6.9101   23.4604 C   0  0  0  0  0  0  0  0  0  0  0  0
   11.9646    6.0299   21.4251 C   0  0  0  0  0  0  0  0  0  0  0  0
  1  5  1  0
  1 13  1  0
  2 20  2  0
  2 28  1  0
  2 29  1  0
  3 19  4  0
  3 25  4  0
  4 23  4  0
  4 27  1  0
  4 30  4  0
  5 17  1  0
  6  8  1  0
  6 29  1  0
  7 24  4  0
  7 26  4  0
  8 28  1  0
  9 13  2  0
 10 18  1  0
 10 21  4  0
 10 30  4  0
 11 17  2  0
 12 18  1  0
 13 15  1  0
 14 24  1  0
 15 25  1  0
 16 28  2  0
 17 20  1  0
 19 24  4  0
 20 23  1  0
 21 22  4  0
 22 23  4  0
 25 26  4  0
 27 29  2  0
M  END
$$$$

 Created by Python create_sdf_string function

 30 33  0  0  0  0  0  0  0  0999 V2000
    8.3036    9.8571   18.4133 C   0  0  0  0  0  0  0  0  0  0  0  0
    8.3694    7.6612   22.6703 C   0  0  0  0  0  0  0  0  0  0  0  0
    8.4143    6.6863   16.2273 C   0  0  0  0  0  0  0  0  0  0  0  0
   10.7581    6.5674   21.7636 C   0  0  0  0  0  0  0  0  0  0  0  0
    8.4452    8.7960   19.2958 O   0  0  0  0  0  0  0  0  0  0  0  0
    8.7122    6.7842   24.8569 C   0  0  0  0  0  0  0  0  0  0  0  0
   10.3400    6.1726   14.3081 C   0  0  0  0  0  0  0  0  0  0  0  0
    7.4297    7.5873   24.8962 C   0  0  0  0  0  0  0  0  0  0  0  0
    8.1566   10.0536   16.0516 O   0  0  0  0  0  0  0  0  0  0  0  0
   12.4989    6.2074   20.1776 C   0  0  0  0  0  0  0  0  0  0  0  0
    6.9192    9.1053   20.9073 O   0  0  0  0  0  0  0  0  0  0  0  0
   14.3979    6.0729   18.7784 C   0  0  0  0  0  0  0  0  0  0  0  0
    8.6811    9.5354   16.9998 C   0  0  0  0  0  0  0  0  0  0  0  0
    9.2512    4.2713   13.7653 O   0  0  0  0  0  0  0  0  0  0  0  0
    9.6495    8.6317   16.8332 N   0  0  0  0  0  0  0  0  0  0  0  0
    6.2934    8.6988   23.1988 O   0  0  0  0  0  0  0  0  0  0  0  0
    7.9806    8.6543   20.5437 C   0  0  0  0  0  0  0  0  0  0  0  0
   13.7270    5.7144   19.8610 O   0  0  0  0  0  0  0  0  0  0  0  0
    8.3351    5.5235   15.4478 C   0  0  0  0  0  0  0  0  0  0  0  0
    8.7700    7.8434   21.3915 C   0  0  0  0  0  0  0  0  0  0  0  0
   11.7856    6.8851   19.2401 C   0  0  0  0  0  0  0  0  0  0  0  0
   10.5281    7.4276   19.5649 C   0  0  0  0  0  0  0  0  0  0  0  0
   10.0256    7.2907   20.8484 C   0  0  0  0  0  0  0  0  0  0  0  0
    9.3113    5.3049   14.4911 C   0  0  0  0  0  0  0  0  0  0  0  0
    9.4607    7.5646   16.0139 C   0  0  0  0  0  0  0  0  0  0  0  0
   10.4192    7.3157   15.0955 C   0  0  0  0  0  0  0  0  0  0  0  0
   10.2489    6.4227   23.0218 N   0  0  0  0  0  0  0  0  0  0  0  0
    7.2472    8.0746   23.5050 C   0  0  0  0  0  0  0  0  0  0  0  0
    9.2051    6.9101   23.4604 C   0  0  0  0  0  0  0  0  0  0  0  0
   11.9646    6.0299   21.4251 C   0  0  0  0  0  0  0  0  0  0  0  0
  1  5  1  0
  1 13  1  0
  2 20  2  0
  2 28  1  0
  2 29  1  0
  3 19  4  0
  3 25  4  0
  4 23  4  0
  4 27  1  0
  4 30  4  0
  5 17  1  0
  6  8  1  0
  6 29  1  0
  7 24  4  0
  7 26  4  0
  8 28  1  0
  9 13  2  0
 10 18  1  0
 10 21  4  0
 10 30  4  0
 11 17  2  0
 12 18  1  0
 13 15  1  0
 14 24  1  0
 15 25  1  0
 16 28  2  0
 17 20  1  0
 19 24  4  0
 20 23  1  0
 21 22  4  0
 22 23  4  0
 25 26  4  0
 27 29  2  0
M  END
$$$$

 Created by Python create_sdf_string function

 30 33  0  0  0  0  0  0  0  0999 V2000
    8.3036    9.8571   18.4133 C   0  0  0  0  0  0  0  0  0  0  0  0
    8.3694    7.6612   22.6703 C   0  0  0  0  0  0  0  0  0  0  0  0
    8.4143    6.6863   16.2273 C   0  0  0  0  0  0  0  0  0  0  0  0
   10.7581    6.5674   21.7636 C   0  0  0  0  0  0  0  0  0  0  0  0
    8.4452    8.7960   19.2958 O   0  0  0  0  0  0  0  0  0  0  0  0
    8.7122    6.7842   24.8569 C   0  0  0  0  0  0  0  0  0  0  0  0
   10.3400    6.1726   14.3081 C   0  0  0  0  0  0  0  0  0  0  0  0
    7.4297    7.5873   24.8962 C   0  0  0  0  0  0  0  0  0  0  0  0
    8.1566   10.0536   16.0516 O   0  0  0  0  0  0  0  0  0  0  0  0
   12.4989    6.2074   20.1776 C   0  0  0  0  0  0  0  0  0  0  0  0
    6.9192    9.1053   20.9073 O   0  0  0  0  0  0  0  0  0  0  0  0
   14.3979    6.0729   18.7784 C   0  0  0  0  0  0  0  0  0  0  0  0
    8.6811    9.5354   16.9998 C   0  0  0  0  0  0  0  0  0  0  0  0
    9.2512    4.2713   13.7653 O   0  0  0  0  0  0  0  0  0  0  0  0
    9.6495    8.6317   16.8332 N   0  0  0  0  0  0  0  0  0  0  0  0
    6.2934    8.6988   23.1988 O   0  0  0  0  0  0  0  0  0  0  0  0
    7.9806    8.6543   20.5437 C   0  0  0  0  0  0  0  0  0  0  0  0
   13.7270    5.7144   19.8610 O   0  0  0  0  0  0  0  0  0  0  0  0
    8.3351    5.5235   15.4478 C   0  0  0  0  0  0  0  0  0  0  0  0
    8.7700    7.8434   21.3915 C   0  0  0  0  0  0  0  0  0  0  0  0
   11.7856    6.8851   19.2401 C   0  0  0  0  0  0  0  0  0  0  0  0
   10.5281    7.4276   19.5649 C   0  0  0  0  0  0  0  0  0  0  0  0
   10.0256    7.2907   20.8484 C   0  0  0  0  0  0  0  0  0  0  0  0
    9.3113    5.3049   14.4911 C   0  0  0  0  0  0  0  0  0  0  0  0
    9.4607    7.5646   16.0139 C   0  0  0  0  0  0  0  0  0  0  0  0
   10.4192    7.3157   15.0955 C   0  0  0  0  0  0  0  0  0  0  0  0
   10.2489    6.4227   23.0218 N   0  0  0  0  0  0  0  0  0  0  0  0
    7.2472    8.0746   23.5050 C   0  0  0  0  0  0  0  0  0  0  0  0
    9.2051    6.9101   23.4604 C   0  0  0  0  0  0  0  0  0  0  0  0
   11.9646    6.0299   21.4251 C   0  0  0  0  0  0  0  0  0  0  0  0
  1  5  1  0
  1 13  1  0
  2 20  2  0
  2 28  1  0
  2 29  1  0
  3 19  4  0
  3 25  4  0
  4 23  4  0
  4 27  1  0
  4 30  4  0
  5 17  1  0
  6  8  1  0
  6 29  1  0
  7 24  4  0
  7 26  4  0
  8 28  1  0
  9 13  2  0
 10 18  1  0
 10 21  4  0
 10 30  4  0
 11 17  2  0
 12 18  1  0
 13 15  1  0
 14 24  1  0
 15 25  1  0
 16 28  2  0
 17 20  1  0
 19 24  4  0
 20 23  1  0
 21 22  4  0
 22 23  4  0
 25 26  4  0
 27 29  2  0
M  END
$$$$

 Created by Python create_sdf_string function

 30 33  0  0  0  0  0  0  0  0999 V2000
    8.3036    9.8571   18.4133 C   0  0  0  0  0  0  0  0  0  0  0  0
    8.3694    7.6612   22.6703 C   0  0  0  0  0  0  0  0  0  0  0  0
    8.4143    6.6863   16.2273 C   0  0  0  0  0  0  0  0  0  0  0  0
   10.7581    6.5674   21.7636 C   0  0  0  0  0  0  0  0  0  0  0  0
    8.4452    8.7960   19.2958 O   0  0  0  0  0  0  0  0  0  0  0  0
    8.7122    6.7842   24.8569 C   0  0  0  0  0  0  0  0  0  0  0  0
   10.3400    6.1726   14.3081 C   0  0  0  0  0  0  0  0  0  0  0  0
    7.4297    7.5873   24.8962 C   0  0  0  0  0  0  0  0  0  0  0  0
    8.1566   10.0536   16.0516 O   0  0  0  0  0  0  0  0  0  0  0  0
   12.4989    6.2074   20.1776 C   0  0  0  0  0  0  0  0  0  0  0  0
    6.9192    9.1053   20.9073 O   0  0  0  0  0  0  0  0  0  0  0  0
   14.3979    6.0729   18.7784 C   0  0  0  0  0  0  0  0  0  0  0  0
    8.6811    9.5354   16.9998 C   0  0  0  0  0  0  0  0  0  0  0  0
    9.2512    4.2713   13.7653 O   0  0  0  0  0  0  0  0  0  0  0  0
    9.6495    8.6317   16.8332 N   0  0  0  0  0  0  0  0  0  0  0  0
    6.2934    8.6988   23.1988 O   0  0  0  0  0  0  0  0  0  0  0  0
    7.9806    8.6543   20.5437 C   0  0  0  0  0  0  0  0  0  0  0  0
   13.7270    5.7144   19.8610 O   0  0  0  0  0  0  0  0  0  0  0  0
    8.3351    5.5235   15.4478 C   0  0  0  0  0  0  0  0  0  0  0  0
    8.7700    7.8434   21.3915 C   0  0  0  0  0  0  0  0  0  0  0  0
   11.7856    6.8851   19.2401 C   0  0  0  0  0  0  0  0  0  0  0  0
   10.5281    7.4276   19.5649 C   0  0  0  0  0  0  0  0  0  0  0  0
   10.0256    7.2907   20.8484 C   0  0  0  0  0  0  0  0  0  0  0  0
    9.3113    5.3049   14.4911 C   0  0  0  0  0  0  0  0  0  0  0  0
    9.4607    7.5646   16.0139 C   0  0  0  0  0  0  0  0  0  0  0  0
   10.4192    7.3157   15.0955 C   0  0  0  0  0  0  0  0  0  0  0  0
   10.2489    6.4227   23.0218 N   0  0  0  0  0  0  0  0  0  0  0  0
    7.2472    8.0746   23.5050 C   0  0  0  0  0  0  0  0  0  0  0  0
    9.2051    6.9101   23.4604 C   0  0  0  0  0  0  0  0  0  0  0  0
   11.9646    6.0299   21.4251 C   0  0  0  0  0  0  0  0  0  0  0  0
  1  5  1  0
  1 13  1  0
  2 20  2  0
  2 28  1  0
  2 29  1  0
  3 19  4  0
  3 25  4  0
  4 23  4  0
  4 27  1  0
  4 30  4  0
  5 17  1  0
  6  8  1  0
  6 29  1  0
  7 24  4  0
  7 26  4  0
  8 28  1  0
  9 13  2  0
 10 18  1  0
 10 21  4  0
 10 30  4  0
 11 17  2  0
 12 18  1  0
 13 15  1  0
 14 24  1  0
 15 25  1  0
 16 28  2  0
 17 20  1  0
 19 24  4  0
 20 23  1  0
 21 22  4  0
 22 23  4  0
 25 26  4  0
 27 29  2  0
M  END
$$$$

 Created by Python create_sdf_string function

 30 33  0  0  0  0  0  0  0  0999 V2000
    8.3036    9.8571   18.4133 C   0  0  0  0  0  0  0  0  0  0  0  0
    8.3694    7.6612   22.6703 C   0  0  0  0  0  0  0  0  0  0  0  0
    8.4143    6.6863   16.2273 C   0  0  0  0  0  0  0  0  0  0  0  0
   10.7581    6.5674   21.7636 C   0  0  0  0  0  0  0  0  0  0  0  0
    8.4452    8.7960   19.2958 O   0  0  0  0  0  0  0  0  0  0  0  0
    8.7122    6.7842   24.8569 C   0  0  0  0  0  0  0  0  0  0  0  0
   10.3400    6.1726   14.3081 C   0  0  0  0  0  0  0  0  0  0  0  0
    7.4297    7.5873   24.8962 C   0  0  0  0  0  0  0  0  0  0  0  0
    8.1566   10.0536   16.0516 O   0  0  0  0  0  0  0  0  0  0  0  0
   12.4989    6.2074   20.1776 C   0  0  0  0  0  0  0  0  0  0  0  0
    6.9192    9.1053   20.9073 O   0  0  0  0  0  0  0  0  0  0  0  0
   14.3979    6.0729   18.7784 C   0  0  0  0  0  0  0  0  0  0  0  0
    8.6811    9.5354   16.9998 C   0  0  0  0  0  0  0  0  0  0  0  0
    9.2512    4.2713   13.7653 O   0  0  0  0  0  0  0  0  0  0  0  0
    9.6495    8.6317   16.8332 N   0  0  0  0  0  0  0  0  0  0  0  0
    6.2934    8.6988   23.1988 O   0  0  0  0  0  0  0  0  0  0  0  0
    7.9806    8.6543   20.5437 C   0  0  0  0  0  0  0  0  0  0  0  0
   13.7270    5.7144   19.8610 O   0  0  0  0  0  0  0  0  0  0  0  0
    8.3351    5.5235   15.4478 C   0  0  0  0  0  0  0  0  0  0  0  0
    8.7700    7.8434   21.3915 C   0  0  0  0  0  0  0  0  0  0  0  0
   11.7856    6.8851   19.2401 C   0  0  0  0  0  0  0  0  0  0  0  0
   10.5281    7.4276   19.5649 C   0  0  0  0  0  0  0  0  0  0  0  0
   10.0256    7.2907   20.8484 C   0  0  0  0  0  0  0  0  0  0  0  0
    9.3113    5.3049   14.4911 C   0  0  0  0  0  0  0  0  0  0  0  0
    9.4607    7.5646   16.0139 C   0  0  0  0  0  0  0  0  0  0  0  0
   10.4192    7.3157   15.0955 C   0  0  0  0  0  0  0  0  0  0  0  0
   10.2489    6.4227   23.0218 N   0  0  0  0  0  0  0  0  0  0  0  0
    7.2472    8.0746   23.5050 C   0  0  0  0  0  0  0  0  0  0  0  0
    9.2051    6.9101   23.4604 C   0  0  0  0  0  0  0  0  0  0  0  0
   11.9646    6.0299   21.4251 C   0  0  0  0  0  0  0  0  0  0  0  0
  1  5  1  0
  1 13  1  0
  2 20  2  0
  2 28  1  0
  2 29  1  0
  3 19  4  0
  3 25  4  0
  4 23  4  0
  4 27  1  0
  4 30  4  0
  5 17  1  0
  6  8  1  0
  6 29  1  0
  7 24  4  0
  7 26  4  0
  8 28  1  0
  9 13  2  0
 10 18  1  0
 10 21  4  0
 10 30  4  0
 11 17  2  0
 12 18  1  0
 13 15  1  0
 14 24  1  0
 15 25  1  0
 16 28  2  0
 17 20  1  0
 19 24  4  0
 20 23  1  0
 21 22  4  0
 22 23  4  0
 25 26  4  0
 27 29  2  0
M  END
$$$$

 Created by Python create_sdf_string function

 30 33  0  0  0  0  0  0  0  0999 V2000
    8.3036    9.8571   18.4133 C   0  0  0  0  0  0  0  0  0  0  0  0
    8.3694    7.6612   22.6703 C   0  0  0  0  0  0  0  0  0  0  0  0
    8.4143    6.6863   16.2273 C   0  0  0  0  0  0  0  0  0  0  0  0
   10.7581    6.5674   21.7636 C   0  0  0  0  0  0  0  0  0  0  0  0
    8.4452    8.7960   19.2958 O   0  0  0  0  0  0  0  0  0  0  0  0
    8.7122    6.7842   24.8569 C   0  0  0  0  0  0  0  0  0  0  0  0
   10.3400    6.1726   14.3081 C   0  0  0  0  0  0  0  0  0  0  0  0
    7.4297    7.5873   24.8962 C   0  0  0  0  0  0  0  0  0  0  0  0
    8.1566   10.0536   16.0516 O   0  0  0  0  0  0  0  0  0  0  0  0
   12.4989    6.2074   20.1776 C   0  0  0  0  0  0  0  0  0  0  0  0
    6.9192    9.1053   20.9073 O   0  0  0  0  0  0  0  0  0  0  0  0
   14.3979    6.0729   18.7784 C   0  0  0  0  0  0  0  0  0  0  0  0
    8.6811    9.5354   16.9998 C   0  0  0  0  0  0  0  0  0  0  0  0
    9.2512    4.2713   13.7653 O   0  0  0  0  0  0  0  0  0  0  0  0
    9.6495    8.6317   16.8332 N   0  0  0  0  0  0  0  0  0  0  0  0
    6.2934    8.6988   23.1988 O   0  0  0  0  0  0  0  0  0  0  0  0
    7.9806    8.6543   20.5437 C   0  0  0  0  0  0  0  0  0  0  0  0
   13.7270    5.7144   19.8610 O   0  0  0  0  0  0  0  0  0  0  0  0
    8.3351    5.5235   15.4478 C   0  0  0  0  0  0  0  0  0  0  0  0
    8.7700    7.8434   21.3915 C   0  0  0  0  0  0  0  0  0  0  0  0
   11.7856    6.8851   19.2401 C   0  0  0  0  0  0  0  0  0  0  0  0
   10.5281    7.4276   19.5649 C   0  0  0  0  0  0  0  0  0  0  0  0
   10.0256    7.2907   20.8484 C   0  0  0  0  0  0  0  0  0  0  0  0
    9.3113    5.3049   14.4911 C   0  0  0  0  0  0  0  0  0  0  0  0
    9.4607    7.5646   16.0139 C   0  0  0  0  0  0  0  0  0  0  0  0
   10.4192    7.3157   15.0955 C   0  0  0  0  0  0  0  0  0  0  0  0
   10.2489    6.4227   23.0218 N   0  0  0  0  0  0  0  0  0  0  0  0
    7.2472    8.0746   23.5050 C   0  0  0  0  0  0  0  0  0  0  0  0
    9.2051    6.9101   23.4604 C   0  0  0  0  0  0  0  0  0  0  0  0
   11.9646    6.0299   21.4251 C   0  0  0  0  0  0  0  0  0  0  0  0
  1  5  1  0
  1 13  1  0
  2 20  2  0
  2 28  1  0
  2 29  1  0
  3 19  4  0
  3 25  4  0
  4 23  4  0
  4 27  1  0
  4 30  4  0
  5 17  1  0
  6  8  1  0
  6 29  1  0
  7 24  4  0
  7 26  4  0
  8 28  1  0
  9 13  2  0
 10 18  1  0
 10 21  4  0
 10 30  4  0
 11 17  2  0
 12 18  1  0
 13 15  1  0
 14 24  1  0
 15 25  1  0
 16 28  2  0
 17 20  1  0
 19 24  4  0
 20 23  1  0
 21 22  4  0
 22 23  4  0
 25 26  4  0
 27 29  2  0
M  END
$$$$

 Created by Python create_sdf_string function

 30 33  0  0  0  0  0  0  0  0999 V2000
    8.3036    9.8571   18.4133 C   0  0  0  0  0  0  0  0  0  0  0  0
    8.3694    7.6612   22.6703 C   0  0  0  0  0  0  0  0  0  0  0  0
    8.4143    6.6863   16.2273 C   0  0  0  0  0  0  0  0  0  0  0  0
   10.7581    6.5674   21.7636 C   0  0  0  0  0  0  0  0  0  0  0  0
    8.4452    8.7960   19.2958 O   0  0  0  0  0  0  0  0  0  0  0  0
    8.7122    6.7842   24.8569 C   0  0  0  0  0  0  0  0  0  0  0  0
   10.3400    6.1726   14.3081 C   0  0  0  0  0  0  0  0  0  0  0  0
    7.4297    7.5873   24.8962 C   0  0  0  0  0  0  0  0  0  0  0  0
    8.1566   10.0536   16.0516 O   0  0  0  0  0  0  0  0  0  0  0  0
   12.4989    6.2074   20.1776 C   0  0  0  0  0  0  0  0  0  0  0  0
    6.9192    9.1053   20.9073 O   0  0  0  0  0  0  0  0  0  0  0  0
   14.3979    6.0729   18.7784 C   0  0  0  0  0  0  0  0  0  0  0  0
    8.6811    9.5354   16.9998 C   0  0  0  0  0  0  0  0  0  0  0  0
    9.2512    4.2713   13.7653 O   0  0  0  0  0  0  0  0  0  0  0  0
    9.6495    8.6317   16.8332 N   0  0  0  0  0  0  0  0  0  0  0  0
    6.2934    8.6988   23.1988 O   0  0  0  0  0  0  0  0  0  0  0  0
    7.9806    8.6543   20.5437 C   0  0  0  0  0  0  0  0  0  0  0  0
   13.7270    5.7144   19.8610 O   0  0  0  0  0  0  0  0  0  0  0  0
    8.3351    5.5235   15.4478 C   0  0  0  0  0  0  0  0  0  0  0  0
    8.7700    7.8434   21.3915 C   0  0  0  0  0  0  0  0  0  0  0  0
   11.7856    6.8851   19.2401 C   0  0  0  0  0  0  0  0  0  0  0  0
   10.5281    7.4276   19.5649 C   0  0  0  0  0  0  0  0  0  0  0  0
   10.0256    7.2907   20.8484 C   0  0  0  0  0  0  0  0  0  0  0  0
    9.3113    5.3049   14.4911 C   0  0  0  0  0  0  0  0  0  0  0  0
    9.4607    7.5646   16.0139 C   0  0  0  0  0  0  0  0  0  0  0  0
   10.4192    7.3157   15.0955 C   0  0  0  0  0  0  0  0  0  0  0  0
   10.2489    6.4227   23.0218 N   0  0  0  0  0  0  0  0  0  0  0  0
    7.2472    8.0746   23.5050 C   0  0  0  0  0  0  0  0  0  0  0  0
    9.2051    6.9101   23.4604 C   0  0  0  0  0  0  0  0  0  0  0  0
   11.9646    6.0299   21.4251 C   0  0  0  0  0  0  0  0  0  0  0  0
  1  5  1  0
  1 13  1  0
  2 20  2  0
  2 28  1  0
  2 29  1  0
  3 19  4  0
  3 25  4  0
  4 23  4  0
  4 27  1  0
  4 30  4  0
  5 17  1  0
  6  8  1  0
  6 29  1  0
  7 24  4  0
  7 26  4  0
  8 28  1  0
  9 13  2  0
 10 18  1  0
 10 21  4  0
 10 30  4  0
 11 17  2  0
 12 18  1  0
 13 15  1  0
 14 24  1  0
 15 25  1  0
 16 28  2  0
 17 20  1  0
 19 24  4  0
 20 23  1  0
 21 22  4  0
 22 23  4  0
 25 26  4  0
 27 29  2  0
M  END
$$$$

 Created by Python create_sdf_string function

 30 33  0  0  0  0  0  0  0  0999 V2000
    8.3036    9.8571   18.4133 C   0  0  0  0  0  0  0  0  0  0  0  0
    8.3694    7.6612   22.6703 C   0  0  0  0  0  0  0  0  0  0  0  0
    8.4143    6.6863   16.2273 C   0  0  0  0  0  0  0  0  0  0  0  0
   10.7581    6.5674   21.7636 C   0  0  0  0  0  0  0  0  0  0  0  0
    8.4452    8.7960   19.2958 O   0  0  0  0  0  0  0  0  0  0  0  0
    8.7122    6.7842   24.8569 C   0  0  0  0  0  0  0  0  0  0  0  0
   10.3400    6.1726   14.3081 C   0  0  0  0  0  0  0  0  0  0  0  0
    7.4297    7.5873   24.8962 C   0  0  0  0  0  0  0  0  0  0  0  0
    8.1566   10.0536   16.0516 O   0  0  0  0  0  0  0  0  0  0  0  0
   12.4989    6.2074   20.1776 C   0  0  0  0  0  0  0  0  0  0  0  0
    6.9192    9.1053   20.9073 O   0  0  0  0  0  0  0  0  0  0  0  0
   14.3979    6.0729   18.7784 C   0  0  0  0  0  0  0  0  0  0  0  0
    8.6811    9.5354   16.9998 C   0  0  0  0  0  0  0  0  0  0  0  0
    9.2512    4.2713   13.7653 O   0  0  0  0  0  0  0  0  0  0  0  0
    9.6495    8.6317   16.8332 N   0  0  0  0  0  0  0  0  0  0  0  0
    6.2934    8.6988   23.1988 O   0  0  0  0  0  0  0  0  0  0  0  0
    7.9806    8.6543   20.5437 C   0  0  0  0  0  0  0  0  0  0  0  0
   13.7270    5.7144   19.8610 O   0  0  0  0  0  0  0  0  0  0  0  0
    8.3351    5.5235   15.4478 C   0  0  0  0  0  0  0  0  0  0  0  0
    8.7700    7.8434   21.3915 C   0  0  0  0  0  0  0  0  0  0  0  0
   11.7856    6.8851   19.2401 C   0  0  0  0  0  0  0  0  0  0  0  0
   10.5281    7.4276   19.5649 C   0  0  0  0  0  0  0  0  0  0  0  0
   10.0256    7.2907   20.8484 C   0  0  0  0  0  0  0  0  0  0  0  0
    9.3113    5.3049   14.4911 C   0  0  0  0  0  0  0  0  0  0  0  0
    9.4607    7.5646   16.0139 C   0  0  0  0  0  0  0  0  0  0  0  0
   10.4192    7.3157   15.0955 C   0  0  0  0  0  0  0  0  0  0  0  0
   10.2489    6.4227   23.0218 N   0  0  0  0  0  0  0  0  0  0  0  0
    7.2472    8.0746   23.5050 C   0  0  0  0  0  0  0  0  0  0  0  0
    9.2051    6.9101   23.4604 C   0  0  0  0  0  0  0  0  0  0  0  0
   11.9646    6.0299   21.4251 C   0  0  0  0  0  0  0  0  0  0  0  0
  1  5  1  0
  1 13  1  0
  2 20  2  0
  2 28  1  0
  2 29  1  0
  3 19  4  0
  3 25  4  0
  4 23  4  0
  4 27  1  0
  4 30  4  0
  5 17  1  0
  6  8  1  0
  6 29  1  0
  7 24  4  0
  7 26  4  0
  8 28  1  0
  9 13  2  0
 10 18  1  0
 10 21  4  0
 10 30  4  0
 11 17  2  0
 12 18  1  0
 13 15  1  0
 14 24  1  0
 15 25  1  0
 16 28  2  0
 17 20  1  0
 19 24  4  0
 20 23  1  0
 21 22  4  0
 22 23  4  0
 25 26  4  0
 27 29  2  0
M  END
$$$$

 Created by Python create_sdf_string function

 30 33  0  0  0  0  0  0  0  0999 V2000
    8.3036    9.8571   18.4133 C   0  0  0  0  0  0  0  0  0  0  0  0
    8.3694    7.6612   22.6703 C   0  0  0  0  0  0  0  0  0  0  0  0
    8.4143    6.6863   16.2273 C   0  0  0  0  0  0  0  0  0  0  0  0
   10.7581    6.5674   21.7636 C   0  0  0  0  0  0  0  0  0  0  0  0
    8.4452    8.7960   19.2958 O   0  0  0  0  0  0  0  0  0  0  0  0
    8.7122    6.7842   24.8569 C   0  0  0  0  0  0  0  0  0  0  0  0
   10.3400    6.1726   14.3081 C   0  0  0  0  0  0  0  0  0  0  0  0
    7.4297    7.5873   24.8962 C   0  0  0  0  0  0  0  0  0  0  0  0
    8.1566   10.0536   16.0516 O   0  0  0  0  0  0  0  0  0  0  0  0
   12.4989    6.2074   20.1776 C   0  0  0  0  0  0  0  0  0  0  0  0
    6.9192    9.1053   20.9073 O   0  0  0  0  0  0  0  0  0  0  0  0
   14.3979    6.0729   18.7784 C   0  0  0  0  0  0  0  0  0  0  0  0
    8.6811    9.5354   16.9998 C   0  0  0  0  0  0  0  0  0  0  0  0
    9.2512    4.2713   13.7653 O   0  0  0  0  0  0  0  0  0  0  0  0
    9.6495    8.6317   16.8332 N   0  0  0  0  0  0  0  0  0  0  0  0
    6.2934    8.6988   23.1988 O   0  0  0  0  0  0  0  0  0  0  0  0
    7.9806    8.6543   20.5437 C   0  0  0  0  0  0  0  0  0  0  0  0
   13.7270    5.7144   19.8610 O   0  0  0  0  0  0  0  0  0  0  0  0
    8.3351    5.5235   15.4478 C   0  0  0  0  0  0  0  0  0  0  0  0
    8.7700    7.8434   21.3915 C   0  0  0  0  0  0  0  0  0  0  0  0
   11.7856    6.8851   19.2401 C   0  0  0  0  0  0  0  0  0  0  0  0
   10.5281    7.4276   19.5649 C   0  0  0  0  0  0  0  0  0  0  0  0
   10.0256    7.2907   20.8484 C   0  0  0  0  0  0  0  0  0  0  0  0
    9.3113    5.3049   14.4911 C   0  0  0  0  0  0  0  0  0  0  0  0
    9.4607    7.5646   16.0139 C   0  0  0  0  0  0  0  0  0  0  0  0
   10.4192    7.3157   15.0955 C   0  0  0  0  0  0  0  0  0  0  0  0
   10.2489    6.4227   23.0218 N   0  0  0  0  0  0  0  0  0  0  0  0
    7.2472    8.0746   23.5050 C   0  0  0  0  0  0  0  0  0  0  0  0
    9.2051    6.9101   23.4604 C   0  0  0  0  0  0  0  0  0  0  0  0
   11.9646    6.0299   21.4251 C   0  0  0  0  0  0  0  0  0  0  0  0
  1  5  1  0
  1 13  1  0
  2 20  2  0
  2 28  1  0
  2 29  1  0
  3 19  4  0
  3 25  4  0
  4 23  4  0
  4 27  1  0
  4 30  4  0
  5 17  1  0
  6  8  1  0
  6 29  1  0
  7 24  4  0
  7 26  4  0
  8 28  1  0
  9 13  2  0
 10 18  1  0
 10 21  4  0
 10 30  4  0
 11 17  2  0
 12 18  1  0
 13 15  1  0
 14 24  1  0
 15 25  1  0
 16 28  2  0
 17 20  1  0
 19 24  4  0
 20 23  1  0
 21 22  4  0
 22 23  4  0
 25 26  4  0
 27 29  2  0
M  END
$$$$

 Created by Python create_sdf_string function

 30 33  0  0  0  0  0  0  0  0999 V2000
    8.3036    9.8571   18.4133 C   0  0  0  0  0  0  0  0  0  0  0  0
    8.3694    7.6612   22.6703 C   0  0  0  0  0  0  0  0  0  0  0  0
    8.4143    6.6863   16.2273 C   0  0  0  0  0  0  0  0  0  0  0  0
   10.7581    6.5674   21.7636 C   0  0  0  0  0  0  0  0  0  0  0  0
    8.4452    8.7960   19.2958 O   0  0  0  0  0  0  0  0  0  0  0  0
    8.7122    6.7842   24.8569 C   0  0  0  0  0  0  0  0  0  0  0  0
   10.3400    6.1726   14.3081 C   0  0  0  0  0  0  0  0  0  0  0  0
    7.4297    7.5873   24.8962 C   0  0  0  0  0  0  0  0  0  0  0  0
    8.1566   10.0536   16.0516 O   0  0  0  0  0  0  0  0  0  0  0  0
   12.4989    6.2074   20.1776 C   0  0  0  0  0  0  0  0  0  0  0  0
    6.9192    9.1053   20.9073 O   0  0  0  0  0  0  0  0  0  0  0  0
   14.3979    6.0729   18.7784 C   0  0  0  0  0  0  0  0  0  0  0  0
    8.6811    9.5354   16.9998 C   0  0  0  0  0  0  0  0  0  0  0  0
    9.2512    4.2713   13.7653 O   0  0  0  0  0  0  0  0  0  0  0  0
    9.6495    8.6317   16.8332 N   0  0  0  0  0  0  0  0  0  0  0  0
    6.2934    8.6988   23.1988 O   0  0  0  0  0  0  0  0  0  0  0  0
    7.9806    8.6543   20.5437 C   0  0  0  0  0  0  0  0  0  0  0  0
   13.7270    5.7144   19.8610 O   0  0  0  0  0  0  0  0  0  0  0  0
    8.3351    5.5235   15.4478 C   0  0  0  0  0  0  0  0  0  0  0  0
    8.7700    7.8434   21.3915 C   0  0  0  0  0  0  0  0  0  0  0  0
   11.7856    6.8851   19.2401 C   0  0  0  0  0  0  0  0  0  0  0  0
   10.5281    7.4276   19.5649 C   0  0  0  0  0  0  0  0  0  0  0  0
   10.0256    7.2907   20.8484 C   0  0  0  0  0  0  0  0  0  0  0  0
    9.3113    5.3049   14.4911 C   0  0  0  0  0  0  0  0  0  0  0  0
    9.4607    7.5646   16.0139 C   0  0  0  0  0  0  0  0  0  0  0  0
   10.4192    7.3157   15.0955 C   0  0  0  0  0  0  0  0  0  0  0  0
   10.2489    6.4227   23.0218 N   0  0  0  0  0  0  0  0  0  0  0  0
    7.2472    8.0746   23.5050 C   0  0  0  0  0  0  0  0  0  0  0  0
    9.2051    6.9101   23.4604 C   0  0  0  0  0  0  0  0  0  0  0  0
   11.9646    6.0299   21.4251 C   0  0  0  0  0  0  0  0  0  0  0  0
  1  5  1  0
  1 13  1  0
  2 20  2  0
  2 28  1  0
  2 29  1  0
  3 19  4  0
  3 25  4  0
  4 23  4  0
  4 27  1  0
  4 30  4  0
  5 17  1  0
  6  8  1  0
  6 29  1  0
  7 24  4  0
  7 26  4  0
  8 28  1  0
  9 13  2  0
 10 18  1  0
 10 21  4  0
 10 30  4  0
 11 17  2  0
 12 18  1  0
 13 15  1  0
 14 24  1  0
 15 25  1  0
 16 28  2  0
 17 20  1  0
 19 24  4  0
 20 23  1  0
 21 22  4  0
 22 23  4  0
 25 26  4  0
 27 29  2  0
M  END
$$$$

 Created by Python create_sdf_string function

 30 33  0  0  0  0  0  0  0  0999 V2000
    8.3036    9.8571   18.4133 C   0  0  0  0  0  0  0  0  0  0  0  0
    8.3694    7.6612   22.6703 C   0  0  0  0  0  0  0  0  0  0  0  0
    8.4143    6.6863   16.2273 C   0  0  0  0  0  0  0  0  0  0  0  0
   10.7581    6.5674   21.7636 C   0  0  0  0  0  0  0  0  0  0  0  0
    8.4452    8.7960   19.2958 O   0  0  0  0  0  0  0  0  0  0  0  0
    8.7122    6.7842   24.8569 C   0  0  0  0  0  0  0  0  0  0  0  0
   10.3400    6.1726   14.3081 C   0  0  0  0  0  0  0  0  0  0  0  0
    7.4297    7.5873   24.8962 C   0  0  0  0  0  0  0  0  0  0  0  0
    8.1566   10.0536   16.0516 O   0  0  0  0  0  0  0  0  0  0  0  0
   12.4989    6.2074   20.1776 C   0  0  0  0  0  0  0  0  0  0  0  0
    6.9192    9.1053   20.9073 O   0  0  0  0  0  0  0  0  0  0  0  0
   14.3979    6.0729   18.7784 C   0  0  0  0  0  0  0  0  0  0  0  0
    8.6811    9.5354   16.9998 C   0  0  0  0  0  0  0  0  0  0  0  0
    9.2512    4.2713   13.7653 O   0  0  0  0  0  0  0  0  0  0  0  0
    9.6495    8.6317   16.8332 N   0  0  0  0  0  0  0  0  0  0  0  0
    6.2934    8.6988   23.1988 O   0  0  0  0  0  0  0  0  0  0  0  0
    7.9806    8.6543   20.5437 C   0  0  0  0  0  0  0  0  0  0  0  0
   13.7270    5.7144   19.8610 O   0  0  0  0  0  0  0  0  0  0  0  0
    8.3351    5.5235   15.4478 C   0  0  0  0  0  0  0  0  0  0  0  0
    8.7700    7.8434   21.3915 C   0  0  0  0  0  0  0  0  0  0  0  0
   11.7856    6.8851   19.2401 C   0  0  0  0  0  0  0  0  0  0  0  0
   10.5281    7.4276   19.5649 C   0  0  0  0  0  0  0  0  0  0  0  0
   10.0256    7.2907   20.8484 C   0  0  0  0  0  0  0  0  0  0  0  0
    9.3113    5.3049   14.4911 C   0  0  0  0  0  0  0  0  0  0  0  0
    9.4607    7.5646   16.0139 C   0  0  0  0  0  0  0  0  0  0  0  0
   10.4192    7.3157   15.0955 C   0  0  0  0  0  0  0  0  0  0  0  0
   10.2489    6.4227   23.0218 N   0  0  0  0  0  0  0  0  0  0  0  0
    7.2472    8.0746   23.5050 C   0  0  0  0  0  0  0  0  0  0  0  0
    9.2051    6.9101   23.4604 C   0  0  0  0  0  0  0  0  0  0  0  0
   11.9646    6.0299   21.4251 C   0  0  0  0  0  0  0  0  0  0  0  0
  1  5  1  0
  1 13  1  0
  2 20  2  0
  2 28  1  0
  2 29  1  0
  3 19  4  0
  3 25  4  0
  4 23  4  0
  4 27  1  0
  4 30  4  0
  5 17  1  0
  6  8  1  0
  6 29  1  0
  7 24  4  0
  7 26  4  0
  8 28  1  0
  9 13  2  0
 10 18  1  0
 10 21  4  0
 10 30  4  0
 11 17  2  0
 12 18  1  0
 13 15  1  0
 14 24  1  0
 15 25  1  0
 16 28  2  0
 17 20  1  0
 19 24  4  0
 20 23  1  0
 21 22  4  0
 22 23  4  0
 25 26  4  0
 27 29  2  0
M  END
$$$$

 Created by Python create_sdf_string function

 30 33  0  0  0  0  0  0  0  0999 V2000
    8.3036    9.8571   18.4133 C   0  0  0  0  0  0  0  0  0  0  0  0
    8.3694    7.6612   22.6703 C   0  0  0  0  0  0  0  0  0  0  0  0
    8.4143    6.6863   16.2273 C   0  0  0  0  0  0  0  0  0  0  0  0
   10.7581    6.5674   21.7636 C   0  0  0  0  0  0  0  0  0  0  0  0
    8.4452    8.7960   19.2958 O   0  0  0  0  0  0  0  0  0  0  0  0
    8.7122    6.7842   24.8569 C   0  0  0  0  0  0  0  0  0  0  0  0
   10.3400    6.1726   14.3081 C   0  0  0  0  0  0  0  0  0  0  0  0
    7.4297    7.5873   24.8962 C   0  0  0  0  0  0  0  0  0  0  0  0
    8.1566   10.0536   16.0516 O   0  0  0  0  0  0  0  0  0  0  0  0
   12.4989    6.2074   20.1776 C   0  0  0  0  0  0  0  0  0  0  0  0
    6.9192    9.1053   20.9073 O   0  0  0  0  0  0  0  0  0  0  0  0
   14.3979    6.0729   18.7784 C   0  0  0  0  0  0  0  0  0  0  0  0
    8.6811    9.5354   16.9998 C   0  0  0  0  0  0  0  0  0  0  0  0
    9.2512    4.2713   13.7653 O   0  0  0  0  0  0  0  0  0  0  0  0
    9.6495    8.6317   16.8332 N   0  0  0  0  0  0  0  0  0  0  0  0
    6.2934    8.6988   23.1988 O   0  0  0  0  0  0  0  0  0  0  0  0
    7.9806    8.6543   20.5437 C   0  0  0  0  0  0  0  0  0  0  0  0
   13.7270    5.7144   19.8610 O   0  0  0  0  0  0  0  0  0  0  0  0
    8.3351    5.5235   15.4478 C   0  0  0  0  0  0  0  0  0  0  0  0
    8.7700    7.8434   21.3915 C   0  0  0  0  0  0  0  0  0  0  0  0
   11.7856    6.8851   19.2401 C   0  0  0  0  0  0  0  0  0  0  0  0
   10.5281    7.4276   19.5649 C   0  0  0  0  0  0  0  0  0  0  0  0
   10.0256    7.2907   20.8484 C   0  0  0  0  0  0  0  0  0  0  0  0
    9.3113    5.3049   14.4911 C   0  0  0  0  0  0  0  0  0  0  0  0
    9.4607    7.5646   16.0139 C   0  0  0  0  0  0  0  0  0  0  0  0
   10.4192    7.3157   15.0955 C   0  0  0  0  0  0  0  0  0  0  0  0
   10.2489    6.4227   23.0218 N   0  0  0  0  0  0  0  0  0  0  0  0
    7.2472    8.0746   23.5050 C   0  0  0  0  0  0  0  0  0  0  0  0
    9.2051    6.9101   23.4604 C   0  0  0  0  0  0  0  0  0  0  0  0
   11.9646    6.0299   21.4251 C   0  0  0  0  0  0  0  0  0  0  0  0
  1  5  1  0
  1 13  1  0
  2 20  2  0
  2 28  1  0
  2 29  1  0
  3 19  4  0
  3 25  4  0
  4 23  4  0
  4 27  1  0
  4 30  4  0
  5 17  1  0
  6  8  1  0
  6 29  1  0
  7 24  4  0
  7 26  4  0
  8 28  1  0
  9 13  2  0
 10 18  1  0
 10 21  4  0
 10 30  4  0
 11 17  2  0
 12 18  1  0
 13 15  1  0
 14 24  1  0
 15 25  1  0
 16 28  2  0
 17 20  1  0
 19 24  4  0
 20 23  1  0
 21 22  4  0
 22 23  4  0
 25 26  4  0
 27 29  2  0
M  END
$$$$

 Created by Python create_sdf_string function

 30 33  0  0  0  0  0  0  0  0999 V2000
    8.3036    9.8571   18.4133 C   0  0  0  0  0  0  0  0  0  0  0  0
    8.3694    7.6612   22.6703 C   0  0  0  0  0  0  0  0  0  0  0  0
    8.4143    6.6863   16.2273 C   0  0  0  0  0  0  0  0  0  0  0  0
   10.7581    6.5674   21.7636 C   0  0  0  0  0  0  0  0  0  0  0  0
    8.4452    8.7960   19.2958 O   0  0  0  0  0  0  0  0  0  0  0  0
    8.7122    6.7842   24.8569 C   0  0  0  0  0  0  0  0  0  0  0  0
   10.3400    6.1726   14.3081 C   0  0  0  0  0  0  0  0  0  0  0  0
    7.4297    7.5873   24.8962 C   0  0  0  0  0  0  0  0  0  0  0  0
    8.1566   10.0536   16.0516 O   0  0  0  0  0  0  0  0  0  0  0  0
   12.4989    6.2074   20.1776 C   0  0  0  0  0  0  0  0  0  0  0  0
    6.9192    9.1053   20.9073 O   0  0  0  0  0  0  0  0  0  0  0  0
   14.3979    6.0729   18.7784 C   0  0  0  0  0  0  0  0  0  0  0  0
    8.6811    9.5354   16.9998 C   0  0  0  0  0  0  0  0  0  0  0  0
    9.2512    4.2713   13.7653 O   0  0  0  0  0  0  0  0  0  0  0  0
    9.6495    8.6317   16.8332 N   0  0  0  0  0  0  0  0  0  0  0  0
    6.2934    8.6988   23.1988 O   0  0  0  0  0  0  0  0  0  0  0  0
    7.9806    8.6543   20.5437 C   0  0  0  0  0  0  0  0  0  0  0  0
   13.7270    5.7144   19.8610 O   0  0  0  0  0  0  0  0  0  0  0  0
    8.3351    5.5235   15.4478 C   0  0  0  0  0  0  0  0  0  0  0  0
    8.7700    7.8434   21.3915 C   0  0  0  0  0  0  0  0  0  0  0  0
   11.7856    6.8851   19.2401 C   0  0  0  0  0  0  0  0  0  0  0  0
   10.5281    7.4276   19.5649 C   0  0  0  0  0  0  0  0  0  0  0  0
   10.0256    7.2907   20.8484 C   0  0  0  0  0  0  0  0  0  0  0  0
    9.3113    5.3049   14.4911 C   0  0  0  0  0  0  0  0  0  0  0  0
    9.4607    7.5646   16.0139 C   0  0  0  0  0  0  0  0  0  0  0  0
   10.4192    7.3157   15.0955 C   0  0  0  0  0  0  0  0  0  0  0  0
   10.2489    6.4227   23.0218 N   0  0  0  0  0  0  0  0  0  0  0  0
    7.2472    8.0746   23.5050 C   0  0  0  0  0  0  0  0  0  0  0  0
    9.2051    6.9101   23.4604 C   0  0  0  0  0  0  0  0  0  0  0  0
   11.9646    6.0299   21.4251 C   0  0  0  0  0  0  0  0  0  0  0  0
  1  5  1  0
  1 13  1  0
  2 20  2  0
  2 28  1  0
  2 29  1  0
  3 19  4  0
  3 25  4  0
  4 23  4  0
  4 27  1  0
  4 30  4  0
  5 17  1  0
  6  8  1  0
  6 29  1  0
  7 24  4  0
  7 26  4  0
  8 28  1  0
  9 13  2  0
 10 18  1  0
 10 21  4  0
 10 30  4  0
 11 17  2  0
 12 18  1  0
 13 15  1  0
 14 24  1  0
 15 25  1  0
 16 28  2  0
 17 20  1  0
 19 24  4  0
 20 23  1  0
 21 22  4  0
 22 23  4  0
 25 26  4  0
 27 29  2  0
M  END
$$$$

 Created by Python create_sdf_string function

 30 33  0  0  0  0  0  0  0  0999 V2000
    8.3036    9.8571   18.4133 C   0  0  0  0  0  0  0  0  0  0  0  0
    8.3694    7.6612   22.6703 C   0  0  0  0  0  0  0  0  0  0  0  0
    8.4143    6.6863   16.2273 C   0  0  0  0  0  0  0  0  0  0  0  0
   10.7581    6.5674   21.7636 C   0  0  0  0  0  0  0  0  0  0  0  0
    8.4452    8.7960   19.2958 O   0  0  0  0  0  0  0  0  0  0  0  0
    8.7122    6.7842   24.8569 C   0  0  0  0  0  0  0  0  0  0  0  0
   10.3400    6.1726   14.3081 C   0  0  0  0  0  0  0  0  0  0  0  0
    7.4297    7.5873   24.8962 C   0  0  0  0  0  0  0  0  0  0  0  0
    8.1566   10.0536   16.0516 O   0  0  0  0  0  0  0  0  0  0  0  0
   12.4989    6.2074   20.1776 C   0  0  0  0  0  0  0  0  0  0  0  0
    6.9192    9.1053   20.9073 O   0  0  0  0  0  0  0  0  0  0  0  0
   14.3979    6.0729   18.7784 C   0  0  0  0  0  0  0  0  0  0  0  0
    8.6811    9.5354   16.9998 C   0  0  0  0  0  0  0  0  0  0  0  0
    9.2512    4.2713   13.7653 O   0  0  0  0  0  0  0  0  0  0  0  0
    9.6495    8.6317   16.8332 N   0  0  0  0  0  0  0  0  0  0  0  0
    6.2934    8.6988   23.1988 O   0  0  0  0  0  0  0  0  0  0  0  0
    7.9806    8.6543   20.5437 C   0  0  0  0  0  0  0  0  0  0  0  0
   13.7270    5.7144   19.8610 O   0  0  0  0  0  0  0  0  0  0  0  0
    8.3351    5.5235   15.4478 C   0  0  0  0  0  0  0  0  0  0  0  0
    8.7700    7.8434   21.3915 C   0  0  0  0  0  0  0  0  0  0  0  0
   11.7856    6.8851   19.2401 C   0  0  0  0  0  0  0  0  0  0  0  0
   10.5281    7.4276   19.5649 C   0  0  0  0  0  0  0  0  0  0  0  0
   10.0256    7.2907   20.8484 C   0  0  0  0  0  0  0  0  0  0  0  0
    9.3113    5.3049   14.4911 C   0  0  0  0  0  0  0  0  0  0  0  0
    9.4607    7.5646   16.0139 C   0  0  0  0  0  0  0  0  0  0  0  0
   10.4192    7.3157   15.0955 C   0  0  0  0  0  0  0  0  0  0  0  0
   10.2489    6.4227   23.0218 N   0  0  0  0  0  0  0  0  0  0  0  0
    7.2472    8.0746   23.5050 C   0  0  0  0  0  0  0  0  0  0  0  0
    9.2051    6.9101   23.4604 C   0  0  0  0  0  0  0  0  0  0  0  0
   11.9646    6.0299   21.4251 C   0  0  0  0  0  0  0  0  0  0  0  0
  1  5  1  0
  1 13  1  0
  2 20  2  0
  2 28  1  0
  2 29  1  0
  3 19  4  0
  3 25  4  0
  4 23  4  0
  4 27  1  0
  4 30  4  0
  5 17  1  0
  6  8  1  0
  6 29  1  0
  7 24  4  0
  7 26  4  0
  8 28  1  0
  9 13  2  0
 10 18  1  0
 10 21  4  0
 10 30  4  0
 11 17  2  0
 12 18  1  0
 13 15  1  0
 14 24  1  0
 15 25  1  0
 16 28  2  0
 17 20  1  0
 19 24  4  0
 20 23  1  0
 21 22  4  0
 22 23  4  0
 25 26  4  0
 27 29  2  0
M  END
$$$$

 Created by Python create_sdf_string function

 30 33  0  0  0  0  0  0  0  0999 V2000
    8.3036    9.8571   18.4133 C   0  0  0  0  0  0  0  0  0  0  0  0
    8.3694    7.6612   22.6703 C   0  0  0  0  0  0  0  0  0  0  0  0
    8.4143    6.6863   16.2273 C   0  0  0  0  0  0  0  0  0  0  0  0
   10.7581    6.5674   21.7636 C   0  0  0  0  0  0  0  0  0  0  0  0
    8.4452    8.7960   19.2958 O   0  0  0  0  0  0  0  0  0  0  0  0
    8.7122    6.7842   24.8569 C   0  0  0  0  0  0  0  0  0  0  0  0
   10.3400    6.1726   14.3081 C   0  0  0  0  0  0  0  0  0  0  0  0
    7.4297    7.5873   24.8962 C   0  0  0  0  0  0  0  0  0  0  0  0
    8.1566   10.0536   16.0516 O   0  0  0  0  0  0  0  0  0  0  0  0
   12.4989    6.2074   20.1776 C   0  0  0  0  0  0  0  0  0  0  0  0
    6.9192    9.1053   20.9073 O   0  0  0  0  0  0  0  0  0  0  0  0
   14.3979    6.0729   18.7784 C   0  0  0  0  0  0  0  0  0  0  0  0
    8.6811    9.5354   16.9998 C   0  0  0  0  0  0  0  0  0  0  0  0
    9.2512    4.2713   13.7653 O   0  0  0  0  0  0  0  0  0  0  0  0
    9.6495    8.6317   16.8332 N   0  0  0  0  0  0  0  0  0  0  0  0
    6.2934    8.6988   23.1988 O   0  0  0  0  0  0  0  0  0  0  0  0
    7.9806    8.6543   20.5437 C   0  0  0  0  0  0  0  0  0  0  0  0
   13.7270    5.7144   19.8610 O   0  0  0  0  0  0  0  0  0  0  0  0
    8.3351    5.5235   15.4478 C   0  0  0  0  0  0  0  0  0  0  0  0
    8.7700    7.8434   21.3915 C   0  0  0  0  0  0  0  0  0  0  0  0
   11.7856    6.8851   19.2401 C   0  0  0  0  0  0  0  0  0  0  0  0
   10.5281    7.4276   19.5649 C   0  0  0  0  0  0  0  0  0  0  0  0
   10.0256    7.2907   20.8484 C   0  0  0  0  0  0  0  0  0  0  0  0
    9.3113    5.3049   14.4911 C   0  0  0  0  0  0  0  0  0  0  0  0
    9.4607    7.5646   16.0139 C   0  0  0  0  0  0  0  0  0  0  0  0
   10.4192    7.3157   15.0955 C   0  0  0  0  0  0  0  0  0  0  0  0
   10.2489    6.4227   23.0218 N   0  0  0  0  0  0  0  0  0  0  0  0
    7.2472    8.0746   23.5050 C   0  0  0  0  0  0  0  0  0  0  0  0
    9.2051    6.9101   23.4604 C   0  0  0  0  0  0  0  0  0  0  0  0
   11.9646    6.0299   21.4251 C   0  0  0  0  0  0  0  0  0  0  0  0
  1  5  1  0
  1 13  1  0
  2 20  2  0
  2 28  1  0
  2 29  1  0
  3 19  4  0
  3 25  4  0
  4 23  4  0
  4 27  1  0
  4 30  4  0
  5 17  1  0
  6  8  1  0
  6 29  1  0
  7 24  4  0
  7 26  4  0
  8 28  1  0
  9 13  2  0
 10 18  1  0
 10 21  4  0
 10 30  4  0
 11 17  2  0
 12 18  1  0
 13 15  1  0
 14 24  1  0
 15 25  1  0
 16 28  2  0
 17 20  1  0
 19 24  4  0
 20 23  1  0
 21 22  4  0
 22 23  4  0
 25 26  4  0
 27 29  2  0
M  END
$$$$

 Created by Python create_sdf_string function

 30 33  0  0  0  0  0  0  0  0999 V2000
    8.3036    9.8571   18.4133 C   0  0  0  0  0  0  0  0  0  0  0  0
    8.3694    7.6612   22.6703 C   0  0  0  0  0  0  0  0  0  0  0  0
    8.4143    6.6863   16.2273 C   0  0  0  0  0  0  0  0  0  0  0  0
   10.7581    6.5674   21.7636 C   0  0  0  0  0  0  0  0  0  0  0  0
    8.4452    8.7960   19.2958 O   0  0  0  0  0  0  0  0  0  0  0  0
    8.7122    6.7842   24.8569 C   0  0  0  0  0  0  0  0  0  0  0  0
   10.3400    6.1726   14.3081 C   0  0  0  0  0  0  0  0  0  0  0  0
    7.4297    7.5873   24.8962 C   0  0  0  0  0  0  0  0  0  0  0  0
    8.1566   10.0536   16.0516 O   0  0  0  0  0  0  0  0  0  0  0  0
   12.4989    6.2074   20.1776 C   0  0  0  0  0  0  0  0  0  0  0  0
    6.9192    9.1053   20.9073 O   0  0  0  0  0  0  0  0  0  0  0  0
   14.3979    6.0729   18.7784 C   0  0  0  0  0  0  0  0  0  0  0  0
    8.6811    9.5354   16.9998 C   0  0  0  0  0  0  0  0  0  0  0  0
    9.2512    4.2713   13.7653 O   0  0  0  0  0  0  0  0  0  0  0  0
    9.6495    8.6317   16.8332 N   0  0  0  0  0  0  0  0  0  0  0  0
    6.2934    8.6988   23.1988 O   0  0  0  0  0  0  0  0  0  0  0  0
    7.9806    8.6543   20.5437 C   0  0  0  0  0  0  0  0  0  0  0  0
   13.7270    5.7144   19.8610 O   0  0  0  0  0  0  0  0  0  0  0  0
    8.3351    5.5235   15.4478 C   0  0  0  0  0  0  0  0  0  0  0  0
    8.7700    7.8434   21.3915 C   0  0  0  0  0  0  0  0  0  0  0  0
   11.7856    6.8851   19.2401 C   0  0  0  0  0  0  0  0  0  0  0  0
   10.5281    7.4276   19.5649 C   0  0  0  0  0  0  0  0  0  0  0  0
   10.0256    7.2907   20.8484 C   0  0  0  0  0  0  0  0  0  0  0  0
    9.3113    5.3049   14.4911 C   0  0  0  0  0  0  0  0  0  0  0  0
    9.4607    7.5646   16.0139 C   0  0  0  0  0  0  0  0  0  0  0  0
   10.4192    7.3157   15.0955 C   0  0  0  0  0  0  0  0  0  0  0  0
   10.2489    6.4227   23.0218 N   0  0  0  0  0  0  0  0  0  0  0  0
    7.2472    8.0746   23.5050 C   0  0  0  0  0  0  0  0  0  0  0  0
    9.2051    6.9101   23.4604 C   0  0  0  0  0  0  0  0  0  0  0  0
   11.9646    6.0299   21.4251 C   0  0  0  0  0  0  0  0  0  0  0  0
  1  5  1  0
  1 13  1  0
  2 20  2  0
  2 28  1  0
  2 29  1  0
  3 19  4  0
  3 25  4  0
  4 23  4  0
  4 27  1  0
  4 30  4  0
  5 17  1  0
  6  8  1  0
  6 29  1  0
  7 24  4  0
  7 26  4  0
  8 28  1  0
  9 13  2  0
 10 18  1  0
 10 21  4  0
 10 30  4  0
 11 17  2  0
 12 18  1  0
 13 15  1  0
 14 24  1  0
 15 25  1  0
 16 28  2  0
 17 20  1  0
 19 24  4  0
 20 23  1  0
 21 22  4  0
 22 23  4  0
 25 26  4  0
 27 29  2  0
M  END
$$$$

 Created by Python create_sdf_string function

 30 33  0  0  0  0  0  0  0  0999 V2000
    8.3036    9.8571   18.4133 C   0  0  0  0  0  0  0  0  0  0  0  0
    8.3694    7.6612   22.6703 C   0  0  0  0  0  0  0  0  0  0  0  0
    8.4143    6.6863   16.2273 C   0  0  0  0  0  0  0  0  0  0  0  0
   10.7581    6.5674   21.7636 C   0  0  0  0  0  0  0  0  0  0  0  0
    8.4452    8.7960   19.2958 O   0  0  0  0  0  0  0  0  0  0  0  0
    8.7122    6.7842   24.8569 C   0  0  0  0  0  0  0  0  0  0  0  0
   10.3400    6.1726   14.3081 C   0  0  0  0  0  0  0  0  0  0  0  0
    7.4297    7.5873   24.8962 C   0  0  0  0  0  0  0  0  0  0  0  0
    8.1566   10.0536   16.0516 O   0  0  0  0  0  0  0  0  0  0  0  0
   12.4989    6.2074   20.1776 C   0  0  0  0  0  0  0  0  0  0  0  0
    6.9192    9.1053   20.9073 O   0  0  0  0  0  0  0  0  0  0  0  0
   14.3979    6.0729   18.7784 C   0  0  0  0  0  0  0  0  0  0  0  0
    8.6811    9.5354   16.9998 C   0  0  0  0  0  0  0  0  0  0  0  0
    9.2512    4.2713   13.7653 O   0  0  0  0  0  0  0  0  0  0  0  0
    9.6495    8.6317   16.8332 N   0  0  0  0  0  0  0  0  0  0  0  0
    6.2934    8.6988   23.1988 O   0  0  0  0  0  0  0  0  0  0  0  0
    7.9806    8.6543   20.5437 C   0  0  0  0  0  0  0  0  0  0  0  0
   13.7270    5.7144   19.8610 O   0  0  0  0  0  0  0  0  0  0  0  0
    8.3351    5.5235   15.4478 C   0  0  0  0  0  0  0  0  0  0  0  0
    8.7700    7.8434   21.3915 C   0  0  0  0  0  0  0  0  0  0  0  0
   11.7856    6.8851   19.2401 C   0  0  0  0  0  0  0  0  0  0  0  0
   10.5281    7.4276   19.5649 C   0  0  0  0  0  0  0  0  0  0  0  0
   10.0256    7.2907   20.8484 C   0  0  0  0  0  0  0  0  0  0  0  0
    9.3113    5.3049   14.4911 C   0  0  0  0  0  0  0  0  0  0  0  0
    9.4607    7.5646   16.0139 C   0  0  0  0  0  0  0  0  0  0  0  0
   10.4192    7.3157   15.0955 C   0  0  0  0  0  0  0  0  0  0  0  0
   10.2489    6.4227   23.0218 N   0  0  0  0  0  0  0  0  0  0  0  0
    7.2472    8.0746   23.5050 C   0  0  0  0  0  0  0  0  0  0  0  0
    9.2051    6.9101   23.4604 C   0  0  0  0  0  0  0  0  0  0  0  0
   11.9646    6.0299   21.4251 C   0  0  0  0  0  0  0  0  0  0  0  0
  1  5  1  0
  1 13  1  0
  2 20  2  0
  2 28  1  0
  2 29  1  0
  3 19  4  0
  3 25  4  0
  4 23  4  0
  4 27  1  0
  4 30  4  0
  5 17  1  0
  6  8  1  0
  6 29  1  0
  7 24  4  0
  7 26  4  0
  8 28  1  0
  9 13  2  0
 10 18  1  0
 10 21  4  0
 10 30  4  0
 11 17  2  0
 12 18  1  0
 13 15  1  0
 14 24  1  0
 15 25  1  0
 16 28  2  0
 17 20  1  0
 19 24  4  0
 20 23  1  0
 21 22  4  0
 22 23  4  0
 25 26  4  0
 27 29  2  0
M  END
$$$$

 Created by Python create_sdf_string function

 30 33  0  0  0  0  0  0  0  0999 V2000
    8.3036    9.8571   18.4133 C   0  0  0  0  0  0  0  0  0  0  0  0
    8.3694    7.6612   22.6703 C   0  0  0  0  0  0  0  0  0  0  0  0
    8.4143    6.6863   16.2273 C   0  0  0  0  0  0  0  0  0  0  0  0
   10.7581    6.5674   21.7636 C   0  0  0  0  0  0  0  0  0  0  0  0
    8.4452    8.7960   19.2958 O   0  0  0  0  0  0  0  0  0  0  0  0
    8.7122    6.7842   24.8569 C   0  0  0  0  0  0  0  0  0  0  0  0
   10.3400    6.1726   14.3081 C   0  0  0  0  0  0  0  0  0  0  0  0
    7.4297    7.5873   24.8962 C   0  0  0  0  0  0  0  0  0  0  0  0
    8.1566   10.0536   16.0516 O   0  0  0  0  0  0  0  0  0  0  0  0
   12.4989    6.2074   20.1776 C   0  0  0  0  0  0  0  0  0  0  0  0
    6.9192    9.1053   20.9073 O   0  0  0  0  0  0  0  0  0  0  0  0
   14.3979    6.0729   18.7784 C   0  0  0  0  0  0  0  0  0  0  0  0
    8.6811    9.5354   16.9998 C   0  0  0  0  0  0  0  0  0  0  0  0
    9.2512    4.2713   13.7653 O   0  0  0  0  0  0  0  0  0  0  0  0
    9.6495    8.6317   16.8332 N   0  0  0  0  0  0  0  0  0  0  0  0
    6.2934    8.6988   23.1988 O   0  0  0  0  0  0  0  0  0  0  0  0
    7.9806    8.6543   20.5437 C   0  0  0  0  0  0  0  0  0  0  0  0
   13.7270    5.7144   19.8610 O   0  0  0  0  0  0  0  0  0  0  0  0
    8.3351    5.5235   15.4478 C   0  0  0  0  0  0  0  0  0  0  0  0
    8.7700    7.8434   21.3915 C   0  0  0  0  0  0  0  0  0  0  0  0
   11.7856    6.8851   19.2401 C   0  0  0  0  0  0  0  0  0  0  0  0
   10.5281    7.4276   19.5649 C   0  0  0  0  0  0  0  0  0  0  0  0
   10.0256    7.2907   20.8484 C   0  0  0  0  0  0  0  0  0  0  0  0
    9.3113    5.3049   14.4911 C   0  0  0  0  0  0  0  0  0  0  0  0
    9.4607    7.5646   16.0139 C   0  0  0  0  0  0  0  0  0  0  0  0
   10.4192    7.3157   15.0955 C   0  0  0  0  0  0  0  0  0  0  0  0
   10.2489    6.4227   23.0218 N   0  0  0  0  0  0  0  0  0  0  0  0
    7.2472    8.0746   23.5050 C   0  0  0  0  0  0  0  0  0  0  0  0
    9.2051    6.9101   23.4604 C   0  0  0  0  0  0  0  0  0  0  0  0
   11.9646    6.0299   21.4251 C   0  0  0  0  0  0  0  0  0  0  0  0
  1  5  1  0
  1 13  1  0
  2 20  2  0
  2 28  1  0
  2 29  1  0
  3 19  4  0
  3 25  4  0
  4 23  4  0
  4 27  1  0
  4 30  4  0
  5 17  1  0
  6  8  1  0
  6 29  1  0
  7 24  4  0
  7 26  4  0
  8 28  1  0
  9 13  2  0
 10 18  1  0
 10 21  4  0
 10 30  4  0
 11 17  2  0
 12 18  1  0
 13 15  1  0
 14 24  1  0
 15 25  1  0
 16 28  2  0
 17 20  1  0
 19 24  4  0
 20 23  1  0
 21 22  4  0
 22 23  4  0
 25 26  4  0
 27 29  2  0
M  END
$$$$

 Created by Python create_sdf_string function

 30 33  0  0  0  0  0  0  0  0999 V2000
    8.3036    9.8571   18.4133 C   0  0  0  0  0  0  0  0  0  0  0  0
    8.3694    7.6612   22.6703 C   0  0  0  0  0  0  0  0  0  0  0  0
    8.4143    6.6863   16.2273 C   0  0  0  0  0  0  0  0  0  0  0  0
   10.7581    6.5674   21.7636 C   0  0  0  0  0  0  0  0  0  0  0  0
    8.4452    8.7960   19.2958 O   0  0  0  0  0  0  0  0  0  0  0  0
    8.7122    6.7842   24.8569 C   0  0  0  0  0  0  0  0  0  0  0  0
   10.3400    6.1726   14.3081 C   0  0  0  0  0  0  0  0  0  0  0  0
    7.4297    7.5873   24.8962 C   0  0  0  0  0  0  0  0  0  0  0  0
    8.1566   10.0536   16.0516 O   0  0  0  0  0  0  0  0  0  0  0  0
   12.4989    6.2074   20.1776 C   0  0  0  0  0  0  0  0  0  0  0  0
    6.9192    9.1053   20.9073 O   0  0  0  0  0  0  0  0  0  0  0  0
   14.3979    6.0729   18.7784 C   0  0  0  0  0  0  0  0  0  0  0  0
    8.6811    9.5354   16.9998 C   0  0  0  0  0  0  0  0  0  0  0  0
    9.2512    4.2713   13.7653 O   0  0  0  0  0  0  0  0  0  0  0  0
    9.6495    8.6317   16.8332 N   0  0  0  0  0  0  0  0  0  0  0  0
    6.2934    8.6988   23.1988 O   0  0  0  0  0  0  0  0  0  0  0  0
    7.9806    8.6543   20.5437 C   0  0  0  0  0  0  0  0  0  0  0  0
   13.7270    5.7144   19.8610 O   0  0  0  0  0  0  0  0  0  0  0  0
    8.3351    5.5235   15.4478 C   0  0  0  0  0  0  0  0  0  0  0  0
    8.7700    7.8434   21.3915 C   0  0  0  0  0  0  0  0  0  0  0  0
   11.7856    6.8851   19.2401 C   0  0  0  0  0  0  0  0  0  0  0  0
   10.5281    7.4276   19.5649 C   0  0  0  0  0  0  0  0  0  0  0  0
   10.0256    7.2907   20.8484 C   0  0  0  0  0  0  0  0  0  0  0  0
    9.3113    5.3049   14.4911 C   0  0  0  0  0  0  0  0  0  0  0  0
    9.4607    7.5646   16.0139 C   0  0  0  0  0  0  0  0  0  0  0  0
   10.4192    7.3157   15.0955 C   0  0  0  0  0  0  0  0  0  0  0  0
   10.2489    6.4227   23.0218 N   0  0  0  0  0  0  0  0  0  0  0  0
    7.2472    8.0746   23.5050 C   0  0  0  0  0  0  0  0  0  0  0  0
    9.2051    6.9101   23.4604 C   0  0  0  0  0  0  0  0  0  0  0  0
   11.9646    6.0299   21.4251 C   0  0  0  0  0  0  0  0  0  0  0  0
  1  5  1  0
  1 13  1  0
  2 20  2  0
  2 28  1  0
  2 29  1  0
  3 19  4  0
  3 25  4  0
  4 23  4  0
  4 27  1  0
  4 30  4  0
  5 17  1  0
  6  8  1  0
  6 29  1  0
  7 24  4  0
  7 26  4  0
  8 28  1  0
  9 13  2  0
 10 18  1  0
 10 21  4  0
 10 30  4  0
 11 17  2  0
 12 18  1  0
 13 15  1  0
 14 24  1  0
 15 25  1  0
 16 28  2  0
 17 20  1  0
 19 24  4  0
 20 23  1  0
 21 22  4  0
 22 23  4  0
 25 26  4  0
 27 29  2  0
M  END
$$$$

 Created by Python create_sdf_string function

 30 33  0  0  0  0  0  0  0  0999 V2000
    8.3036    9.8571   18.4133 C   0  0  0  0  0  0  0  0  0  0  0  0
    8.3694    7.6612   22.6703 C   0  0  0  0  0  0  0  0  0  0  0  0
    8.4143    6.6863   16.2273 C   0  0  0  0  0  0  0  0  0  0  0  0
   10.7581    6.5674   21.7636 C   0  0  0  0  0  0  0  0  0  0  0  0
    8.4452    8.7960   19.2958 O   0  0  0  0  0  0  0  0  0  0  0  0
    8.7122    6.7842   24.8569 C   0  0  0  0  0  0  0  0  0  0  0  0
   10.3400    6.1726   14.3081 C   0  0  0  0  0  0  0  0  0  0  0  0
    7.4297    7.5873   24.8962 C   0  0  0  0  0  0  0  0  0  0  0  0
    8.1566   10.0536   16.0516 O   0  0  0  0  0  0  0  0  0  0  0  0
   12.4989    6.2074   20.1776 C   0  0  0  0  0  0  0  0  0  0  0  0
    6.9192    9.1053   20.9073 O   0  0  0  0  0  0  0  0  0  0  0  0
   14.3979    6.0729   18.7784 C   0  0  0  0  0  0  0  0  0  0  0  0
    8.6811    9.5354   16.9998 C   0  0  0  0  0  0  0  0  0  0  0  0
    9.2512    4.2713   13.7653 O   0  0  0  0  0  0  0  0  0  0  0  0
    9.6495    8.6317   16.8332 N   0  0  0  0  0  0  0  0  0  0  0  0
    6.2934    8.6988   23.1988 O   0  0  0  0  0  0  0  0  0  0  0  0
    7.9806    8.6543   20.5437 C   0  0  0  0  0  0  0  0  0  0  0  0
   13.7270    5.7144   19.8610 O   0  0  0  0  0  0  0  0  0  0  0  0
    8.3351    5.5235   15.4478 C   0  0  0  0  0  0  0  0  0  0  0  0
    8.7700    7.8434   21.3915 C   0  0  0  0  0  0  0  0  0  0  0  0
   11.7856    6.8851   19.2401 C   0  0  0  0  0  0  0  0  0  0  0  0
   10.5281    7.4276   19.5649 C   0  0  0  0  0  0  0  0  0  0  0  0
   10.0256    7.2907   20.8484 C   0  0  0  0  0  0  0  0  0  0  0  0
    9.3113    5.3049   14.4911 C   0  0  0  0  0  0  0  0  0  0  0  0
    9.4607    7.5646   16.0139 C   0  0  0  0  0  0  0  0  0  0  0  0
   10.4192    7.3157   15.0955 C   0  0  0  0  0  0  0  0  0  0  0  0
   10.2489    6.4227   23.0218 N   0  0  0  0  0  0  0  0  0  0  0  0
    7.2472    8.0746   23.5050 C   0  0  0  0  0  0  0  0  0  0  0  0
    9.2051    6.9101   23.4604 C   0  0  0  0  0  0  0  0  0  0  0  0
   11.9646    6.0299   21.4251 C   0  0  0  0  0  0  0  0  0  0  0  0
  1  5  1  0
  1 13  1  0
  2 20  2  0
  2 28  1  0
  2 29  1  0
  3 19  4  0
  3 25  4  0
  4 23  4  0
  4 27  1  0
  4 30  4  0
  5 17  1  0
  6  8  1  0
  6 29  1  0
  7 24  4  0
  7 26  4  0
  8 28  1  0
  9 13  2  0
 10 18  1  0
 10 21  4  0
 10 30  4  0
 11 17  2  0
 12 18  1  0
 13 15  1  0
 14 24  1  0
 15 25  1  0
 16 28  2  0
 17 20  1  0
 19 24  4  0
 20 23  1  0
 21 22  4  0
 22 23  4  0
 25 26  4  0
 27 29  2  0
M  END
$$$$

 Created by Python create_sdf_string function

 30 33  0  0  0  0  0  0  0  0999 V2000
    8.3036    9.8571   18.4133 C   0  0  0  0  0  0  0  0  0  0  0  0
    8.3694    7.6612   22.6703 C   0  0  0  0  0  0  0  0  0  0  0  0
    8.4143    6.6863   16.2273 C   0  0  0  0  0  0  0  0  0  0  0  0
   10.7581    6.5674   21.7636 C   0  0  0  0  0  0  0  0  0  0  0  0
    8.4452    8.7960   19.2958 O   0  0  0  0  0  0  0  0  0  0  0  0
    8.7122    6.7842   24.8569 C   0  0  0  0  0  0  0  0  0  0  0  0
   10.3400    6.1726   14.3081 C   0  0  0  0  0  0  0  0  0  0  0  0
    7.4297    7.5873   24.8962 C   0  0  0  0  0  0  0  0  0  0  0  0
    8.1566   10.0536   16.0516 O   0  0  0  0  0  0  0  0  0  0  0  0
   12.4989    6.2074   20.1776 C   0  0  0  0  0  0  0  0  0  0  0  0
    6.9192    9.1053   20.9073 O   0  0  0  0  0  0  0  0  0  0  0  0
   14.3979    6.0729   18.7784 C   0  0  0  0  0  0  0  0  0  0  0  0
    8.6811    9.5354   16.9998 C   0  0  0  0  0  0  0  0  0  0  0  0
    9.2512    4.2713   13.7653 O   0  0  0  0  0  0  0  0  0  0  0  0
    9.6495    8.6317   16.8332 N   0  0  0  0  0  0  0  0  0  0  0  0
    6.2934    8.6988   23.1988 O   0  0  0  0  0  0  0  0  0  0  0  0
    7.9806    8.6543   20.5437 C   0  0  0  0  0  0  0  0  0  0  0  0
   13.7270    5.7144   19.8610 O   0  0  0  0  0  0  0  0  0  0  0  0
    8.3351    5.5235   15.4478 C   0  0  0  0  0  0  0  0  0  0  0  0
    8.7700    7.8434   21.3915 C   0  0  0  0  0  0  0  0  0  0  0  0
   11.7856    6.8851   19.2401 C   0  0  0  0  0  0  0  0  0  0  0  0
   10.5281    7.4276   19.5649 C   0  0  0  0  0  0  0  0  0  0  0  0
   10.0256    7.2907   20.8484 C   0  0  0  0  0  0  0  0  0  0  0  0
    9.3113    5.3049   14.4911 C   0  0  0  0  0  0  0  0  0  0  0  0
    9.4607    7.5646   16.0139 C   0  0  0  0  0  0  0  0  0  0  0  0
   10.4192    7.3157   15.0955 C   0  0  0  0  0  0  0  0  0  0  0  0
   10.2489    6.4227   23.0218 N   0  0  0  0  0  0  0  0  0  0  0  0
    7.2472    8.0746   23.5050 C   0  0  0  0  0  0  0  0  0  0  0  0
    9.2051    6.9101   23.4604 C   0  0  0  0  0  0  0  0  0  0  0  0
   11.9646    6.0299   21.4251 C   0  0  0  0  0  0  0  0  0  0  0  0
  1  5  1  0
  1 13  1  0
  2 20  2  0
  2 28  1  0
  2 29  1  0
  3 19  4  0
  3 25  4  0
  4 23  4  0
  4 27  1  0
  4 30  4  0
  5 17  1  0
  6  8  1  0
  6 29  1  0
  7 24  4  0
  7 26  4  0
  8 28  1  0
  9 13  2  0
 10 18  1  0
 10 21  4  0
 10 30  4  0
 11 17  2  0
 12 18  1  0
 13 15  1  0
 14 24  1  0
 15 25  1  0
 16 28  2  0
 17 20  1  0
 19 24  4  0
 20 23  1  0
 21 22  4  0
 22 23  4  0
 25 26  4  0
 27 29  2  0
M  END
$$$$

 Created by Python create_sdf_string function

 30 33  0  0  0  0  0  0  0  0999 V2000
    8.3036    9.8571   18.4133 C   0  0  0  0  0  0  0  0  0  0  0  0
    8.3694    7.6612   22.6703 C   0  0  0  0  0  0  0  0  0  0  0  0
    8.4143    6.6863   16.2273 C   0  0  0  0  0  0  0  0  0  0  0  0
   10.7581    6.5674   21.7636 C   0  0  0  0  0  0  0  0  0  0  0  0
    8.4452    8.7960   19.2958 O   0  0  0  0  0  0  0  0  0  0  0  0
    8.7122    6.7842   24.8569 C   0  0  0  0  0  0  0  0  0  0  0  0
   10.3400    6.1726   14.3081 C   0  0  0  0  0  0  0  0  0  0  0  0
    7.4297    7.5873   24.8962 C   0  0  0  0  0  0  0  0  0  0  0  0
    8.1566   10.0536   16.0516 O   0  0  0  0  0  0  0  0  0  0  0  0
   12.4989    6.2074   20.1776 C   0  0  0  0  0  0  0  0  0  0  0  0
    6.9192    9.1053   20.9073 O   0  0  0  0  0  0  0  0  0  0  0  0
   14.3979    6.0729   18.7784 C   0  0  0  0  0  0  0  0  0  0  0  0
    8.6811    9.5354   16.9998 C   0  0  0  0  0  0  0  0  0  0  0  0
    9.2512    4.2713   13.7653 O   0  0  0  0  0  0  0  0  0  0  0  0
    9.6495    8.6317   16.8332 N   0  0  0  0  0  0  0  0  0  0  0  0
    6.2934    8.6988   23.1988 O   0  0  0  0  0  0  0  0  0  0  0  0
    7.9806    8.6543   20.5437 C   0  0  0  0  0  0  0  0  0  0  0  0
   13.7270    5.7144   19.8610 O   0  0  0  0  0  0  0  0  0  0  0  0
    8.3351    5.5235   15.4478 C   0  0  0  0  0  0  0  0  0  0  0  0
    8.7700    7.8434   21.3915 C   0  0  0  0  0  0  0  0  0  0  0  0
   11.7856    6.8851   19.2401 C   0  0  0  0  0  0  0  0  0  0  0  0
   10.5281    7.4276   19.5649 C   0  0  0  0  0  0  0  0  0  0  0  0
   10.0256    7.2907   20.8484 C   0  0  0  0  0  0  0  0  0  0  0  0
    9.3113    5.3049   14.4911 C   0  0  0  0  0  0  0  0  0  0  0  0
    9.4607    7.5646   16.0139 C   0  0  0  0  0  0  0  0  0  0  0  0
   10.4192    7.3157   15.0955 C   0  0  0  0  0  0  0  0  0  0  0  0
   10.2489    6.4227   23.0218 N   0  0  0  0  0  0  0  0  0  0  0  0
    7.2472    8.0746   23.5050 C   0  0  0  0  0  0  0  0  0  0  0  0
    9.2051    6.9101   23.4604 C   0  0  0  0  0  0  0  0  0  0  0  0
   11.9646    6.0299   21.4251 C   0  0  0  0  0  0  0  0  0  0  0  0
  1  5  1  0
  1 13  1  0
  2 20  2  0
  2 28  1  0
  2 29  1  0
  3 19  4  0
  3 25  4  0
  4 23  4  0
  4 27  1  0
  4 30  4  0
  5 17  1  0
  6  8  1  0
  6 29  1  0
  7 24  4  0
  7 26  4  0
  8 28  1  0
  9 13  2  0
 10 18  1  0
 10 21  4  0
 10 30  4  0
 11 17  2  0
 12 18  1  0
 13 15  1  0
 14 24  1  0
 15 25  1  0
 16 28  2  0
 17 20  1  0
 19 24  4  0
 20 23  1  0
 21 22  4  0
 22 23  4  0
 25 26  4  0
 27 29  2  0
M  END
$$$$

 Created by Python create_sdf_string function

 30 33  0  0  0  0  0  0  0  0999 V2000
    8.3036    9.8571   18.4133 C   0  0  0  0  0  0  0  0  0  0  0  0
    8.3694    7.6612   22.6703 C   0  0  0  0  0  0  0  0  0  0  0  0
    8.4143    6.6863   16.2273 C   0  0  0  0  0  0  0  0  0  0  0  0
   10.7581    6.5674   21.7636 C   0  0  0  0  0  0  0  0  0  0  0  0
    8.4452    8.7960   19.2958 O   0  0  0  0  0  0  0  0  0  0  0  0
    8.7122    6.7842   24.8569 C   0  0  0  0  0  0  0  0  0  0  0  0
   10.3400    6.1726   14.3081 C   0  0  0  0  0  0  0  0  0  0  0  0
    7.4297    7.5873   24.8962 C   0  0  0  0  0  0  0  0  0  0  0  0
    8.1566   10.0536   16.0516 O   0  0  0  0  0  0  0  0  0  0  0  0
   12.4989    6.2074   20.1776 C   0  0  0  0  0  0  0  0  0  0  0  0
    6.9192    9.1053   20.9073 O   0  0  0  0  0  0  0  0  0  0  0  0
   14.3979    6.0729   18.7784 C   0  0  0  0  0  0  0  0  0  0  0  0
    8.6811    9.5354   16.9998 C   0  0  0  0  0  0  0  0  0  0  0  0
    9.2512    4.2713   13.7653 O   0  0  0  0  0  0  0  0  0  0  0  0
    9.6495    8.6317   16.8332 N   0  0  0  0  0  0  0  0  0  0  0  0
    6.2934    8.6988   23.1988 O   0  0  0  0  0  0  0  0  0  0  0  0
    7.9806    8.6543   20.5437 C   0  0  0  0  0  0  0  0  0  0  0  0
   13.7270    5.7144   19.8610 O   0  0  0  0  0  0  0  0  0  0  0  0
    8.3351    5.5235   15.4478 C   0  0  0  0  0  0  0  0  0  0  0  0
    8.7700    7.8434   21.3915 C   0  0  0  0  0  0  0  0  0  0  0  0
   11.7856    6.8851   19.2401 C   0  0  0  0  0  0  0  0  0  0  0  0
   10.5281    7.4276   19.5649 C   0  0  0  0  0  0  0  0  0  0  0  0
   10.0256    7.2907   20.8484 C   0  0  0  0  0  0  0  0  0  0  0  0
    9.3113    5.3049   14.4911 C   0  0  0  0  0  0  0  0  0  0  0  0
    9.4607    7.5646   16.0139 C   0  0  0  0  0  0  0  0  0  0  0  0
   10.4192    7.3157   15.0955 C   0  0  0  0  0  0  0  0  0  0  0  0
   10.2489    6.4227   23.0218 N   0  0  0  0  0  0  0  0  0  0  0  0
    7.2472    8.0746   23.5050 C   0  0  0  0  0  0  0  0  0  0  0  0
    9.2051    6.9101   23.4604 C   0  0  0  0  0  0  0  0  0  0  0  0
   11.9646    6.0299   21.4251 C   0  0  0  0  0  0  0  0  0  0  0  0
  1  5  1  0
  1 13  1  0
  2 20  2  0
  2 28  1  0
  2 29  1  0
  3 19  4  0
  3 25  4  0
  4 23  4  0
  4 27  1  0
  4 30  4  0
  5 17  1  0
  6  8  1  0
  6 29  1  0
  7 24  4  0
  7 26  4  0
  8 28  1  0
  9 13  2  0
 10 18  1  0
 10 21  4  0
 10 30  4  0
 11 17  2  0
 12 18  1  0
 13 15  1  0
 14 24  1  0
 15 25  1  0
 16 28  2  0
 17 20  1  0
 19 24  4  0
 20 23  1  0
 21 22  4  0
 22 23  4  0
 25 26  4  0
 27 29  2  0
M  END
$$$$

 Created by Python create_sdf_string function

 30 33  0  0  0  0  0  0  0  0999 V2000
    8.3036    9.8571   18.4133 C   0  0  0  0  0  0  0  0  0  0  0  0
    8.3694    7.6612   22.6703 C   0  0  0  0  0  0  0  0  0  0  0  0
    8.4143    6.6863   16.2273 C   0  0  0  0  0  0  0  0  0  0  0  0
   10.7581    6.5674   21.7636 C   0  0  0  0  0  0  0  0  0  0  0  0
    8.4452    8.7960   19.2958 O   0  0  0  0  0  0  0  0  0  0  0  0
    8.7122    6.7842   24.8569 C   0  0  0  0  0  0  0  0  0  0  0  0
   10.3400    6.1726   14.3081 C   0  0  0  0  0  0  0  0  0  0  0  0
    7.4297    7.5873   24.8962 C   0  0  0  0  0  0  0  0  0  0  0  0
    8.1566   10.0536   16.0516 O   0  0  0  0  0  0  0  0  0  0  0  0
   12.4989    6.2074   20.1776 C   0  0  0  0  0  0  0  0  0  0  0  0
    6.9192    9.1053   20.9073 O   0  0  0  0  0  0  0  0  0  0  0  0
   14.3979    6.0729   18.7784 C   0  0  0  0  0  0  0  0  0  0  0  0
    8.6811    9.5354   16.9998 C   0  0  0  0  0  0  0  0  0  0  0  0
    9.2512    4.2713   13.7653 O   0  0  0  0  0  0  0  0  0  0  0  0
    9.6495    8.6317   16.8332 N   0  0  0  0  0  0  0  0  0  0  0  0
    6.2934    8.6988   23.1988 O   0  0  0  0  0  0  0  0  0  0  0  0
    7.9806    8.6543   20.5437 C   0  0  0  0  0  0  0  0  0  0  0  0
   13.7270    5.7144   19.8610 O   0  0  0  0  0  0  0  0  0  0  0  0
    8.3351    5.5235   15.4478 C   0  0  0  0  0  0  0  0  0  0  0  0
    8.7700    7.8434   21.3915 C   0  0  0  0  0  0  0  0  0  0  0  0
   11.7856    6.8851   19.2401 C   0  0  0  0  0  0  0  0  0  0  0  0
   10.5281    7.4276   19.5649 C   0  0  0  0  0  0  0  0  0  0  0  0
   10.0256    7.2907   20.8484 C   0  0  0  0  0  0  0  0  0  0  0  0
    9.3113    5.3049   14.4911 C   0  0  0  0  0  0  0  0  0  0  0  0
    9.4607    7.5646   16.0139 C   0  0  0  0  0  0  0  0  0  0  0  0
   10.4192    7.3157   15.0955 C   0  0  0  0  0  0  0  0  0  0  0  0
   10.2489    6.4227   23.0218 N   0  0  0  0  0  0  0  0  0  0  0  0
    7.2472    8.0746   23.5050 C   0  0  0  0  0  0  0  0  0  0  0  0
    9.2051    6.9101   23.4604 C   0  0  0  0  0  0  0  0  0  0  0  0
   11.9646    6.0299   21.4251 C   0  0  0  0  0  0  0  0  0  0  0  0
  1  5  1  0
  1 13  1  0
  2 20  2  0
  2 28  1  0
  2 29  1  0
  3 19  4  0
  3 25  4  0
  4 23  4  0
  4 27  1  0
  4 30  4  0
  5 17  1  0
  6  8  1  0
  6 29  1  0
  7 24  4  0
  7 26  4  0
  8 28  1  0
  9 13  2  0
 10 18  1  0
 10 21  4  0
 10 30  4  0
 11 17  2  0
 12 18  1  0
 13 15  1  0
 14 24  1  0
 15 25  1  0
 16 28  2  0
 17 20  1  0
 19 24  4  0
 20 23  1  0
 21 22  4  0
 22 23  4  0
 25 26  4  0
 27 29  2  0
M  END
$$$$

 Created by Python create_sdf_string function

 30 33  0  0  0  0  0  0  0  0999 V2000
    8.3036    9.8571   18.4133 C   0  0  0  0  0  0  0  0  0  0  0  0
    8.3694    7.6612   22.6703 C   0  0  0  0  0  0  0  0  0  0  0  0
    8.4143    6.6863   16.2273 C   0  0  0  0  0  0  0  0  0  0  0  0
   10.7581    6.5674   21.7636 C   0  0  0  0  0  0  0  0  0  0  0  0
    8.4452    8.7960   19.2958 O   0  0  0  0  0  0  0  0  0  0  0  0
    8.7122    6.7842   24.8569 C   0  0  0  0  0  0  0  0  0  0  0  0
   10.3400    6.1726   14.3081 C   0  0  0  0  0  0  0  0  0  0  0  0
    7.4297    7.5873   24.8962 C   0  0  0  0  0  0  0  0  0  0  0  0
    8.1566   10.0536   16.0516 O   0  0  0  0  0  0  0  0  0  0  0  0
   12.4989    6.2074   20.1776 C   0  0  0  0  0  0  0  0  0  0  0  0
    6.9192    9.1053   20.9073 O   0  0  0  0  0  0  0  0  0  0  0  0
   14.3979    6.0729   18.7784 C   0  0  0  0  0  0  0  0  0  0  0  0
    8.6811    9.5354   16.9998 C   0  0  0  0  0  0  0  0  0  0  0  0
    9.2512    4.2713   13.7653 O   0  0  0  0  0  0  0  0  0  0  0  0
    9.6495    8.6317   16.8332 N   0  0  0  0  0  0  0  0  0  0  0  0
    6.2934    8.6988   23.1988 O   0  0  0  0  0  0  0  0  0  0  0  0
    7.9806    8.6543   20.5437 C   0  0  0  0  0  0  0  0  0  0  0  0
   13.7270    5.7144   19.8610 O   0  0  0  0  0  0  0  0  0  0  0  0
    8.3351    5.5235   15.4478 C   0  0  0  0  0  0  0  0  0  0  0  0
    8.7700    7.8434   21.3915 C   0  0  0  0  0  0  0  0  0  0  0  0
   11.7856    6.8851   19.2401 C   0  0  0  0  0  0  0  0  0  0  0  0
   10.5281    7.4276   19.5649 C   0  0  0  0  0  0  0  0  0  0  0  0
   10.0256    7.2907   20.8484 C   0  0  0  0  0  0  0  0  0  0  0  0
    9.3113    5.3049   14.4911 C   0  0  0  0  0  0  0  0  0  0  0  0
    9.4607    7.5646   16.0139 C   0  0  0  0  0  0  0  0  0  0  0  0
   10.4192    7.3157   15.0955 C   0  0  0  0  0  0  0  0  0  0  0  0
   10.2489    6.4227   23.0218 N   0  0  0  0  0  0  0  0  0  0  0  0
    7.2472    8.0746   23.5050 C   0  0  0  0  0  0  0  0  0  0  0  0
    9.2051    6.9101   23.4604 C   0  0  0  0  0  0  0  0  0  0  0  0
   11.9646    6.0299   21.4251 C   0  0  0  0  0  0  0  0  0  0  0  0
  1  5  1  0
  1 13  1  0
  2 20  2  0
  2 28  1  0
  2 29  1  0
  3 19  4  0
  3 25  4  0
  4 23  4  0
  4 27  1  0
  4 30  4  0
  5 17  1  0
  6  8  1  0
  6 29  1  0
  7 24  4  0
  7 26  4  0
  8 28  1  0
  9 13  2  0
 10 18  1  0
 10 21  4  0
 10 30  4  0
 11 17  2  0
 12 18  1  0
 13 15  1  0
 14 24  1  0
 15 25  1  0
 16 28  2  0
 17 20  1  0
 19 24  4  0
 20 23  1  0
 21 22  4  0
 22 23  4  0
 25 26  4  0
 27 29  2  0
M  END
$$$$

 Created by Python create_sdf_string function

 30 33  0  0  0  0  0  0  0  0999 V2000
    8.3036    9.8571   18.4133 C   0  0  0  0  0  0  0  0  0  0  0  0
    8.3694    7.6612   22.6703 C   0  0  0  0  0  0  0  0  0  0  0  0
    8.4143    6.6863   16.2273 C   0  0  0  0  0  0  0  0  0  0  0  0
   10.7581    6.5674   21.7636 C   0  0  0  0  0  0  0  0  0  0  0  0
    8.4452    8.7960   19.2958 O   0  0  0  0  0  0  0  0  0  0  0  0
    8.7122    6.7842   24.8569 C   0  0  0  0  0  0  0  0  0  0  0  0
   10.3400    6.1726   14.3081 C   0  0  0  0  0  0  0  0  0  0  0  0
    7.4297    7.5873   24.8962 C   0  0  0  0  0  0  0  0  0  0  0  0
    8.1566   10.0536   16.0516 O   0  0  0  0  0  0  0  0  0  0  0  0
   12.4989    6.2074   20.1776 C   0  0  0  0  0  0  0  0  0  0  0  0
    6.9192    9.1053   20.9073 O   0  0  0  0  0  0  0  0  0  0  0  0
   14.3979    6.0729   18.7784 C   0  0  0  0  0  0  0  0  0  0  0  0
    8.6811    9.5354   16.9998 C   0  0  0  0  0  0  0  0  0  0  0  0
    9.2512    4.2713   13.7653 O   0  0  0  0  0  0  0  0  0  0  0  0
    9.6495    8.6317   16.8332 N   0  0  0  0  0  0  0  0  0  0  0  0
    6.2934    8.6988   23.1988 O   0  0  0  0  0  0  0  0  0  0  0  0
    7.9806    8.6543   20.5437 C   0  0  0  0  0  0  0  0  0  0  0  0
   13.7270    5.7144   19.8610 O   0  0  0  0  0  0  0  0  0  0  0  0
    8.3351    5.5235   15.4478 C   0  0  0  0  0  0  0  0  0  0  0  0
    8.7700    7.8434   21.3915 C   0  0  0  0  0  0  0  0  0  0  0  0
   11.7856    6.8851   19.2401 C   0  0  0  0  0  0  0  0  0  0  0  0
   10.5281    7.4276   19.5649 C   0  0  0  0  0  0  0  0  0  0  0  0
   10.0256    7.2907   20.8484 C   0  0  0  0  0  0  0  0  0  0  0  0
    9.3113    5.3049   14.4911 C   0  0  0  0  0  0  0  0  0  0  0  0
    9.4607    7.5646   16.0139 C   0  0  0  0  0  0  0  0  0  0  0  0
   10.4192    7.3157   15.0955 C   0  0  0  0  0  0  0  0  0  0  0  0
   10.2489    6.4227   23.0218 N   0  0  0  0  0  0  0  0  0  0  0  0
    7.2472    8.0746   23.5050 C   0  0  0  0  0  0  0  0  0  0  0  0
    9.2051    6.9101   23.4604 C   0  0  0  0  0  0  0  0  0  0  0  0
   11.9646    6.0299   21.4251 C   0  0  0  0  0  0  0  0  0  0  0  0
  1  5  1  0
  1 13  1  0
  2 20  2  0
  2 28  1  0
  2 29  1  0
  3 19  4  0
  3 25  4  0
  4 23  4  0
  4 27  1  0
  4 30  4  0
  5 17  1  0
  6  8  1  0
  6 29  1  0
  7 24  4  0
  7 26  4  0
  8 28  1  0
  9 13  2  0
 10 18  1  0
 10 21  4  0
 10 30  4  0
 11 17  2  0
 12 18  1  0
 13 15  1  0
 14 24  1  0
 15 25  1  0
 16 28  2  0
 17 20  1  0
 19 24  4  0
 20 23  1  0
 21 22  4  0
 22 23  4  0
 25 26  4  0
 27 29  2  0
M  END
$$$$

 Created by Python create_sdf_string function

 30 33  0  0  0  0  0  0  0  0999 V2000
    8.3036    9.8571   18.4133 C   0  0  0  0  0  0  0  0  0  0  0  0
    8.3694    7.6612   22.6703 C   0  0  0  0  0  0  0  0  0  0  0  0
    8.4143    6.6863   16.2273 C   0  0  0  0  0  0  0  0  0  0  0  0
   10.7581    6.5674   21.7636 C   0  0  0  0  0  0  0  0  0  0  0  0
    8.4452    8.7960   19.2958 O   0  0  0  0  0  0  0  0  0  0  0  0
    8.7122    6.7842   24.8569 C   0  0  0  0  0  0  0  0  0  0  0  0
   10.3400    6.1726   14.3081 C   0  0  0  0  0  0  0  0  0  0  0  0
    7.4297    7.5873   24.8962 C   0  0  0  0  0  0  0  0  0  0  0  0
    8.1566   10.0536   16.0516 O   0  0  0  0  0  0  0  0  0  0  0  0
   12.4989    6.2074   20.1776 C   0  0  0  0  0  0  0  0  0  0  0  0
    6.9192    9.1053   20.9073 O   0  0  0  0  0  0  0  0  0  0  0  0
   14.3979    6.0729   18.7784 C   0  0  0  0  0  0  0  0  0  0  0  0
    8.6811    9.5354   16.9998 C   0  0  0  0  0  0  0  0  0  0  0  0
    9.2512    4.2713   13.7653 O   0  0  0  0  0  0  0  0  0  0  0  0
    9.6495    8.6317   16.8332 N   0  0  0  0  0  0  0  0  0  0  0  0
    6.2934    8.6988   23.1988 O   0  0  0  0  0  0  0  0  0  0  0  0
    7.9806    8.6543   20.5437 C   0  0  0  0  0  0  0  0  0  0  0  0
   13.7270    5.7144   19.8610 O   0  0  0  0  0  0  0  0  0  0  0  0
    8.3351    5.5235   15.4478 C   0  0  0  0  0  0  0  0  0  0  0  0
    8.7700    7.8434   21.3915 C   0  0  0  0  0  0  0  0  0  0  0  0
   11.7856    6.8851   19.2401 C   0  0  0  0  0  0  0  0  0  0  0  0
   10.5281    7.4276   19.5649 C   0  0  0  0  0  0  0  0  0  0  0  0
   10.0256    7.2907   20.8484 C   0  0  0  0  0  0  0  0  0  0  0  0
    9.3113    5.3049   14.4911 C   0  0  0  0  0  0  0  0  0  0  0  0
    9.4607    7.5646   16.0139 C   0  0  0  0  0  0  0  0  0  0  0  0
   10.4192    7.3157   15.0955 C   0  0  0  0  0  0  0  0  0  0  0  0
   10.2489    6.4227   23.0218 N   0  0  0  0  0  0  0  0  0  0  0  0
    7.2472    8.0746   23.5050 C   0  0  0  0  0  0  0  0  0  0  0  0
    9.2051    6.9101   23.4604 C   0  0  0  0  0  0  0  0  0  0  0  0
   11.9646    6.0299   21.4251 C   0  0  0  0  0  0  0  0  0  0  0  0
  1  5  1  0
  1 13  1  0
  2 20  2  0
  2 28  1  0
  2 29  1  0
  3 19  4  0
  3 25  4  0
  4 23  4  0
  4 27  1  0
  4 30  4  0
  5 17  1  0
  6  8  1  0
  6 29  1  0
  7 24  4  0
  7 26  4  0
  8 28  1  0
  9 13  2  0
 10 18  1  0
 10 21  4  0
 10 30  4  0
 11 17  2  0
 12 18  1  0
 13 15  1  0
 14 24  1  0
 15 25  1  0
 16 28  2  0
 17 20  1  0
 19 24  4  0
 20 23  1  0
 21 22  4  0
 22 23  4  0
 25 26  4  0
 27 29  2  0
M  END
$$$$

 Created by Python create_sdf_string function

 30 33  0  0  0  0  0  0  0  0999 V2000
    8.3036    9.8571   18.4133 C   0  0  0  0  0  0  0  0  0  0  0  0
    8.3694    7.6612   22.6703 C   0  0  0  0  0  0  0  0  0  0  0  0
    8.4143    6.6863   16.2273 C   0  0  0  0  0  0  0  0  0  0  0  0
   10.7581    6.5674   21.7636 C   0  0  0  0  0  0  0  0  0  0  0  0
    8.4452    8.7960   19.2958 O   0  0  0  0  0  0  0  0  0  0  0  0
    8.7122    6.7842   24.8569 C   0  0  0  0  0  0  0  0  0  0  0  0
   10.3400    6.1726   14.3081 C   0  0  0  0  0  0  0  0  0  0  0  0
    7.4297    7.5873   24.8962 C   0  0  0  0  0  0  0  0  0  0  0  0
    8.1566   10.0536   16.0516 O   0  0  0  0  0  0  0  0  0  0  0  0
   12.4989    6.2074   20.1776 C   0  0  0  0  0  0  0  0  0  0  0  0
    6.9192    9.1053   20.9073 O   0  0  0  0  0  0  0  0  0  0  0  0
   14.3979    6.0729   18.7784 C   0  0  0  0  0  0  0  0  0  0  0  0
    8.6811    9.5354   16.9998 C   0  0  0  0  0  0  0  0  0  0  0  0
    9.2512    4.2713   13.7653 O   0  0  0  0  0  0  0  0  0  0  0  0
    9.6495    8.6317   16.8332 N   0  0  0  0  0  0  0  0  0  0  0  0
    6.2934    8.6988   23.1988 O   0  0  0  0  0  0  0  0  0  0  0  0
    7.9806    8.6543   20.5437 C   0  0  0  0  0  0  0  0  0  0  0  0
   13.7270    5.7144   19.8610 O   0  0  0  0  0  0  0  0  0  0  0  0
    8.3351    5.5235   15.4478 C   0  0  0  0  0  0  0  0  0  0  0  0
    8.7700    7.8434   21.3915 C   0  0  0  0  0  0  0  0  0  0  0  0
   11.7856    6.8851   19.2401 C   0  0  0  0  0  0  0  0  0  0  0  0
   10.5281    7.4276   19.5649 C   0  0  0  0  0  0  0  0  0  0  0  0
   10.0256    7.2907   20.8484 C   0  0  0  0  0  0  0  0  0  0  0  0
    9.3113    5.3049   14.4911 C   0  0  0  0  0  0  0  0  0  0  0  0
    9.4607    7.5646   16.0139 C   0  0  0  0  0  0  0  0  0  0  0  0
   10.4192    7.3157   15.0955 C   0  0  0  0  0  0  0  0  0  0  0  0
   10.2489    6.4227   23.0218 N   0  0  0  0  0  0  0  0  0  0  0  0
    7.2472    8.0746   23.5050 C   0  0  0  0  0  0  0  0  0  0  0  0
    9.2051    6.9101   23.4604 C   0  0  0  0  0  0  0  0  0  0  0  0
   11.9646    6.0299   21.4251 C   0  0  0  0  0  0  0  0  0  0  0  0
  1  5  1  0
  1 13  1  0
  2 20  2  0
  2 28  1  0
  2 29  1  0
  3 19  4  0
  3 25  4  0
  4 23  4  0
  4 27  1  0
  4 30  4  0
  5 17  1  0
  6  8  1  0
  6 29  1  0
  7 24  4  0
  7 26  4  0
  8 28  1  0
  9 13  2  0
 10 18  1  0
 10 21  4  0
 10 30  4  0
 11 17  2  0
 12 18  1  0
 13 15  1  0
 14 24  1  0
 15 25  1  0
 16 28  2  0
 17 20  1  0
 19 24  4  0
 20 23  1  0
 21 22  4  0
 22 23  4  0
 25 26  4  0
 27 29  2  0
M  END
$$$$

 Created by Python create_sdf_string function

 30 33  0  0  0  0  0  0  0  0999 V2000
    8.3036    9.8571   18.4133 C   0  0  0  0  0  0  0  0  0  0  0  0
    8.3694    7.6612   22.6703 C   0  0  0  0  0  0  0  0  0  0  0  0
    8.4143    6.6863   16.2273 C   0  0  0  0  0  0  0  0  0  0  0  0
   10.7581    6.5674   21.7636 C   0  0  0  0  0  0  0  0  0  0  0  0
    8.4452    8.7960   19.2958 O   0  0  0  0  0  0  0  0  0  0  0  0
    8.7122    6.7842   24.8569 C   0  0  0  0  0  0  0  0  0  0  0  0
   10.3400    6.1726   14.3081 C   0  0  0  0  0  0  0  0  0  0  0  0
    7.4297    7.5873   24.8962 C   0  0  0  0  0  0  0  0  0  0  0  0
    8.1566   10.0536   16.0516 O   0  0  0  0  0  0  0  0  0  0  0  0
   12.4989    6.2074   20.1776 C   0  0  0  0  0  0  0  0  0  0  0  0
    6.9192    9.1053   20.9073 O   0  0  0  0  0  0  0  0  0  0  0  0
   14.3979    6.0729   18.7784 C   0  0  0  0  0  0  0  0  0  0  0  0
    8.6811    9.5354   16.9998 C   0  0  0  0  0  0  0  0  0  0  0  0
    9.2512    4.2713   13.7653 O   0  0  0  0  0  0  0  0  0  0  0  0
    9.6495    8.6317   16.8332 N   0  0  0  0  0  0  0  0  0  0  0  0
    6.2934    8.6988   23.1988 O   0  0  0  0  0  0  0  0  0  0  0  0
    7.9806    8.6543   20.5437 C   0  0  0  0  0  0  0  0  0  0  0  0
   13.7270    5.7144   19.8610 O   0  0  0  0  0  0  0  0  0  0  0  0
    8.3351    5.5235   15.4478 C   0  0  0  0  0  0  0  0  0  0  0  0
    8.7700    7.8434   21.3915 C   0  0  0  0  0  0  0  0  0  0  0  0
   11.7856    6.8851   19.2401 C   0  0  0  0  0  0  0  0  0  0  0  0
   10.5281    7.4276   19.5649 C   0  0  0  0  0  0  0  0  0  0  0  0
   10.0256    7.2907   20.8484 C   0  0  0  0  0  0  0  0  0  0  0  0
    9.3113    5.3049   14.4911 C   0  0  0  0  0  0  0  0  0  0  0  0
    9.4607    7.5646   16.0139 C   0  0  0  0  0  0  0  0  0  0  0  0
   10.4192    7.3157   15.0955 C   0  0  0  0  0  0  0  0  0  0  0  0
   10.2489    6.4227   23.0218 N   0  0  0  0  0  0  0  0  0  0  0  0
    7.2472    8.0746   23.5050 C   0  0  0  0  0  0  0  0  0  0  0  0
    9.2051    6.9101   23.4604 C   0  0  0  0  0  0  0  0  0  0  0  0
   11.9646    6.0299   21.4251 C   0  0  0  0  0  0  0  0  0  0  0  0
  1  5  1  0
  1 13  1  0
  2 20  2  0
  2 28  1  0
  2 29  1  0
  3 19  4  0
  3 25  4  0
  4 23  4  0
  4 27  1  0
  4 30  4  0
  5 17  1  0
  6  8  1  0
  6 29  1  0
  7 24  4  0
  7 26  4  0
  8 28  1  0
  9 13  2  0
 10 18  1  0
 10 21  4  0
 10 30  4  0
 11 17  2  0
 12 18  1  0
 13 15  1  0
 14 24  1  0
 15 25  1  0
 16 28  2  0
 17 20  1  0
 19 24  4  0
 20 23  1  0
 21 22  4  0
 22 23  4  0
 25 26  4  0
 27 29  2  0
M  END
$$$$

 Created by Python create_sdf_string function

 30 33  0  0  0  0  0  0  0  0999 V2000
    8.3036    9.8571   18.4133 C   0  0  0  0  0  0  0  0  0  0  0  0
    8.3694    7.6612   22.6703 C   0  0  0  0  0  0  0  0  0  0  0  0
    8.4143    6.6863   16.2273 C   0  0  0  0  0  0  0  0  0  0  0  0
   10.7581    6.5674   21.7636 C   0  0  0  0  0  0  0  0  0  0  0  0
    8.4452    8.7960   19.2958 O   0  0  0  0  0  0  0  0  0  0  0  0
    8.7122    6.7842   24.8569 C   0  0  0  0  0  0  0  0  0  0  0  0
   10.3400    6.1726   14.3081 C   0  0  0  0  0  0  0  0  0  0  0  0
    7.4297    7.5873   24.8962 C   0  0  0  0  0  0  0  0  0  0  0  0
    8.1566   10.0536   16.0516 O   0  0  0  0  0  0  0  0  0  0  0  0
   12.4989    6.2074   20.1776 C   0  0  0  0  0  0  0  0  0  0  0  0
    6.9192    9.1053   20.9073 O   0  0  0  0  0  0  0  0  0  0  0  0
   14.3979    6.0729   18.7784 C   0  0  0  0  0  0  0  0  0  0  0  0
    8.6811    9.5354   16.9998 C   0  0  0  0  0  0  0  0  0  0  0  0
    9.2512    4.2713   13.7653 O   0  0  0  0  0  0  0  0  0  0  0  0
    9.6495    8.6317   16.8332 N   0  0  0  0  0  0  0  0  0  0  0  0
    6.2934    8.6988   23.1988 O   0  0  0  0  0  0  0  0  0  0  0  0
    7.9806    8.6543   20.5437 C   0  0  0  0  0  0  0  0  0  0  0  0
   13.7270    5.7144   19.8610 O   0  0  0  0  0  0  0  0  0  0  0  0
    8.3351    5.5235   15.4478 C   0  0  0  0  0  0  0  0  0  0  0  0
    8.7700    7.8434   21.3915 C   0  0  0  0  0  0  0  0  0  0  0  0
   11.7856    6.8851   19.2401 C   0  0  0  0  0  0  0  0  0  0  0  0
   10.5281    7.4276   19.5649 C   0  0  0  0  0  0  0  0  0  0  0  0
   10.0256    7.2907   20.8484 C   0  0  0  0  0  0  0  0  0  0  0  0
    9.3113    5.3049   14.4911 C   0  0  0  0  0  0  0  0  0  0  0  0
    9.4607    7.5646   16.0139 C   0  0  0  0  0  0  0  0  0  0  0  0
   10.4192    7.3157   15.0955 C   0  0  0  0  0  0  0  0  0  0  0  0
   10.2489    6.4227   23.0218 N   0  0  0  0  0  0  0  0  0  0  0  0
    7.2472    8.0746   23.5050 C   0  0  0  0  0  0  0  0  0  0  0  0
    9.2051    6.9101   23.4604 C   0  0  0  0  0  0  0  0  0  0  0  0
   11.9646    6.0299   21.4251 C   0  0  0  0  0  0  0  0  0  0  0  0
  1  5  1  0
  1 13  1  0
  2 20  2  0
  2 28  1  0
  2 29  1  0
  3 19  4  0
  3 25  4  0
  4 23  4  0
  4 27  1  0
  4 30  4  0
  5 17  1  0
  6  8  1  0
  6 29  1  0
  7 24  4  0
  7 26  4  0
  8 28  1  0
  9 13  2  0
 10 18  1  0
 10 21  4  0
 10 30  4  0
 11 17  2  0
 12 18  1  0
 13 15  1  0
 14 24  1  0
 15 25  1  0
 16 28  2  0
 17 20  1  0
 19 24  4  0
 20 23  1  0
 21 22  4  0
 22 23  4  0
 25 26  4  0
 27 29  2  0
M  END
$$$$

 Created by Python create_sdf_string function

 30 33  0  0  0  0  0  0  0  0999 V2000
    8.3036    9.8571   18.4133 C   0  0  0  0  0  0  0  0  0  0  0  0
    8.3694    7.6612   22.6703 C   0  0  0  0  0  0  0  0  0  0  0  0
    8.4143    6.6863   16.2273 C   0  0  0  0  0  0  0  0  0  0  0  0
   10.7581    6.5674   21.7636 C   0  0  0  0  0  0  0  0  0  0  0  0
    8.4452    8.7960   19.2958 O   0  0  0  0  0  0  0  0  0  0  0  0
    8.7122    6.7842   24.8569 C   0  0  0  0  0  0  0  0  0  0  0  0
   10.3400    6.1726   14.3081 C   0  0  0  0  0  0  0  0  0  0  0  0
    7.4297    7.5873   24.8962 C   0  0  0  0  0  0  0  0  0  0  0  0
    8.1566   10.0536   16.0516 O   0  0  0  0  0  0  0  0  0  0  0  0
   12.4989    6.2074   20.1776 C   0  0  0  0  0  0  0  0  0  0  0  0
    6.9192    9.1053   20.9073 O   0  0  0  0  0  0  0  0  0  0  0  0
   14.3979    6.0729   18.7784 C   0  0  0  0  0  0  0  0  0  0  0  0
    8.6811    9.5354   16.9998 C   0  0  0  0  0  0  0  0  0  0  0  0
    9.2512    4.2713   13.7653 O   0  0  0  0  0  0  0  0  0  0  0  0
    9.6495    8.6317   16.8332 N   0  0  0  0  0  0  0  0  0  0  0  0
    6.2934    8.6988   23.1988 O   0  0  0  0  0  0  0  0  0  0  0  0
    7.9806    8.6543   20.5437 C   0  0  0  0  0  0  0  0  0  0  0  0
   13.7270    5.7144   19.8610 O   0  0  0  0  0  0  0  0  0  0  0  0
    8.3351    5.5235   15.4478 C   0  0  0  0  0  0  0  0  0  0  0  0
    8.7700    7.8434   21.3915 C   0  0  0  0  0  0  0  0  0  0  0  0
   11.7856    6.8851   19.2401 C   0  0  0  0  0  0  0  0  0  0  0  0
   10.5281    7.4276   19.5649 C   0  0  0  0  0  0  0  0  0  0  0  0
   10.0256    7.2907   20.8484 C   0  0  0  0  0  0  0  0  0  0  0  0
    9.3113    5.3049   14.4911 C   0  0  0  0  0  0  0  0  0  0  0  0
    9.4607    7.5646   16.0139 C   0  0  0  0  0  0  0  0  0  0  0  0
   10.4192    7.3157   15.0955 C   0  0  0  0  0  0  0  0  0  0  0  0
   10.2489    6.4227   23.0218 N   0  0  0  0  0  0  0  0  0  0  0  0
    7.2472    8.0746   23.5050 C   0  0  0  0  0  0  0  0  0  0  0  0
    9.2051    6.9101   23.4604 C   0  0  0  0  0  0  0  0  0  0  0  0
   11.9646    6.0299   21.4251 C   0  0  0  0  0  0  0  0  0  0  0  0
  1  5  1  0
  1 13  1  0
  2 20  2  0
  2 28  1  0
  2 29  1  0
  3 19  4  0
  3 25  4  0
  4 23  4  0
  4 27  1  0
  4 30  4  0
  5 17  1  0
  6  8  1  0
  6 29  1  0
  7 24  4  0
  7 26  4  0
  8 28  1  0
  9 13  2  0
 10 18  1  0
 10 21  4  0
 10 30  4  0
 11 17  2  0
 12 18  1  0
 13 15  1  0
 14 24  1  0
 15 25  1  0
 16 28  2  0
 17 20  1  0
 19 24  4  0
 20 23  1  0
 21 22  4  0
 22 23  4  0
 25 26  4  0
 27 29  2  0
M  END
$$$$

 Created by Python create_sdf_string function

 30 33  0  0  0  0  0  0  0  0999 V2000
    8.3036    9.8571   18.4133 C   0  0  0  0  0  0  0  0  0  0  0  0
    8.3694    7.6612   22.6703 C   0  0  0  0  0  0  0  0  0  0  0  0
    8.4143    6.6863   16.2273 C   0  0  0  0  0  0  0  0  0  0  0  0
   10.7581    6.5674   21.7636 C   0  0  0  0  0  0  0  0  0  0  0  0
    8.4452    8.7960   19.2958 O   0  0  0  0  0  0  0  0  0  0  0  0
    8.7122    6.7842   24.8569 C   0  0  0  0  0  0  0  0  0  0  0  0
   10.3400    6.1726   14.3081 C   0  0  0  0  0  0  0  0  0  0  0  0
    7.4297    7.5873   24.8962 C   0  0  0  0  0  0  0  0  0  0  0  0
    8.1566   10.0536   16.0516 O   0  0  0  0  0  0  0  0  0  0  0  0
   12.4989    6.2074   20.1776 C   0  0  0  0  0  0  0  0  0  0  0  0
    6.9192    9.1053   20.9073 O   0  0  0  0  0  0  0  0  0  0  0  0
   14.3979    6.0729   18.7784 C   0  0  0  0  0  0  0  0  0  0  0  0
    8.6811    9.5354   16.9998 C   0  0  0  0  0  0  0  0  0  0  0  0
    9.2512    4.2713   13.7653 O   0  0  0  0  0  0  0  0  0  0  0  0
    9.6495    8.6317   16.8332 N   0  0  0  0  0  0  0  0  0  0  0  0
    6.2934    8.6988   23.1988 O   0  0  0  0  0  0  0  0  0  0  0  0
    7.9806    8.6543   20.5437 C   0  0  0  0  0  0  0  0  0  0  0  0
   13.7270    5.7144   19.8610 O   0  0  0  0  0  0  0  0  0  0  0  0
    8.3351    5.5235   15.4478 C   0  0  0  0  0  0  0  0  0  0  0  0
    8.7700    7.8434   21.3915 C   0  0  0  0  0  0  0  0  0  0  0  0
   11.7856    6.8851   19.2401 C   0  0  0  0  0  0  0  0  0  0  0  0
   10.5281    7.4276   19.5649 C   0  0  0  0  0  0  0  0  0  0  0  0
   10.0256    7.2907   20.8484 C   0  0  0  0  0  0  0  0  0  0  0  0
    9.3113    5.3049   14.4911 C   0  0  0  0  0  0  0  0  0  0  0  0
    9.4607    7.5646   16.0139 C   0  0  0  0  0  0  0  0  0  0  0  0
   10.4192    7.3157   15.0955 C   0  0  0  0  0  0  0  0  0  0  0  0
   10.2489    6.4227   23.0218 N   0  0  0  0  0  0  0  0  0  0  0  0
    7.2472    8.0746   23.5050 C   0  0  0  0  0  0  0  0  0  0  0  0
    9.2051    6.9101   23.4604 C   0  0  0  0  0  0  0  0  0  0  0  0
   11.9646    6.0299   21.4251 C   0  0  0  0  0  0  0  0  0  0  0  0
  1  5  1  0
  1 13  1  0
  2 20  2  0
  2 28  1  0
  2 29  1  0
  3 19  4  0
  3 25  4  0
  4 23  4  0
  4 27  1  0
  4 30  4  0
  5 17  1  0
  6  8  1  0
  6 29  1  0
  7 24  4  0
  7 26  4  0
  8 28  1  0
  9 13  2  0
 10 18  1  0
 10 21  4  0
 10 30  4  0
 11 17  2  0
 12 18  1  0
 13 15  1  0
 14 24  1  0
 15 25  1  0
 16 28  2  0
 17 20  1  0
 19 24  4  0
 20 23  1  0
 21 22  4  0
 22 23  4  0
 25 26  4  0
 27 29  2  0
M  END
$$$$

 Created by Python create_sdf_string function

 30 33  0  0  0  0  0  0  0  0999 V2000
    8.3036    9.8571   18.4133 C   0  0  0  0  0  0  0  0  0  0  0  0
    8.3694    7.6612   22.6703 C   0  0  0  0  0  0  0  0  0  0  0  0
    8.4143    6.6863   16.2273 C   0  0  0  0  0  0  0  0  0  0  0  0
   10.7581    6.5674   21.7636 C   0  0  0  0  0  0  0  0  0  0  0  0
    8.4452    8.7960   19.2958 O   0  0  0  0  0  0  0  0  0  0  0  0
    8.7122    6.7842   24.8569 C   0  0  0  0  0  0  0  0  0  0  0  0
   10.3400    6.1726   14.3081 C   0  0  0  0  0  0  0  0  0  0  0  0
    7.4297    7.5873   24.8962 C   0  0  0  0  0  0  0  0  0  0  0  0
    8.1566   10.0536   16.0516 O   0  0  0  0  0  0  0  0  0  0  0  0
   12.4989    6.2074   20.1776 C   0  0  0  0  0  0  0  0  0  0  0  0
    6.9192    9.1053   20.9073 O   0  0  0  0  0  0  0  0  0  0  0  0
   14.3979    6.0729   18.7784 C   0  0  0  0  0  0  0  0  0  0  0  0
    8.6811    9.5354   16.9998 C   0  0  0  0  0  0  0  0  0  0  0  0
    9.2512    4.2713   13.7653 O   0  0  0  0  0  0  0  0  0  0  0  0
    9.6495    8.6317   16.8332 N   0  0  0  0  0  0  0  0  0  0  0  0
    6.2934    8.6988   23.1988 O   0  0  0  0  0  0  0  0  0  0  0  0
    7.9806    8.6543   20.5437 C   0  0  0  0  0  0  0  0  0  0  0  0
   13.7270    5.7144   19.8610 O   0  0  0  0  0  0  0  0  0  0  0  0
    8.3351    5.5235   15.4478 C   0  0  0  0  0  0  0  0  0  0  0  0
    8.7700    7.8434   21.3915 C   0  0  0  0  0  0  0  0  0  0  0  0
   11.7856    6.8851   19.2401 C   0  0  0  0  0  0  0  0  0  0  0  0
   10.5281    7.4276   19.5649 C   0  0  0  0  0  0  0  0  0  0  0  0
   10.0256    7.2907   20.8484 C   0  0  0  0  0  0  0  0  0  0  0  0
    9.3113    5.3049   14.4911 C   0  0  0  0  0  0  0  0  0  0  0  0
    9.4607    7.5646   16.0139 C   0  0  0  0  0  0  0  0  0  0  0  0
   10.4192    7.3157   15.0955 C   0  0  0  0  0  0  0  0  0  0  0  0
   10.2489    6.4227   23.0218 N   0  0  0  0  0  0  0  0  0  0  0  0
    7.2472    8.0746   23.5050 C   0  0  0  0  0  0  0  0  0  0  0  0
    9.2051    6.9101   23.4604 C   0  0  0  0  0  0  0  0  0  0  0  0
   11.9646    6.0299   21.4251 C   0  0  0  0  0  0  0  0  0  0  0  0
  1  5  1  0
  1 13  1  0
  2 20  2  0
  2 28  1  0
  2 29  1  0
  3 19  4  0
  3 25  4  0
  4 23  4  0
  4 27  1  0
  4 30  4  0
  5 17  1  0
  6  8  1  0
  6 29  1  0
  7 24  4  0
  7 26  4  0
  8 28  1  0
  9 13  2  0
 10 18  1  0
 10 21  4  0
 10 30  4  0
 11 17  2  0
 12 18  1  0
 13 15  1  0
 14 24  1  0
 15 25  1  0
 16 28  2  0
 17 20  1  0
 19 24  4  0
 20 23  1  0
 21 22  4  0
 22 23  4  0
 25 26  4  0
 27 29  2  0
M  END
$$$$

 Created by Python create_sdf_string function

 30 33  0  0  0  0  0  0  0  0999 V2000
    8.3036    9.8571   18.4133 C   0  0  0  0  0  0  0  0  0  0  0  0
    8.3694    7.6612   22.6703 C   0  0  0  0  0  0  0  0  0  0  0  0
    8.4143    6.6863   16.2273 C   0  0  0  0  0  0  0  0  0  0  0  0
   10.7581    6.5674   21.7636 C   0  0  0  0  0  0  0  0  0  0  0  0
    8.4452    8.7960   19.2958 O   0  0  0  0  0  0  0  0  0  0  0  0
    8.7122    6.7842   24.8569 C   0  0  0  0  0  0  0  0  0  0  0  0
   10.3400    6.1726   14.3081 C   0  0  0  0  0  0  0  0  0  0  0  0
    7.4297    7.5873   24.8962 C   0  0  0  0  0  0  0  0  0  0  0  0
    8.1566   10.0536   16.0516 O   0  0  0  0  0  0  0  0  0  0  0  0
   12.4989    6.2074   20.1776 C   0  0  0  0  0  0  0  0  0  0  0  0
    6.9192    9.1053   20.9073 O   0  0  0  0  0  0  0  0  0  0  0  0
   14.3979    6.0729   18.7784 C   0  0  0  0  0  0  0  0  0  0  0  0
    8.6811    9.5354   16.9998 C   0  0  0  0  0  0  0  0  0  0  0  0
    9.2512    4.2713   13.7653 O   0  0  0  0  0  0  0  0  0  0  0  0
    9.6495    8.6317   16.8332 N   0  0  0  0  0  0  0  0  0  0  0  0
    6.2934    8.6988   23.1988 O   0  0  0  0  0  0  0  0  0  0  0  0
    7.9806    8.6543   20.5437 C   0  0  0  0  0  0  0  0  0  0  0  0
   13.7270    5.7144   19.8610 O   0  0  0  0  0  0  0  0  0  0  0  0
    8.3351    5.5235   15.4478 C   0  0  0  0  0  0  0  0  0  0  0  0
    8.7700    7.8434   21.3915 C   0  0  0  0  0  0  0  0  0  0  0  0
   11.7856    6.8851   19.2401 C   0  0  0  0  0  0  0  0  0  0  0  0
   10.5281    7.4276   19.5649 C   0  0  0  0  0  0  0  0  0  0  0  0
   10.0256    7.2907   20.8484 C   0  0  0  0  0  0  0  0  0  0  0  0
    9.3113    5.3049   14.4911 C   0  0  0  0  0  0  0  0  0  0  0  0
    9.4607    7.5646   16.0139 C   0  0  0  0  0  0  0  0  0  0  0  0
   10.4192    7.3157   15.0955 C   0  0  0  0  0  0  0  0  0  0  0  0
   10.2489    6.4227   23.0218 N   0  0  0  0  0  0  0  0  0  0  0  0
    7.2472    8.0746   23.5050 C   0  0  0  0  0  0  0  0  0  0  0  0
    9.2051    6.9101   23.4604 C   0  0  0  0  0  0  0  0  0  0  0  0
   11.9646    6.0299   21.4251 C   0  0  0  0  0  0  0  0  0  0  0  0
  1  5  1  0
  1 13  1  0
  2 20  2  0
  2 28  1  0
  2 29  1  0
  3 19  4  0
  3 25  4  0
  4 23  4  0
  4 27  1  0
  4 30  4  0
  5 17  1  0
  6  8  1  0
  6 29  1  0
  7 24  4  0
  7 26  4  0
  8 28  1  0
  9 13  2  0
 10 18  1  0
 10 21  4  0
 10 30  4  0
 11 17  2  0
 12 18  1  0
 13 15  1  0
 14 24  1  0
 15 25  1  0
 16 28  2  0
 17 20  1  0
 19 24  4  0
 20 23  1  0
 21 22  4  0
 22 23  4  0
 25 26  4  0
 27 29  2  0
M  END
$$$$

 Created by Python create_sdf_string function

 30 33  0  0  0  0  0  0  0  0999 V2000
    8.3036    9.8571   18.4133 C   0  0  0  0  0  0  0  0  0  0  0  0
    8.3694    7.6612   22.6703 C   0  0  0  0  0  0  0  0  0  0  0  0
    8.4143    6.6863   16.2273 C   0  0  0  0  0  0  0  0  0  0  0  0
   10.7581    6.5674   21.7636 C   0  0  0  0  0  0  0  0  0  0  0  0
    8.4452    8.7960   19.2958 O   0  0  0  0  0  0  0  0  0  0  0  0
    8.7122    6.7842   24.8569 C   0  0  0  0  0  0  0  0  0  0  0  0
   10.3400    6.1726   14.3081 C   0  0  0  0  0  0  0  0  0  0  0  0
    7.4297    7.5873   24.8962 C   0  0  0  0  0  0  0  0  0  0  0  0
    8.1566   10.0536   16.0516 O   0  0  0  0  0  0  0  0  0  0  0  0
   12.4989    6.2074   20.1776 C   0  0  0  0  0  0  0  0  0  0  0  0
    6.9192    9.1053   20.9073 O   0  0  0  0  0  0  0  0  0  0  0  0
   14.3979    6.0729   18.7784 C   0  0  0  0  0  0  0  0  0  0  0  0
    8.6811    9.5354   16.9998 C   0  0  0  0  0  0  0  0  0  0  0  0
    9.2512    4.2713   13.7653 O   0  0  0  0  0  0  0  0  0  0  0  0
    9.6495    8.6317   16.8332 N   0  0  0  0  0  0  0  0  0  0  0  0
    6.2934    8.6988   23.1988 O   0  0  0  0  0  0  0  0  0  0  0  0
    7.9806    8.6543   20.5437 C   0  0  0  0  0  0  0  0  0  0  0  0
   13.7270    5.7144   19.8610 O   0  0  0  0  0  0  0  0  0  0  0  0
    8.3351    5.5235   15.4478 C   0  0  0  0  0  0  0  0  0  0  0  0
    8.7700    7.8434   21.3915 C   0  0  0  0  0  0  0  0  0  0  0  0
   11.7856    6.8851   19.2401 C   0  0  0  0  0  0  0  0  0  0  0  0
   10.5281    7.4276   19.5649 C   0  0  0  0  0  0  0  0  0  0  0  0
   10.0256    7.2907   20.8484 C   0  0  0  0  0  0  0  0  0  0  0  0
    9.3113    5.3049   14.4911 C   0  0  0  0  0  0  0  0  0  0  0  0
    9.4607    7.5646   16.0139 C   0  0  0  0  0  0  0  0  0  0  0  0
   10.4192    7.3157   15.0955 C   0  0  0  0  0  0  0  0  0  0  0  0
   10.2489    6.4227   23.0218 N   0  0  0  0  0  0  0  0  0  0  0  0
    7.2472    8.0746   23.5050 C   0  0  0  0  0  0  0  0  0  0  0  0
    9.2051    6.9101   23.4604 C   0  0  0  0  0  0  0  0  0  0  0  0
   11.9646    6.0299   21.4251 C   0  0  0  0  0  0  0  0  0  0  0  0
  1  5  1  0
  1 13  1  0
  2 20  2  0
  2 28  1  0
  2 29  1  0
  3 19  4  0
  3 25  4  0
  4 23  4  0
  4 27  1  0
  4 30  4  0
  5 17  1  0
  6  8  1  0
  6 29  1  0
  7 24  4  0
  7 26  4  0
  8 28  1  0
  9 13  2  0
 10 18  1  0
 10 21  4  0
 10 30  4  0
 11 17  2  0
 12 18  1  0
 13 15  1  0
 14 24  1  0
 15 25  1  0
 16 28  2  0
 17 20  1  0
 19 24  4  0
 20 23  1  0
 21 22  4  0
 22 23  4  0
 25 26  4  0
 27 29  2  0
M  END
$$$$

 Created by Python create_sdf_string function

 30 33  0  0  0  0  0  0  0  0999 V2000
    8.3036    9.8571   18.4133 C   0  0  0  0  0  0  0  0  0  0  0  0
    8.3694    7.6612   22.6703 C   0  0  0  0  0  0  0  0  0  0  0  0
    8.4143    6.6863   16.2273 C   0  0  0  0  0  0  0  0  0  0  0  0
   10.7581    6.5674   21.7636 C   0  0  0  0  0  0  0  0  0  0  0  0
    8.4452    8.7960   19.2958 O   0  0  0  0  0  0  0  0  0  0  0  0
    8.7122    6.7842   24.8569 C   0  0  0  0  0  0  0  0  0  0  0  0
   10.3400    6.1726   14.3081 C   0  0  0  0  0  0  0  0  0  0  0  0
    7.4297    7.5873   24.8962 C   0  0  0  0  0  0  0  0  0  0  0  0
    8.1566   10.0536   16.0516 O   0  0  0  0  0  0  0  0  0  0  0  0
   12.4989    6.2074   20.1776 C   0  0  0  0  0  0  0  0  0  0  0  0
    6.9192    9.1053   20.9073 O   0  0  0  0  0  0  0  0  0  0  0  0
   14.3979    6.0729   18.7784 C   0  0  0  0  0  0  0  0  0  0  0  0
    8.6811    9.5354   16.9998 C   0  0  0  0  0  0  0  0  0  0  0  0
    9.2512    4.2713   13.7653 O   0  0  0  0  0  0  0  0  0  0  0  0
    9.6495    8.6317   16.8332 N   0  0  0  0  0  0  0  0  0  0  0  0
    6.2934    8.6988   23.1988 O   0  0  0  0  0  0  0  0  0  0  0  0
    7.9806    8.6543   20.5437 C   0  0  0  0  0  0  0  0  0  0  0  0
   13.7270    5.7144   19.8610 O   0  0  0  0  0  0  0  0  0  0  0  0
    8.3351    5.5235   15.4478 C   0  0  0  0  0  0  0  0  0  0  0  0
    8.7700    7.8434   21.3915 C   0  0  0  0  0  0  0  0  0  0  0  0
   11.7856    6.8851   19.2401 C   0  0  0  0  0  0  0  0  0  0  0  0
   10.5281    7.4276   19.5649 C   0  0  0  0  0  0  0  0  0  0  0  0
   10.0256    7.2907   20.8484 C   0  0  0  0  0  0  0  0  0  0  0  0
    9.3113    5.3049   14.4911 C   0  0  0  0  0  0  0  0  0  0  0  0
    9.4607    7.5646   16.0139 C   0  0  0  0  0  0  0  0  0  0  0  0
   10.4192    7.3157   15.0955 C   0  0  0  0  0  0  0  0  0  0  0  0
   10.2489    6.4227   23.0218 N   0  0  0  0  0  0  0  0  0  0  0  0
    7.2472    8.0746   23.5050 C   0  0  0  0  0  0  0  0  0  0  0  0
    9.2051    6.9101   23.4604 C   0  0  0  0  0  0  0  0  0  0  0  0
   11.9646    6.0299   21.4251 C   0  0  0  0  0  0  0  0  0  0  0  0
  1  5  1  0
  1 13  1  0
  2 20  2  0
  2 28  1  0
  2 29  1  0
  3 19  4  0
  3 25  4  0
  4 23  4  0
  4 27  1  0
  4 30  4  0
  5 17  1  0
  6  8  1  0
  6 29  1  0
  7 24  4  0
  7 26  4  0
  8 28  1  0
  9 13  2  0
 10 18  1  0
 10 21  4  0
 10 30  4  0
 11 17  2  0
 12 18  1  0
 13 15  1  0
 14 24  1  0
 15 25  1  0
 16 28  2  0
 17 20  1  0
 19 24  4  0
 20 23  1  0
 21 22  4  0
 22 23  4  0
 25 26  4  0
 27 29  2  0
M  END
$$$$

 Created by Python create_sdf_string function

 30 33  0  0  0  0  0  0  0  0999 V2000
    8.3036    9.8571   18.4133 C   0  0  0  0  0  0  0  0  0  0  0  0
    8.3694    7.6612   22.6703 C   0  0  0  0  0  0  0  0  0  0  0  0
    8.4143    6.6863   16.2273 C   0  0  0  0  0  0  0  0  0  0  0  0
   10.7581    6.5674   21.7636 C   0  0  0  0  0  0  0  0  0  0  0  0
    8.4452    8.7960   19.2958 O   0  0  0  0  0  0  0  0  0  0  0  0
    8.7122    6.7842   24.8569 C   0  0  0  0  0  0  0  0  0  0  0  0
   10.3400    6.1726   14.3081 C   0  0  0  0  0  0  0  0  0  0  0  0
    7.4297    7.5873   24.8962 C   0  0  0  0  0  0  0  0  0  0  0  0
    8.1566   10.0536   16.0516 O   0  0  0  0  0  0  0  0  0  0  0  0
   12.4989    6.2074   20.1776 C   0  0  0  0  0  0  0  0  0  0  0  0
    6.9192    9.1053   20.9073 O   0  0  0  0  0  0  0  0  0  0  0  0
   14.3979    6.0729   18.7784 C   0  0  0  0  0  0  0  0  0  0  0  0
    8.6811    9.5354   16.9998 C   0  0  0  0  0  0  0  0  0  0  0  0
    9.2512    4.2713   13.7653 O   0  0  0  0  0  0  0  0  0  0  0  0
    9.6495    8.6317   16.8332 N   0  0  0  0  0  0  0  0  0  0  0  0
    6.2934    8.6988   23.1988 O   0  0  0  0  0  0  0  0  0  0  0  0
    7.9806    8.6543   20.5437 C   0  0  0  0  0  0  0  0  0  0  0  0
   13.7270    5.7144   19.8610 O   0  0  0  0  0  0  0  0  0  0  0  0
    8.3351    5.5235   15.4478 C   0  0  0  0  0  0  0  0  0  0  0  0
    8.7700    7.8434   21.3915 C   0  0  0  0  0  0  0  0  0  0  0  0
   11.7856    6.8851   19.2401 C   0  0  0  0  0  0  0  0  0  0  0  0
   10.5281    7.4276   19.5649 C   0  0  0  0  0  0  0  0  0  0  0  0
   10.0256    7.2907   20.8484 C   0  0  0  0  0  0  0  0  0  0  0  0
    9.3113    5.3049   14.4911 C   0  0  0  0  0  0  0  0  0  0  0  0
    9.4607    7.5646   16.0139 C   0  0  0  0  0  0  0  0  0  0  0  0
   10.4192    7.3157   15.0955 C   0  0  0  0  0  0  0  0  0  0  0  0
   10.2489    6.4227   23.0218 N   0  0  0  0  0  0  0  0  0  0  0  0
    7.2472    8.0746   23.5050 C   0  0  0  0  0  0  0  0  0  0  0  0
    9.2051    6.9101   23.4604 C   0  0  0  0  0  0  0  0  0  0  0  0
   11.9646    6.0299   21.4251 C   0  0  0  0  0  0  0  0  0  0  0  0
  1  5  1  0
  1 13  1  0
  2 20  2  0
  2 28  1  0
  2 29  1  0
  3 19  4  0
  3 25  4  0
  4 23  4  0
  4 27  1  0
  4 30  4  0
  5 17  1  0
  6  8  1  0
  6 29  1  0
  7 24  4  0
  7 26  4  0
  8 28  1  0
  9 13  2  0
 10 18  1  0
 10 21  4  0
 10 30  4  0
 11 17  2  0
 12 18  1  0
 13 15  1  0
 14 24  1  0
 15 25  1  0
 16 28  2  0
 17 20  1  0
 19 24  4  0
 20 23  1  0
 21 22  4  0
 22 23  4  0
 25 26  4  0
 27 29  2  0
M  END
$$$$

 Created by Python create_sdf_string function

 30 33  0  0  0  0  0  0  0  0999 V2000
    8.3036    9.8571   18.4133 C   0  0  0  0  0  0  0  0  0  0  0  0
    8.3694    7.6612   22.6703 C   0  0  0  0  0  0  0  0  0  0  0  0
    8.4143    6.6863   16.2273 C   0  0  0  0  0  0  0  0  0  0  0  0
   10.7581    6.5674   21.7636 C   0  0  0  0  0  0  0  0  0  0  0  0
    8.4452    8.7960   19.2958 O   0  0  0  0  0  0  0  0  0  0  0  0
    8.7122    6.7842   24.8569 C   0  0  0  0  0  0  0  0  0  0  0  0
   10.3400    6.1726   14.3081 C   0  0  0  0  0  0  0  0  0  0  0  0
    7.4297    7.5873   24.8962 C   0  0  0  0  0  0  0  0  0  0  0  0
    8.1566   10.0536   16.0516 O   0  0  0  0  0  0  0  0  0  0  0  0
   12.4989    6.2074   20.1776 C   0  0  0  0  0  0  0  0  0  0  0  0
    6.9192    9.1053   20.9073 O   0  0  0  0  0  0  0  0  0  0  0  0
   14.3979    6.0729   18.7784 C   0  0  0  0  0  0  0  0  0  0  0  0
    8.6811    9.5354   16.9998 C   0  0  0  0  0  0  0  0  0  0  0  0
    9.2512    4.2713   13.7653 O   0  0  0  0  0  0  0  0  0  0  0  0
    9.6495    8.6317   16.8332 N   0  0  0  0  0  0  0  0  0  0  0  0
    6.2934    8.6988   23.1988 O   0  0  0  0  0  0  0  0  0  0  0  0
    7.9806    8.6543   20.5437 C   0  0  0  0  0  0  0  0  0  0  0  0
   13.7270    5.7144   19.8610 O   0  0  0  0  0  0  0  0  0  0  0  0
    8.3351    5.5235   15.4478 C   0  0  0  0  0  0  0  0  0  0  0  0
    8.7700    7.8434   21.3915 C   0  0  0  0  0  0  0  0  0  0  0  0
   11.7856    6.8851   19.2401 C   0  0  0  0  0  0  0  0  0  0  0  0
   10.5281    7.4276   19.5649 C   0  0  0  0  0  0  0  0  0  0  0  0
   10.0256    7.2907   20.8484 C   0  0  0  0  0  0  0  0  0  0  0  0
    9.3113    5.3049   14.4911 C   0  0  0  0  0  0  0  0  0  0  0  0
    9.4607    7.5646   16.0139 C   0  0  0  0  0  0  0  0  0  0  0  0
   10.4192    7.3157   15.0955 C   0  0  0  0  0  0  0  0  0  0  0  0
   10.2489    6.4227   23.0218 N   0  0  0  0  0  0  0  0  0  0  0  0
    7.2472    8.0746   23.5050 C   0  0  0  0  0  0  0  0  0  0  0  0
    9.2051    6.9101   23.4604 C   0  0  0  0  0  0  0  0  0  0  0  0
   11.9646    6.0299   21.4251 C   0  0  0  0  0  0  0  0  0  0  0  0
  1  5  1  0
  1 13  1  0
  2 20  2  0
  2 28  1  0
  2 29  1  0
  3 19  4  0
  3 25  4  0
  4 23  4  0
  4 27  1  0
  4 30  4  0
  5 17  1  0
  6  8  1  0
  6 29  1  0
  7 24  4  0
  7 26  4  0
  8 28  1  0
  9 13  2  0
 10 18  1  0
 10 21  4  0
 10 30  4  0
 11 17  2  0
 12 18  1  0
 13 15  1  0
 14 24  1  0
 15 25  1  0
 16 28  2  0
 17 20  1  0
 19 24  4  0
 20 23  1  0
 21 22  4  0
 22 23  4  0
 25 26  4  0
 27 29  2  0
M  END
$$$$

 Created by Python create_sdf_string function

 30 33  0  0  0  0  0  0  0  0999 V2000
    8.3036    9.8571   18.4133 C   0  0  0  0  0  0  0  0  0  0  0  0
    8.3694    7.6612   22.6703 C   0  0  0  0  0  0  0  0  0  0  0  0
    8.4143    6.6863   16.2273 C   0  0  0  0  0  0  0  0  0  0  0  0
   10.7581    6.5674   21.7636 C   0  0  0  0  0  0  0  0  0  0  0  0
    8.4452    8.7960   19.2958 O   0  0  0  0  0  0  0  0  0  0  0  0
    8.7122    6.7842   24.8569 C   0  0  0  0  0  0  0  0  0  0  0  0
   10.3400    6.1726   14.3081 C   0  0  0  0  0  0  0  0  0  0  0  0
    7.4297    7.5873   24.8962 C   0  0  0  0  0  0  0  0  0  0  0  0
    8.1566   10.0536   16.0516 O   0  0  0  0  0  0  0  0  0  0  0  0
   12.4989    6.2074   20.1776 C   0  0  0  0  0  0  0  0  0  0  0  0
    6.9192    9.1053   20.9073 O   0  0  0  0  0  0  0  0  0  0  0  0
   14.3979    6.0729   18.7784 C   0  0  0  0  0  0  0  0  0  0  0  0
    8.6811    9.5354   16.9998 C   0  0  0  0  0  0  0  0  0  0  0  0
    9.2512    4.2713   13.7653 O   0  0  0  0  0  0  0  0  0  0  0  0
    9.6495    8.6317   16.8332 N   0  0  0  0  0  0  0  0  0  0  0  0
    6.2934    8.6988   23.1988 O   0  0  0  0  0  0  0  0  0  0  0  0
    7.9806    8.6543   20.5437 C   0  0  0  0  0  0  0  0  0  0  0  0
   13.7270    5.7144   19.8610 O   0  0  0  0  0  0  0  0  0  0  0  0
    8.3351    5.5235   15.4478 C   0  0  0  0  0  0  0  0  0  0  0  0
    8.7700    7.8434   21.3915 C   0  0  0  0  0  0  0  0  0  0  0  0
   11.7856    6.8851   19.2401 C   0  0  0  0  0  0  0  0  0  0  0  0
   10.5281    7.4276   19.5649 C   0  0  0  0  0  0  0  0  0  0  0  0
   10.0256    7.2907   20.8484 C   0  0  0  0  0  0  0  0  0  0  0  0
    9.3113    5.3049   14.4911 C   0  0  0  0  0  0  0  0  0  0  0  0
    9.4607    7.5646   16.0139 C   0  0  0  0  0  0  0  0  0  0  0  0
   10.4192    7.3157   15.0955 C   0  0  0  0  0  0  0  0  0  0  0  0
   10.2489    6.4227   23.0218 N   0  0  0  0  0  0  0  0  0  0  0  0
    7.2472    8.0746   23.5050 C   0  0  0  0  0  0  0  0  0  0  0  0
    9.2051    6.9101   23.4604 C   0  0  0  0  0  0  0  0  0  0  0  0
   11.9646    6.0299   21.4251 C   0  0  0  0  0  0  0  0  0  0  0  0
  1  5  1  0
  1 13  1  0
  2 20  2  0
  2 28  1  0
  2 29  1  0
  3 19  4  0
  3 25  4  0
  4 23  4  0
  4 27  1  0
  4 30  4  0
  5 17  1  0
  6  8  1  0
  6 29  1  0
  7 24  4  0
  7 26  4  0
  8 28  1  0
  9 13  2  0
 10 18  1  0
 10 21  4  0
 10 30  4  0
 11 17  2  0
 12 18  1  0
 13 15  1  0
 14 24  1  0
 15 25  1  0
 16 28  2  0
 17 20  1  0
 19 24  4  0
 20 23  1  0
 21 22  4  0
 22 23  4  0
 25 26  4  0
 27 29  2  0
M  END
$$$$

 Created by Python create_sdf_string function

 30 33  0  0  0  0  0  0  0  0999 V2000
    8.3036    9.8571   18.4133 C   0  0  0  0  0  0  0  0  0  0  0  0
    8.3694    7.6612   22.6703 C   0  0  0  0  0  0  0  0  0  0  0  0
    8.4143    6.6863   16.2273 C   0  0  0  0  0  0  0  0  0  0  0  0
   10.7581    6.5674   21.7636 C   0  0  0  0  0  0  0  0  0  0  0  0
    8.4452    8.7960   19.2958 O   0  0  0  0  0  0  0  0  0  0  0  0
    8.7122    6.7842   24.8569 C   0  0  0  0  0  0  0  0  0  0  0  0
   10.3400    6.1726   14.3081 C   0  0  0  0  0  0  0  0  0  0  0  0
    7.4297    7.5873   24.8962 C   0  0  0  0  0  0  0  0  0  0  0  0
    8.1566   10.0536   16.0516 O   0  0  0  0  0  0  0  0  0  0  0  0
   12.4989    6.2074   20.1776 C   0  0  0  0  0  0  0  0  0  0  0  0
    6.9192    9.1053   20.9073 O   0  0  0  0  0  0  0  0  0  0  0  0
   14.3979    6.0729   18.7784 C   0  0  0  0  0  0  0  0  0  0  0  0
    8.6811    9.5354   16.9998 C   0  0  0  0  0  0  0  0  0  0  0  0
    9.2512    4.2713   13.7653 O   0  0  0  0  0  0  0  0  0  0  0  0
    9.6495    8.6317   16.8332 N   0  0  0  0  0  0  0  0  0  0  0  0
    6.2934    8.6988   23.1988 O   0  0  0  0  0  0  0  0  0  0  0  0
    7.9806    8.6543   20.5437 C   0  0  0  0  0  0  0  0  0  0  0  0
   13.7270    5.7144   19.8610 O   0  0  0  0  0  0  0  0  0  0  0  0
    8.3351    5.5235   15.4478 C   0  0  0  0  0  0  0  0  0  0  0  0
    8.7700    7.8434   21.3915 C   0  0  0  0  0  0  0  0  0  0  0  0
   11.7856    6.8851   19.2401 C   0  0  0  0  0  0  0  0  0  0  0  0
   10.5281    7.4276   19.5649 C   0  0  0  0  0  0  0  0  0  0  0  0
   10.0256    7.2907   20.8484 C   0  0  0  0  0  0  0  0  0  0  0  0
    9.3113    5.3049   14.4911 C   0  0  0  0  0  0  0  0  0  0  0  0
    9.4607    7.5646   16.0139 C   0  0  0  0  0  0  0  0  0  0  0  0
   10.4192    7.3157   15.0955 C   0  0  0  0  0  0  0  0  0  0  0  0
   10.2489    6.4227   23.0218 N   0  0  0  0  0  0  0  0  0  0  0  0
    7.2472    8.0746   23.5050 C   0  0  0  0  0  0  0  0  0  0  0  0
    9.2051    6.9101   23.4604 C   0  0  0  0  0  0  0  0  0  0  0  0
   11.9646    6.0299   21.4251 C   0  0  0  0  0  0  0  0  0  0  0  0
  1  5  1  0
  1 13  1  0
  2 20  2  0
  2 28  1  0
  2 29  1  0
  3 19  4  0
  3 25  4  0
  4 23  4  0
  4 27  1  0
  4 30  4  0
  5 17  1  0
  6  8  1  0
  6 29  1  0
  7 24  4  0
  7 26  4  0
  8 28  1  0
  9 13  2  0
 10 18  1  0
 10 21  4  0
 10 30  4  0
 11 17  2  0
 12 18  1  0
 13 15  1  0
 14 24  1  0
 15 25  1  0
 16 28  2  0
 17 20  1  0
 19 24  4  0
 20 23  1  0
 21 22  4  0
 22 23  4  0
 25 26  4  0
 27 29  2  0
M  END
$$$$

 Created by Python create_sdf_string function

 30 33  0  0  0  0  0  0  0  0999 V2000
    8.3036    9.8571   18.4133 C   0  0  0  0  0  0  0  0  0  0  0  0
    8.3694    7.6612   22.6703 C   0  0  0  0  0  0  0  0  0  0  0  0
    8.4143    6.6863   16.2273 C   0  0  0  0  0  0  0  0  0  0  0  0
   10.7581    6.5674   21.7636 C   0  0  0  0  0  0  0  0  0  0  0  0
    8.4452    8.7960   19.2958 O   0  0  0  0  0  0  0  0  0  0  0  0
    8.7122    6.7842   24.8569 C   0  0  0  0  0  0  0  0  0  0  0  0
   10.3400    6.1726   14.3081 C   0  0  0  0  0  0  0  0  0  0  0  0
    7.4297    7.5873   24.8962 C   0  0  0  0  0  0  0  0  0  0  0  0
    8.1566   10.0536   16.0516 O   0  0  0  0  0  0  0  0  0  0  0  0
   12.4989    6.2074   20.1776 C   0  0  0  0  0  0  0  0  0  0  0  0
    6.9192    9.1053   20.9073 O   0  0  0  0  0  0  0  0  0  0  0  0
   14.3979    6.0729   18.7784 C   0  0  0  0  0  0  0  0  0  0  0  0
    8.6811    9.5354   16.9998 C   0  0  0  0  0  0  0  0  0  0  0  0
    9.2512    4.2713   13.7653 O   0  0  0  0  0  0  0  0  0  0  0  0
    9.6495    8.6317   16.8332 N   0  0  0  0  0  0  0  0  0  0  0  0
    6.2934    8.6988   23.1988 O   0  0  0  0  0  0  0  0  0  0  0  0
    7.9806    8.6543   20.5437 C   0  0  0  0  0  0  0  0  0  0  0  0
   13.7270    5.7144   19.8610 O   0  0  0  0  0  0  0  0  0  0  0  0
    8.3351    5.5235   15.4478 C   0  0  0  0  0  0  0  0  0  0  0  0
    8.7700    7.8434   21.3915 C   0  0  0  0  0  0  0  0  0  0  0  0
   11.7856    6.8851   19.2401 C   0  0  0  0  0  0  0  0  0  0  0  0
   10.5281    7.4276   19.5649 C   0  0  0  0  0  0  0  0  0  0  0  0
   10.0256    7.2907   20.8484 C   0  0  0  0  0  0  0  0  0  0  0  0
    9.3113    5.3049   14.4911 C   0  0  0  0  0  0  0  0  0  0  0  0
    9.4607    7.5646   16.0139 C   0  0  0  0  0  0  0  0  0  0  0  0
   10.4192    7.3157   15.0955 C   0  0  0  0  0  0  0  0  0  0  0  0
   10.2489    6.4227   23.0218 N   0  0  0  0  0  0  0  0  0  0  0  0
    7.2472    8.0746   23.5050 C   0  0  0  0  0  0  0  0  0  0  0  0
    9.2051    6.9101   23.4604 C   0  0  0  0  0  0  0  0  0  0  0  0
   11.9646    6.0299   21.4251 C   0  0  0  0  0  0  0  0  0  0  0  0
  1  5  1  0
  1 13  1  0
  2 20  2  0
  2 28  1  0
  2 29  1  0
  3 19  4  0
  3 25  4  0
  4 23  4  0
  4 27  1  0
  4 30  4  0
  5 17  1  0
  6  8  1  0
  6 29  1  0
  7 24  4  0
  7 26  4  0
  8 28  1  0
  9 13  2  0
 10 18  1  0
 10 21  4  0
 10 30  4  0
 11 17  2  0
 12 18  1  0
 13 15  1  0
 14 24  1  0
 15 25  1  0
 16 28  2  0
 17 20  1  0
 19 24  4  0
 20 23  1  0
 21 22  4  0
 22 23  4  0
 25 26  4  0
 27 29  2  0
M  END
$$$$

 Created by Python create_sdf_string function

 30 33  0  0  0  0  0  0  0  0999 V2000
    8.3036    9.8571   18.4133 C   0  0  0  0  0  0  0  0  0  0  0  0
    8.3694    7.6612   22.6703 C   0  0  0  0  0  0  0  0  0  0  0  0
    8.4143    6.6863   16.2273 C   0  0  0  0  0  0  0  0  0  0  0  0
   10.7581    6.5674   21.7636 C   0  0  0  0  0  0  0  0  0  0  0  0
    8.4452    8.7960   19.2958 O   0  0  0  0  0  0  0  0  0  0  0  0
    8.7122    6.7842   24.8569 C   0  0  0  0  0  0  0  0  0  0  0  0
   10.3400    6.1726   14.3081 C   0  0  0  0  0  0  0  0  0  0  0  0
    7.4297    7.5873   24.8962 C   0  0  0  0  0  0  0  0  0  0  0  0
    8.1566   10.0536   16.0516 O   0  0  0  0  0  0  0  0  0  0  0  0
   12.4989    6.2074   20.1776 C   0  0  0  0  0  0  0  0  0  0  0  0
    6.9192    9.1053   20.9073 O   0  0  0  0  0  0  0  0  0  0  0  0
   14.3979    6.0729   18.7784 C   0  0  0  0  0  0  0  0  0  0  0  0
    8.6811    9.5354   16.9998 C   0  0  0  0  0  0  0  0  0  0  0  0
    9.2512    4.2713   13.7653 O   0  0  0  0  0  0  0  0  0  0  0  0
    9.6495    8.6317   16.8332 N   0  0  0  0  0  0  0  0  0  0  0  0
    6.2934    8.6988   23.1988 O   0  0  0  0  0  0  0  0  0  0  0  0
    7.9806    8.6543   20.5437 C   0  0  0  0  0  0  0  0  0  0  0  0
   13.7270    5.7144   19.8610 O   0  0  0  0  0  0  0  0  0  0  0  0
    8.3351    5.5235   15.4478 C   0  0  0  0  0  0  0  0  0  0  0  0
    8.7700    7.8434   21.3915 C   0  0  0  0  0  0  0  0  0  0  0  0
   11.7856    6.8851   19.2401 C   0  0  0  0  0  0  0  0  0  0  0  0
   10.5281    7.4276   19.5649 C   0  0  0  0  0  0  0  0  0  0  0  0
   10.0256    7.2907   20.8484 C   0  0  0  0  0  0  0  0  0  0  0  0
    9.3113    5.3049   14.4911 C   0  0  0  0  0  0  0  0  0  0  0  0
    9.4607    7.5646   16.0139 C   0  0  0  0  0  0  0  0  0  0  0  0
   10.4192    7.3157   15.0955 C   0  0  0  0  0  0  0  0  0  0  0  0
   10.2489    6.4227   23.0218 N   0  0  0  0  0  0  0  0  0  0  0  0
    7.2472    8.0746   23.5050 C   0  0  0  0  0  0  0  0  0  0  0  0
    9.2051    6.9101   23.4604 C   0  0  0  0  0  0  0  0  0  0  0  0
   11.9646    6.0299   21.4251 C   0  0  0  0  0  0  0  0  0  0  0  0
  1  5  1  0
  1 13  1  0
  2 20  2  0
  2 28  1  0
  2 29  1  0
  3 19  4  0
  3 25  4  0
  4 23  4  0
  4 27  1  0
  4 30  4  0
  5 17  1  0
  6  8  1  0
  6 29  1  0
  7 24  4  0
  7 26  4  0
  8 28  1  0
  9 13  2  0
 10 18  1  0
 10 21  4  0
 10 30  4  0
 11 17  2  0
 12 18  1  0
 13 15  1  0
 14 24  1  0
 15 25  1  0
 16 28  2  0
 17 20  1  0
 19 24  4  0
 20 23  1  0
 21 22  4  0
 22 23  4  0
 25 26  4  0
 27 29  2  0
M  END
$$$$

 Created by Python create_sdf_string function

 30 33  0  0  0  0  0  0  0  0999 V2000
    8.3036    9.8571   18.4133 C   0  0  0  0  0  0  0  0  0  0  0  0
    8.3694    7.6612   22.6703 C   0  0  0  0  0  0  0  0  0  0  0  0
    8.4143    6.6863   16.2273 C   0  0  0  0  0  0  0  0  0  0  0  0
   10.7581    6.5674   21.7636 C   0  0  0  0  0  0  0  0  0  0  0  0
    8.4452    8.7960   19.2958 O   0  0  0  0  0  0  0  0  0  0  0  0
    8.7122    6.7842   24.8569 C   0  0  0  0  0  0  0  0  0  0  0  0
   10.3400    6.1726   14.3081 C   0  0  0  0  0  0  0  0  0  0  0  0
    7.4297    7.5873   24.8962 C   0  0  0  0  0  0  0  0  0  0  0  0
    8.1566   10.0536   16.0516 O   0  0  0  0  0  0  0  0  0  0  0  0
   12.4989    6.2074   20.1776 C   0  0  0  0  0  0  0  0  0  0  0  0
    6.9192    9.1053   20.9073 O   0  0  0  0  0  0  0  0  0  0  0  0
   14.3979    6.0729   18.7784 C   0  0  0  0  0  0  0  0  0  0  0  0
    8.6811    9.5354   16.9998 C   0  0  0  0  0  0  0  0  0  0  0  0
    9.2512    4.2713   13.7653 O   0  0  0  0  0  0  0  0  0  0  0  0
    9.6495    8.6317   16.8332 N   0  0  0  0  0  0  0  0  0  0  0  0
    6.2934    8.6988   23.1988 O   0  0  0  0  0  0  0  0  0  0  0  0
    7.9806    8.6543   20.5437 C   0  0  0  0  0  0  0  0  0  0  0  0
   13.7270    5.7144   19.8610 O   0  0  0  0  0  0  0  0  0  0  0  0
    8.3351    5.5235   15.4478 C   0  0  0  0  0  0  0  0  0  0  0  0
    8.7700    7.8434   21.3915 C   0  0  0  0  0  0  0  0  0  0  0  0
   11.7856    6.8851   19.2401 C   0  0  0  0  0  0  0  0  0  0  0  0
   10.5281    7.4276   19.5649 C   0  0  0  0  0  0  0  0  0  0  0  0
   10.0256    7.2907   20.8484 C   0  0  0  0  0  0  0  0  0  0  0  0
    9.3113    5.3049   14.4911 C   0  0  0  0  0  0  0  0  0  0  0  0
    9.4607    7.5646   16.0139 C   0  0  0  0  0  0  0  0  0  0  0  0
   10.4192    7.3157   15.0955 C   0  0  0  0  0  0  0  0  0  0  0  0
   10.2489    6.4227   23.0218 N   0  0  0  0  0  0  0  0  0  0  0  0
    7.2472    8.0746   23.5050 C   0  0  0  0  0  0  0  0  0  0  0  0
    9.2051    6.9101   23.4604 C   0  0  0  0  0  0  0  0  0  0  0  0
   11.9646    6.0299   21.4251 C   0  0  0  0  0  0  0  0  0  0  0  0
  1  5  1  0
  1 13  1  0
  2 20  2  0
  2 28  1  0
  2 29  1  0
  3 19  4  0
  3 25  4  0
  4 23  4  0
  4 27  1  0
  4 30  4  0
  5 17  1  0
  6  8  1  0
  6 29  1  0
  7 24  4  0
  7 26  4  0
  8 28  1  0
  9 13  2  0
 10 18  1  0
 10 21  4  0
 10 30  4  0
 11 17  2  0
 12 18  1  0
 13 15  1  0
 14 24  1  0
 15 25  1  0
 16 28  2  0
 17 20  1  0
 19 24  4  0
 20 23  1  0
 21 22  4  0
 22 23  4  0
 25 26  4  0
 27 29  2  0
M  END
$$$$

 Created by Python create_sdf_string function

 30 33  0  0  0  0  0  0  0  0999 V2000
    8.3036    9.8571   18.4133 C   0  0  0  0  0  0  0  0  0  0  0  0
    8.3694    7.6612   22.6703 C   0  0  0  0  0  0  0  0  0  0  0  0
    8.4143    6.6863   16.2273 C   0  0  0  0  0  0  0  0  0  0  0  0
   10.7581    6.5674   21.7636 C   0  0  0  0  0  0  0  0  0  0  0  0
    8.4452    8.7960   19.2958 O   0  0  0  0  0  0  0  0  0  0  0  0
    8.7122    6.7842   24.8569 C   0  0  0  0  0  0  0  0  0  0  0  0
   10.3400    6.1726   14.3081 C   0  0  0  0  0  0  0  0  0  0  0  0
    7.4297    7.5873   24.8962 C   0  0  0  0  0  0  0  0  0  0  0  0
    8.1566   10.0536   16.0516 O   0  0  0  0  0  0  0  0  0  0  0  0
   12.4989    6.2074   20.1776 C   0  0  0  0  0  0  0  0  0  0  0  0
    6.9192    9.1053   20.9073 O   0  0  0  0  0  0  0  0  0  0  0  0
   14.3979    6.0729   18.7784 C   0  0  0  0  0  0  0  0  0  0  0  0
    8.6811    9.5354   16.9998 C   0  0  0  0  0  0  0  0  0  0  0  0
    9.2512    4.2713   13.7653 O   0  0  0  0  0  0  0  0  0  0  0  0
    9.6495    8.6317   16.8332 N   0  0  0  0  0  0  0  0  0  0  0  0
    6.2934    8.6988   23.1988 O   0  0  0  0  0  0  0  0  0  0  0  0
    7.9806    8.6543   20.5437 C   0  0  0  0  0  0  0  0  0  0  0  0
   13.7270    5.7144   19.8610 O   0  0  0  0  0  0  0  0  0  0  0  0
    8.3351    5.5235   15.4478 C   0  0  0  0  0  0  0  0  0  0  0  0
    8.7700    7.8434   21.3915 C   0  0  0  0  0  0  0  0  0  0  0  0
   11.7856    6.8851   19.2401 C   0  0  0  0  0  0  0  0  0  0  0  0
   10.5281    7.4276   19.5649 C   0  0  0  0  0  0  0  0  0  0  0  0
   10.0256    7.2907   20.8484 C   0  0  0  0  0  0  0  0  0  0  0  0
    9.3113    5.3049   14.4911 C   0  0  0  0  0  0  0  0  0  0  0  0
    9.4607    7.5646   16.0139 C   0  0  0  0  0  0  0  0  0  0  0  0
   10.4192    7.3157   15.0955 C   0  0  0  0  0  0  0  0  0  0  0  0
   10.2489    6.4227   23.0218 N   0  0  0  0  0  0  0  0  0  0  0  0
    7.2472    8.0746   23.5050 C   0  0  0  0  0  0  0  0  0  0  0  0
    9.2051    6.9101   23.4604 C   0  0  0  0  0  0  0  0  0  0  0  0
   11.9646    6.0299   21.4251 C   0  0  0  0  0  0  0  0  0  0  0  0
  1  5  1  0
  1 13  1  0
  2 20  2  0
  2 28  1  0
  2 29  1  0
  3 19  4  0
  3 25  4  0
  4 23  4  0
  4 27  1  0
  4 30  4  0
  5 17  1  0
  6  8  1  0
  6 29  1  0
  7 24  4  0
  7 26  4  0
  8 28  1  0
  9 13  2  0
 10 18  1  0
 10 21  4  0
 10 30  4  0
 11 17  2  0
 12 18  1  0
 13 15  1  0
 14 24  1  0
 15 25  1  0
 16 28  2  0
 17 20  1  0
 19 24  4  0
 20 23  1  0
 21 22  4  0
 22 23  4  0
 25 26  4  0
 27 29  2  0
M  END
$$$$

 Created by Python create_sdf_string function

 30 33  0  0  0  0  0  0  0  0999 V2000
    8.3036    9.8571   18.4133 C   0  0  0  0  0  0  0  0  0  0  0  0
    8.3694    7.6612   22.6703 C   0  0  0  0  0  0  0  0  0  0  0  0
    8.4143    6.6863   16.2273 C   0  0  0  0  0  0  0  0  0  0  0  0
   10.7581    6.5674   21.7636 C   0  0  0  0  0  0  0  0  0  0  0  0
    8.4452    8.7960   19.2958 O   0  0  0  0  0  0  0  0  0  0  0  0
    8.7122    6.7842   24.8569 C   0  0  0  0  0  0  0  0  0  0  0  0
   10.3400    6.1726   14.3081 C   0  0  0  0  0  0  0  0  0  0  0  0
    7.4297    7.5873   24.8962 C   0  0  0  0  0  0  0  0  0  0  0  0
    8.1566   10.0536   16.0516 O   0  0  0  0  0  0  0  0  0  0  0  0
   12.4989    6.2074   20.1776 C   0  0  0  0  0  0  0  0  0  0  0  0
    6.9192    9.1053   20.9073 O   0  0  0  0  0  0  0  0  0  0  0  0
   14.3979    6.0729   18.7784 C   0  0  0  0  0  0  0  0  0  0  0  0
    8.6811    9.5354   16.9998 C   0  0  0  0  0  0  0  0  0  0  0  0
    9.2512    4.2713   13.7653 O   0  0  0  0  0  0  0  0  0  0  0  0
    9.6495    8.6317   16.8332 N   0  0  0  0  0  0  0  0  0  0  0  0
    6.2934    8.6988   23.1988 O   0  0  0  0  0  0  0  0  0  0  0  0
    7.9806    8.6543   20.5437 C   0  0  0  0  0  0  0  0  0  0  0  0
   13.7270    5.7144   19.8610 O   0  0  0  0  0  0  0  0  0  0  0  0
    8.3351    5.5235   15.4478 C   0  0  0  0  0  0  0  0  0  0  0  0
    8.7700    7.8434   21.3915 C   0  0  0  0  0  0  0  0  0  0  0  0
   11.7856    6.8851   19.2401 C   0  0  0  0  0  0  0  0  0  0  0  0
   10.5281    7.4276   19.5649 C   0  0  0  0  0  0  0  0  0  0  0  0
   10.0256    7.2907   20.8484 C   0  0  0  0  0  0  0  0  0  0  0  0
    9.3113    5.3049   14.4911 C   0  0  0  0  0  0  0  0  0  0  0  0
    9.4607    7.5646   16.0139 C   0  0  0  0  0  0  0  0  0  0  0  0
   10.4192    7.3157   15.0955 C   0  0  0  0  0  0  0  0  0  0  0  0
   10.2489    6.4227   23.0218 N   0  0  0  0  0  0  0  0  0  0  0  0
    7.2472    8.0746   23.5050 C   0  0  0  0  0  0  0  0  0  0  0  0
    9.2051    6.9101   23.4604 C   0  0  0  0  0  0  0  0  0  0  0  0
   11.9646    6.0299   21.4251 C   0  0  0  0  0  0  0  0  0  0  0  0
  1  5  1  0
  1 13  1  0
  2 20  2  0
  2 28  1  0
  2 29  1  0
  3 19  4  0
  3 25  4  0
  4 23  4  0
  4 27  1  0
  4 30  4  0
  5 17  1  0
  6  8  1  0
  6 29  1  0
  7 24  4  0
  7 26  4  0
  8 28  1  0
  9 13  2  0
 10 18  1  0
 10 21  4  0
 10 30  4  0
 11 17  2  0
 12 18  1  0
 13 15  1  0
 14 24  1  0
 15 25  1  0
 16 28  2  0
 17 20  1  0
 19 24  4  0
 20 23  1  0
 21 22  4  0
 22 23  4  0
 25 26  4  0
 27 29  2  0
M  END
$$$$

 Created by Python create_sdf_string function

 30 33  0  0  0  0  0  0  0  0999 V2000
    8.3036    9.8571   18.4133 C   0  0  0  0  0  0  0  0  0  0  0  0
    8.3694    7.6612   22.6703 C   0  0  0  0  0  0  0  0  0  0  0  0
    8.4143    6.6863   16.2273 C   0  0  0  0  0  0  0  0  0  0  0  0
   10.7581    6.5674   21.7636 C   0  0  0  0  0  0  0  0  0  0  0  0
    8.4452    8.7960   19.2958 O   0  0  0  0  0  0  0  0  0  0  0  0
    8.7122    6.7842   24.8569 C   0  0  0  0  0  0  0  0  0  0  0  0
   10.3400    6.1726   14.3081 C   0  0  0  0  0  0  0  0  0  0  0  0
    7.4297    7.5873   24.8962 C   0  0  0  0  0  0  0  0  0  0  0  0
    8.1566   10.0536   16.0516 O   0  0  0  0  0  0  0  0  0  0  0  0
   12.4989    6.2074   20.1776 C   0  0  0  0  0  0  0  0  0  0  0  0
    6.9192    9.1053   20.9073 O   0  0  0  0  0  0  0  0  0  0  0  0
   14.3979    6.0729   18.7784 C   0  0  0  0  0  0  0  0  0  0  0  0
    8.6811    9.5354   16.9998 C   0  0  0  0  0  0  0  0  0  0  0  0
    9.2512    4.2713   13.7653 O   0  0  0  0  0  0  0  0  0  0  0  0
    9.6495    8.6317   16.8332 N   0  0  0  0  0  0  0  0  0  0  0  0
    6.2934    8.6988   23.1988 O   0  0  0  0  0  0  0  0  0  0  0  0
    7.9806    8.6543   20.5437 C   0  0  0  0  0  0  0  0  0  0  0  0
   13.7270    5.7144   19.8610 O   0  0  0  0  0  0  0  0  0  0  0  0
    8.3351    5.5235   15.4478 C   0  0  0  0  0  0  0  0  0  0  0  0
    8.7700    7.8434   21.3915 C   0  0  0  0  0  0  0  0  0  0  0  0
   11.7856    6.8851   19.2401 C   0  0  0  0  0  0  0  0  0  0  0  0
   10.5281    7.4276   19.5649 C   0  0  0  0  0  0  0  0  0  0  0  0
   10.0256    7.2907   20.8484 C   0  0  0  0  0  0  0  0  0  0  0  0
    9.3113    5.3049   14.4911 C   0  0  0  0  0  0  0  0  0  0  0  0
    9.4607    7.5646   16.0139 C   0  0  0  0  0  0  0  0  0  0  0  0
   10.4192    7.3157   15.0955 C   0  0  0  0  0  0  0  0  0  0  0  0
   10.2489    6.4227   23.0218 N   0  0  0  0  0  0  0  0  0  0  0  0
    7.2472    8.0746   23.5050 C   0  0  0  0  0  0  0  0  0  0  0  0
    9.2051    6.9101   23.4604 C   0  0  0  0  0  0  0  0  0  0  0  0
   11.9646    6.0299   21.4251 C   0  0  0  0  0  0  0  0  0  0  0  0
  1  5  1  0
  1 13  1  0
  2 20  2  0
  2 28  1  0
  2 29  1  0
  3 19  4  0
  3 25  4  0
  4 23  4  0
  4 27  1  0
  4 30  4  0
  5 17  1  0
  6  8  1  0
  6 29  1  0
  7 24  4  0
  7 26  4  0
  8 28  1  0
  9 13  2  0
 10 18  1  0
 10 21  4  0
 10 30  4  0
 11 17  2  0
 12 18  1  0
 13 15  1  0
 14 24  1  0
 15 25  1  0
 16 28  2  0
 17 20  1  0
 19 24  4  0
 20 23  1  0
 21 22  4  0
 22 23  4  0
 25 26  4  0
 27 29  2  0
M  END
$$$$

 Created by Python create_sdf_string function

 30 33  0  0  0  0  0  0  0  0999 V2000
    8.3036    9.8571   18.4133 C   0  0  0  0  0  0  0  0  0  0  0  0
    8.3694    7.6612   22.6703 C   0  0  0  0  0  0  0  0  0  0  0  0
    8.4143    6.6863   16.2273 C   0  0  0  0  0  0  0  0  0  0  0  0
   10.7581    6.5674   21.7636 C   0  0  0  0  0  0  0  0  0  0  0  0
    8.4452    8.7960   19.2958 O   0  0  0  0  0  0  0  0  0  0  0  0
    8.7122    6.7842   24.8569 C   0  0  0  0  0  0  0  0  0  0  0  0
   10.3400    6.1726   14.3081 C   0  0  0  0  0  0  0  0  0  0  0  0
    7.4297    7.5873   24.8962 C   0  0  0  0  0  0  0  0  0  0  0  0
    8.1566   10.0536   16.0516 O   0  0  0  0  0  0  0  0  0  0  0  0
   12.4989    6.2074   20.1776 C   0  0  0  0  0  0  0  0  0  0  0  0
    6.9192    9.1053   20.9073 O   0  0  0  0  0  0  0  0  0  0  0  0
   14.3979    6.0729   18.7784 C   0  0  0  0  0  0  0  0  0  0  0  0
    8.6811    9.5354   16.9998 C   0  0  0  0  0  0  0  0  0  0  0  0
    9.2512    4.2713   13.7653 O   0  0  0  0  0  0  0  0  0  0  0  0
    9.6495    8.6317   16.8332 N   0  0  0  0  0  0  0  0  0  0  0  0
    6.2934    8.6988   23.1988 O   0  0  0  0  0  0  0  0  0  0  0  0
    7.9806    8.6543   20.5437 C   0  0  0  0  0  0  0  0  0  0  0  0
   13.7270    5.7144   19.8610 O   0  0  0  0  0  0  0  0  0  0  0  0
    8.3351    5.5235   15.4478 C   0  0  0  0  0  0  0  0  0  0  0  0
    8.7700    7.8434   21.3915 C   0  0  0  0  0  0  0  0  0  0  0  0
   11.7856    6.8851   19.2401 C   0  0  0  0  0  0  0  0  0  0  0  0
   10.5281    7.4276   19.5649 C   0  0  0  0  0  0  0  0  0  0  0  0
   10.0256    7.2907   20.8484 C   0  0  0  0  0  0  0  0  0  0  0  0
    9.3113    5.3049   14.4911 C   0  0  0  0  0  0  0  0  0  0  0  0
    9.4607    7.5646   16.0139 C   0  0  0  0  0  0  0  0  0  0  0  0
   10.4192    7.3157   15.0955 C   0  0  0  0  0  0  0  0  0  0  0  0
   10.2489    6.4227   23.0218 N   0  0  0  0  0  0  0  0  0  0  0  0
    7.2472    8.0746   23.5050 C   0  0  0  0  0  0  0  0  0  0  0  0
    9.2051    6.9101   23.4604 C   0  0  0  0  0  0  0  0  0  0  0  0
   11.9646    6.0299   21.4251 C   0  0  0  0  0  0  0  0  0  0  0  0
  1  5  1  0
  1 13  1  0
  2 20  2  0
  2 28  1  0
  2 29  1  0
  3 19  4  0
  3 25  4  0
  4 23  4  0
  4 27  1  0
  4 30  4  0
  5 17  1  0
  6  8  1  0
  6 29  1  0
  7 24  4  0
  7 26  4  0
  8 28  1  0
  9 13  2  0
 10 18  1  0
 10 21  4  0
 10 30  4  0
 11 17  2  0
 12 18  1  0
 13 15  1  0
 14 24  1  0
 15 25  1  0
 16 28  2  0
 17 20  1  0
 19 24  4  0
 20 23  1  0
 21 22  4  0
 22 23  4  0
 25 26  4  0
 27 29  2  0
M  END
$$$$

 Created by Python create_sdf_string function

 30 33  0  0  0  0  0  0  0  0999 V2000
    8.3036    9.8571   18.4133 C   0  0  0  0  0  0  0  0  0  0  0  0
    8.3694    7.6612   22.6703 C   0  0  0  0  0  0  0  0  0  0  0  0
    8.4143    6.6863   16.2273 C   0  0  0  0  0  0  0  0  0  0  0  0
   10.7581    6.5674   21.7636 C   0  0  0  0  0  0  0  0  0  0  0  0
    8.4452    8.7960   19.2958 O   0  0  0  0  0  0  0  0  0  0  0  0
    8.7122    6.7842   24.8569 C   0  0  0  0  0  0  0  0  0  0  0  0
   10.3400    6.1726   14.3081 C   0  0  0  0  0  0  0  0  0  0  0  0
    7.4297    7.5873   24.8962 C   0  0  0  0  0  0  0  0  0  0  0  0
    8.1566   10.0536   16.0516 O   0  0  0  0  0  0  0  0  0  0  0  0
   12.4989    6.2074   20.1776 C   0  0  0  0  0  0  0  0  0  0  0  0
    6.9192    9.1053   20.9073 O   0  0  0  0  0  0  0  0  0  0  0  0
   14.3979    6.0729   18.7784 C   0  0  0  0  0  0  0  0  0  0  0  0
    8.6811    9.5354   16.9998 C   0  0  0  0  0  0  0  0  0  0  0  0
    9.2512    4.2713   13.7653 O   0  0  0  0  0  0  0  0  0  0  0  0
    9.6495    8.6317   16.8332 N   0  0  0  0  0  0  0  0  0  0  0  0
    6.2934    8.6988   23.1988 O   0  0  0  0  0  0  0  0  0  0  0  0
    7.9806    8.6543   20.5437 C   0  0  0  0  0  0  0  0  0  0  0  0
   13.7270    5.7144   19.8610 O   0  0  0  0  0  0  0  0  0  0  0  0
    8.3351    5.5235   15.4478 C   0  0  0  0  0  0  0  0  0  0  0  0
    8.7700    7.8434   21.3915 C   0  0  0  0  0  0  0  0  0  0  0  0
   11.7856    6.8851   19.2401 C   0  0  0  0  0  0  0  0  0  0  0  0
   10.5281    7.4276   19.5649 C   0  0  0  0  0  0  0  0  0  0  0  0
   10.0256    7.2907   20.8484 C   0  0  0  0  0  0  0  0  0  0  0  0
    9.3113    5.3049   14.4911 C   0  0  0  0  0  0  0  0  0  0  0  0
    9.4607    7.5646   16.0139 C   0  0  0  0  0  0  0  0  0  0  0  0
   10.4192    7.3157   15.0955 C   0  0  0  0  0  0  0  0  0  0  0  0
   10.2489    6.4227   23.0218 N   0  0  0  0  0  0  0  0  0  0  0  0
    7.2472    8.0746   23.5050 C   0  0  0  0  0  0  0  0  0  0  0  0
    9.2051    6.9101   23.4604 C   0  0  0  0  0  0  0  0  0  0  0  0
   11.9646    6.0299   21.4251 C   0  0  0  0  0  0  0  0  0  0  0  0
  1  5  1  0
  1 13  1  0
  2 20  2  0
  2 28  1  0
  2 29  1  0
  3 19  4  0
  3 25  4  0
  4 23  4  0
  4 27  1  0
  4 30  4  0
  5 17  1  0
  6  8  1  0
  6 29  1  0
  7 24  4  0
  7 26  4  0
  8 28  1  0
  9 13  2  0
 10 18  1  0
 10 21  4  0
 10 30  4  0
 11 17  2  0
 12 18  1  0
 13 15  1  0
 14 24  1  0
 15 25  1  0
 16 28  2  0
 17 20  1  0
 19 24  4  0
 20 23  1  0
 21 22  4  0
 22 23  4  0
 25 26  4  0
 27 29  2  0
M  END
$$$$

 Created by Python create_sdf_string function

 30 33  0  0  0  0  0  0  0  0999 V2000
    8.3036    9.8571   18.4133 C   0  0  0  0  0  0  0  0  0  0  0  0
    8.3694    7.6612   22.6703 C   0  0  0  0  0  0  0  0  0  0  0  0
    8.4143    6.6863   16.2273 C   0  0  0  0  0  0  0  0  0  0  0  0
   10.7581    6.5674   21.7636 C   0  0  0  0  0  0  0  0  0  0  0  0
    8.4452    8.7960   19.2958 O   0  0  0  0  0  0  0  0  0  0  0  0
    8.7122    6.7842   24.8569 C   0  0  0  0  0  0  0  0  0  0  0  0
   10.3400    6.1726   14.3081 C   0  0  0  0  0  0  0  0  0  0  0  0
    7.4297    7.5873   24.8962 C   0  0  0  0  0  0  0  0  0  0  0  0
    8.1566   10.0536   16.0516 O   0  0  0  0  0  0  0  0  0  0  0  0
   12.4989    6.2074   20.1776 C   0  0  0  0  0  0  0  0  0  0  0  0
    6.9192    9.1053   20.9073 O   0  0  0  0  0  0  0  0  0  0  0  0
   14.3979    6.0729   18.7784 C   0  0  0  0  0  0  0  0  0  0  0  0
    8.6811    9.5354   16.9998 C   0  0  0  0  0  0  0  0  0  0  0  0
    9.2512    4.2713   13.7653 O   0  0  0  0  0  0  0  0  0  0  0  0
    9.6495    8.6317   16.8332 N   0  0  0  0  0  0  0  0  0  0  0  0
    6.2934    8.6988   23.1988 O   0  0  0  0  0  0  0  0  0  0  0  0
    7.9806    8.6543   20.5437 C   0  0  0  0  0  0  0  0  0  0  0  0
   13.7270    5.7144   19.8610 O   0  0  0  0  0  0  0  0  0  0  0  0
    8.3351    5.5235   15.4478 C   0  0  0  0  0  0  0  0  0  0  0  0
    8.7700    7.8434   21.3915 C   0  0  0  0  0  0  0  0  0  0  0  0
   11.7856    6.8851   19.2401 C   0  0  0  0  0  0  0  0  0  0  0  0
   10.5281    7.4276   19.5649 C   0  0  0  0  0  0  0  0  0  0  0  0
   10.0256    7.2907   20.8484 C   0  0  0  0  0  0  0  0  0  0  0  0
    9.3113    5.3049   14.4911 C   0  0  0  0  0  0  0  0  0  0  0  0
    9.4607    7.5646   16.0139 C   0  0  0  0  0  0  0  0  0  0  0  0
   10.4192    7.3157   15.0955 C   0  0  0  0  0  0  0  0  0  0  0  0
   10.2489    6.4227   23.0218 N   0  0  0  0  0  0  0  0  0  0  0  0
    7.2472    8.0746   23.5050 C   0  0  0  0  0  0  0  0  0  0  0  0
    9.2051    6.9101   23.4604 C   0  0  0  0  0  0  0  0  0  0  0  0
   11.9646    6.0299   21.4251 C   0  0  0  0  0  0  0  0  0  0  0  0
  1  5  1  0
  1 13  1  0
  2 20  2  0
  2 28  1  0
  2 29  1  0
  3 19  4  0
  3 25  4  0
  4 23  4  0
  4 27  1  0
  4 30  4  0
  5 17  1  0
  6  8  1  0
  6 29  1  0
  7 24  4  0
  7 26  4  0
  8 28  1  0
  9 13  2  0
 10 18  1  0
 10 21  4  0
 10 30  4  0
 11 17  2  0
 12 18  1  0
 13 15  1  0
 14 24  1  0
 15 25  1  0
 16 28  2  0
 17 20  1  0
 19 24  4  0
 20 23  1  0
 21 22  4  0
 22 23  4  0
 25 26  4  0
 27 29  2  0
M  END
$$$$

 Created by Python create_sdf_string function

 30 33  0  0  0  0  0  0  0  0999 V2000
    8.3036    9.8571   18.4133 C   0  0  0  0  0  0  0  0  0  0  0  0
    8.3694    7.6612   22.6703 C   0  0  0  0  0  0  0  0  0  0  0  0
    8.4143    6.6863   16.2273 C   0  0  0  0  0  0  0  0  0  0  0  0
   10.7581    6.5674   21.7636 C   0  0  0  0  0  0  0  0  0  0  0  0
    8.4452    8.7960   19.2958 O   0  0  0  0  0  0  0  0  0  0  0  0
    8.7122    6.7842   24.8569 C   0  0  0  0  0  0  0  0  0  0  0  0
   10.3400    6.1726   14.3081 C   0  0  0  0  0  0  0  0  0  0  0  0
    7.4297    7.5873   24.8962 C   0  0  0  0  0  0  0  0  0  0  0  0
    8.1566   10.0536   16.0516 O   0  0  0  0  0  0  0  0  0  0  0  0
   12.4989    6.2074   20.1776 C   0  0  0  0  0  0  0  0  0  0  0  0
    6.9192    9.1053   20.9073 O   0  0  0  0  0  0  0  0  0  0  0  0
   14.3979    6.0729   18.7784 C   0  0  0  0  0  0  0  0  0  0  0  0
    8.6811    9.5354   16.9998 C   0  0  0  0  0  0  0  0  0  0  0  0
    9.2512    4.2713   13.7653 O   0  0  0  0  0  0  0  0  0  0  0  0
    9.6495    8.6317   16.8332 N   0  0  0  0  0  0  0  0  0  0  0  0
    6.2934    8.6988   23.1988 O   0  0  0  0  0  0  0  0  0  0  0  0
    7.9806    8.6543   20.5437 C   0  0  0  0  0  0  0  0  0  0  0  0
   13.7270    5.7144   19.8610 O   0  0  0  0  0  0  0  0  0  0  0  0
    8.3351    5.5235   15.4478 C   0  0  0  0  0  0  0  0  0  0  0  0
    8.7700    7.8434   21.3915 C   0  0  0  0  0  0  0  0  0  0  0  0
   11.7856    6.8851   19.2401 C   0  0  0  0  0  0  0  0  0  0  0  0
   10.5281    7.4276   19.5649 C   0  0  0  0  0  0  0  0  0  0  0  0
   10.0256    7.2907   20.8484 C   0  0  0  0  0  0  0  0  0  0  0  0
    9.3113    5.3049   14.4911 C   0  0  0  0  0  0  0  0  0  0  0  0
    9.4607    7.5646   16.0139 C   0  0  0  0  0  0  0  0  0  0  0  0
   10.4192    7.3157   15.0955 C   0  0  0  0  0  0  0  0  0  0  0  0
   10.2489    6.4227   23.0218 N   0  0  0  0  0  0  0  0  0  0  0  0
    7.2472    8.0746   23.5050 C   0  0  0  0  0  0  0  0  0  0  0  0
    9.2051    6.9101   23.4604 C   0  0  0  0  0  0  0  0  0  0  0  0
   11.9646    6.0299   21.4251 C   0  0  0  0  0  0  0  0  0  0  0  0
  1  5  1  0
  1 13  1  0
  2 20  2  0
  2 28  1  0
  2 29  1  0
  3 19  4  0
  3 25  4  0
  4 23  4  0
  4 27  1  0
  4 30  4  0
  5 17  1  0
  6  8  1  0
  6 29  1  0
  7 24  4  0
  7 26  4  0
  8 28  1  0
  9 13  2  0
 10 18  1  0
 10 21  4  0
 10 30  4  0
 11 17  2  0
 12 18  1  0
 13 15  1  0
 14 24  1  0
 15 25  1  0
 16 28  2  0
 17 20  1  0
 19 24  4  0
 20 23  1  0
 21 22  4  0
 22 23  4  0
 25 26  4  0
 27 29  2  0
M  END
$$$$

 Created by Python create_sdf_string function

 30 33  0  0  0  0  0  0  0  0999 V2000
    8.3036    9.8571   18.4133 C   0  0  0  0  0  0  0  0  0  0  0  0
    8.3694    7.6612   22.6703 C   0  0  0  0  0  0  0  0  0  0  0  0
    8.4143    6.6863   16.2273 C   0  0  0  0  0  0  0  0  0  0  0  0
   10.7581    6.5674   21.7636 C   0  0  0  0  0  0  0  0  0  0  0  0
    8.4452    8.7960   19.2958 O   0  0  0  0  0  0  0  0  0  0  0  0
    8.7122    6.7842   24.8569 C   0  0  0  0  0  0  0  0  0  0  0  0
   10.3400    6.1726   14.3081 C   0  0  0  0  0  0  0  0  0  0  0  0
    7.4297    7.5873   24.8962 C   0  0  0  0  0  0  0  0  0  0  0  0
    8.1566   10.0536   16.0516 O   0  0  0  0  0  0  0  0  0  0  0  0
   12.4989    6.2074   20.1776 C   0  0  0  0  0  0  0  0  0  0  0  0
    6.9192    9.1053   20.9073 O   0  0  0  0  0  0  0  0  0  0  0  0
   14.3979    6.0729   18.7784 C   0  0  0  0  0  0  0  0  0  0  0  0
    8.6811    9.5354   16.9998 C   0  0  0  0  0  0  0  0  0  0  0  0
    9.2512    4.2713   13.7653 O   0  0  0  0  0  0  0  0  0  0  0  0
    9.6495    8.6317   16.8332 N   0  0  0  0  0  0  0  0  0  0  0  0
    6.2934    8.6988   23.1988 O   0  0  0  0  0  0  0  0  0  0  0  0
    7.9806    8.6543   20.5437 C   0  0  0  0  0  0  0  0  0  0  0  0
   13.7270    5.7144   19.8610 O   0  0  0  0  0  0  0  0  0  0  0  0
    8.3351    5.5235   15.4478 C   0  0  0  0  0  0  0  0  0  0  0  0
    8.7700    7.8434   21.3915 C   0  0  0  0  0  0  0  0  0  0  0  0
   11.7856    6.8851   19.2401 C   0  0  0  0  0  0  0  0  0  0  0  0
   10.5281    7.4276   19.5649 C   0  0  0  0  0  0  0  0  0  0  0  0
   10.0256    7.2907   20.8484 C   0  0  0  0  0  0  0  0  0  0  0  0
    9.3113    5.3049   14.4911 C   0  0  0  0  0  0  0  0  0  0  0  0
    9.4607    7.5646   16.0139 C   0  0  0  0  0  0  0  0  0  0  0  0
   10.4192    7.3157   15.0955 C   0  0  0  0  0  0  0  0  0  0  0  0
   10.2489    6.4227   23.0218 N   0  0  0  0  0  0  0  0  0  0  0  0
    7.2472    8.0746   23.5050 C   0  0  0  0  0  0  0  0  0  0  0  0
    9.2051    6.9101   23.4604 C   0  0  0  0  0  0  0  0  0  0  0  0
   11.9646    6.0299   21.4251 C   0  0  0  0  0  0  0  0  0  0  0  0
  1  5  1  0
  1 13  1  0
  2 20  2  0
  2 28  1  0
  2 29  1  0
  3 19  4  0
  3 25  4  0
  4 23  4  0
  4 27  1  0
  4 30  4  0
  5 17  1  0
  6  8  1  0
  6 29  1  0
  7 24  4  0
  7 26  4  0
  8 28  1  0
  9 13  2  0
 10 18  1  0
 10 21  4  0
 10 30  4  0
 11 17  2  0
 12 18  1  0
 13 15  1  0
 14 24  1  0
 15 25  1  0
 16 28  2  0
 17 20  1  0
 19 24  4  0
 20 23  1  0
 21 22  4  0
 22 23  4  0
 25 26  4  0
 27 29  2  0
M  END
$$$$

 Created by Python create_sdf_string function

 30 33  0  0  0  0  0  0  0  0999 V2000
    8.3036    9.8571   18.4133 C   0  0  0  0  0  0  0  0  0  0  0  0
    8.3694    7.6612   22.6703 C   0  0  0  0  0  0  0  0  0  0  0  0
    8.4143    6.6863   16.2273 C   0  0  0  0  0  0  0  0  0  0  0  0
   10.7581    6.5674   21.7636 C   0  0  0  0  0  0  0  0  0  0  0  0
    8.4452    8.7960   19.2958 O   0  0  0  0  0  0  0  0  0  0  0  0
    8.7122    6.7842   24.8569 C   0  0  0  0  0  0  0  0  0  0  0  0
   10.3400    6.1726   14.3081 C   0  0  0  0  0  0  0  0  0  0  0  0
    7.4297    7.5873   24.8962 C   0  0  0  0  0  0  0  0  0  0  0  0
    8.1566   10.0536   16.0516 O   0  0  0  0  0  0  0  0  0  0  0  0
   12.4989    6.2074   20.1776 C   0  0  0  0  0  0  0  0  0  0  0  0
    6.9192    9.1053   20.9073 O   0  0  0  0  0  0  0  0  0  0  0  0
   14.3979    6.0729   18.7784 C   0  0  0  0  0  0  0  0  0  0  0  0
    8.6811    9.5354   16.9998 C   0  0  0  0  0  0  0  0  0  0  0  0
    9.2512    4.2713   13.7653 O   0  0  0  0  0  0  0  0  0  0  0  0
    9.6495    8.6317   16.8332 N   0  0  0  0  0  0  0  0  0  0  0  0
    6.2934    8.6988   23.1988 O   0  0  0  0  0  0  0  0  0  0  0  0
    7.9806    8.6543   20.5437 C   0  0  0  0  0  0  0  0  0  0  0  0
   13.7270    5.7144   19.8610 O   0  0  0  0  0  0  0  0  0  0  0  0
    8.3351    5.5235   15.4478 C   0  0  0  0  0  0  0  0  0  0  0  0
    8.7700    7.8434   21.3915 C   0  0  0  0  0  0  0  0  0  0  0  0
   11.7856    6.8851   19.2401 C   0  0  0  0  0  0  0  0  0  0  0  0
   10.5281    7.4276   19.5649 C   0  0  0  0  0  0  0  0  0  0  0  0
   10.0256    7.2907   20.8484 C   0  0  0  0  0  0  0  0  0  0  0  0
    9.3113    5.3049   14.4911 C   0  0  0  0  0  0  0  0  0  0  0  0
    9.4607    7.5646   16.0139 C   0  0  0  0  0  0  0  0  0  0  0  0
   10.4192    7.3157   15.0955 C   0  0  0  0  0  0  0  0  0  0  0  0
   10.2489    6.4227   23.0218 N   0  0  0  0  0  0  0  0  0  0  0  0
    7.2472    8.0746   23.5050 C   0  0  0  0  0  0  0  0  0  0  0  0
    9.2051    6.9101   23.4604 C   0  0  0  0  0  0  0  0  0  0  0  0
   11.9646    6.0299   21.4251 C   0  0  0  0  0  0  0  0  0  0  0  0
  1  5  1  0
  1 13  1  0
  2 20  2  0
  2 28  1  0
  2 29  1  0
  3 19  4  0
  3 25  4  0
  4 23  4  0
  4 27  1  0
  4 30  4  0
  5 17  1  0
  6  8  1  0
  6 29  1  0
  7 24  4  0
  7 26  4  0
  8 28  1  0
  9 13  2  0
 10 18  1  0
 10 21  4  0
 10 30  4  0
 11 17  2  0
 12 18  1  0
 13 15  1  0
 14 24  1  0
 15 25  1  0
 16 28  2  0
 17 20  1  0
 19 24  4  0
 20 23  1  0
 21 22  4  0
 22 23  4  0
 25 26  4  0
 27 29  2  0
M  END
$$$$

 Created by Python create_sdf_string function

 30 33  0  0  0  0  0  0  0  0999 V2000
    8.3036    9.8571   18.4133 C   0  0  0  0  0  0  0  0  0  0  0  0
    8.3694    7.6612   22.6703 C   0  0  0  0  0  0  0  0  0  0  0  0
    8.4143    6.6863   16.2273 C   0  0  0  0  0  0  0  0  0  0  0  0
   10.7581    6.5674   21.7636 C   0  0  0  0  0  0  0  0  0  0  0  0
    8.4452    8.7960   19.2958 O   0  0  0  0  0  0  0  0  0  0  0  0
    8.7122    6.7842   24.8569 C   0  0  0  0  0  0  0  0  0  0  0  0
   10.3400    6.1726   14.3081 C   0  0  0  0  0  0  0  0  0  0  0  0
    7.4297    7.5873   24.8962 C   0  0  0  0  0  0  0  0  0  0  0  0
    8.1566   10.0536   16.0516 O   0  0  0  0  0  0  0  0  0  0  0  0
   12.4989    6.2074   20.1776 C   0  0  0  0  0  0  0  0  0  0  0  0
    6.9192    9.1053   20.9073 O   0  0  0  0  0  0  0  0  0  0  0  0
   14.3979    6.0729   18.7784 C   0  0  0  0  0  0  0  0  0  0  0  0
    8.6811    9.5354   16.9998 C   0  0  0  0  0  0  0  0  0  0  0  0
    9.2512    4.2713   13.7653 O   0  0  0  0  0  0  0  0  0  0  0  0
    9.6495    8.6317   16.8332 N   0  0  0  0  0  0  0  0  0  0  0  0
    6.2934    8.6988   23.1988 O   0  0  0  0  0  0  0  0  0  0  0  0
    7.9806    8.6543   20.5437 C   0  0  0  0  0  0  0  0  0  0  0  0
   13.7270    5.7144   19.8610 O   0  0  0  0  0  0  0  0  0  0  0  0
    8.3351    5.5235   15.4478 C   0  0  0  0  0  0  0  0  0  0  0  0
    8.7700    7.8434   21.3915 C   0  0  0  0  0  0  0  0  0  0  0  0
   11.7856    6.8851   19.2401 C   0  0  0  0  0  0  0  0  0  0  0  0
   10.5281    7.4276   19.5649 C   0  0  0  0  0  0  0  0  0  0  0  0
   10.0256    7.2907   20.8484 C   0  0  0  0  0  0  0  0  0  0  0  0
    9.3113    5.3049   14.4911 C   0  0  0  0  0  0  0  0  0  0  0  0
    9.4607    7.5646   16.0139 C   0  0  0  0  0  0  0  0  0  0  0  0
   10.4192    7.3157   15.0955 C   0  0  0  0  0  0  0  0  0  0  0  0
   10.2489    6.4227   23.0218 N   0  0  0  0  0  0  0  0  0  0  0  0
    7.2472    8.0746   23.5050 C   0  0  0  0  0  0  0  0  0  0  0  0
    9.2051    6.9101   23.4604 C   0  0  0  0  0  0  0  0  0  0  0  0
   11.9646    6.0299   21.4251 C   0  0  0  0  0  0  0  0  0  0  0  0
  1  5  1  0
  1 13  1  0
  2 20  2  0
  2 28  1  0
  2 29  1  0
  3 19  4  0
  3 25  4  0
  4 23  4  0
  4 27  1  0
  4 30  4  0
  5 17  1  0
  6  8  1  0
  6 29  1  0
  7 24  4  0
  7 26  4  0
  8 28  1  0
  9 13  2  0
 10 18  1  0
 10 21  4  0
 10 30  4  0
 11 17  2  0
 12 18  1  0
 13 15  1  0
 14 24  1  0
 15 25  1  0
 16 28  2  0
 17 20  1  0
 19 24  4  0
 20 23  1  0
 21 22  4  0
 22 23  4  0
 25 26  4  0
 27 29  2  0
M  END
$$$$

 Created by Python create_sdf_string function

 30 33  0  0  0  0  0  0  0  0999 V2000
    8.3036    9.8571   18.4133 C   0  0  0  0  0  0  0  0  0  0  0  0
    8.3694    7.6612   22.6703 C   0  0  0  0  0  0  0  0  0  0  0  0
    8.4143    6.6863   16.2273 C   0  0  0  0  0  0  0  0  0  0  0  0
   10.7581    6.5674   21.7636 C   0  0  0  0  0  0  0  0  0  0  0  0
    8.4452    8.7960   19.2958 O   0  0  0  0  0  0  0  0  0  0  0  0
    8.7122    6.7842   24.8569 C   0  0  0  0  0  0  0  0  0  0  0  0
   10.3400    6.1726   14.3081 C   0  0  0  0  0  0  0  0  0  0  0  0
    7.4297    7.5873   24.8962 C   0  0  0  0  0  0  0  0  0  0  0  0
    8.1566   10.0536   16.0516 O   0  0  0  0  0  0  0  0  0  0  0  0
   12.4989    6.2074   20.1776 C   0  0  0  0  0  0  0  0  0  0  0  0
    6.9192    9.1053   20.9073 O   0  0  0  0  0  0  0  0  0  0  0  0
   14.3979    6.0729   18.7784 C   0  0  0  0  0  0  0  0  0  0  0  0
    8.6811    9.5354   16.9998 C   0  0  0  0  0  0  0  0  0  0  0  0
    9.2512    4.2713   13.7653 O   0  0  0  0  0  0  0  0  0  0  0  0
    9.6495    8.6317   16.8332 N   0  0  0  0  0  0  0  0  0  0  0  0
    6.2934    8.6988   23.1988 O   0  0  0  0  0  0  0  0  0  0  0  0
    7.9806    8.6543   20.5437 C   0  0  0  0  0  0  0  0  0  0  0  0
   13.7270    5.7144   19.8610 O   0  0  0  0  0  0  0  0  0  0  0  0
    8.3351    5.5235   15.4478 C   0  0  0  0  0  0  0  0  0  0  0  0
    8.7700    7.8434   21.3915 C   0  0  0  0  0  0  0  0  0  0  0  0
   11.7856    6.8851   19.2401 C   0  0  0  0  0  0  0  0  0  0  0  0
   10.5281    7.4276   19.5649 C   0  0  0  0  0  0  0  0  0  0  0  0
   10.0256    7.2907   20.8484 C   0  0  0  0  0  0  0  0  0  0  0  0
    9.3113    5.3049   14.4911 C   0  0  0  0  0  0  0  0  0  0  0  0
    9.4607    7.5646   16.0139 C   0  0  0  0  0  0  0  0  0  0  0  0
   10.4192    7.3157   15.0955 C   0  0  0  0  0  0  0  0  0  0  0  0
   10.2489    6.4227   23.0218 N   0  0  0  0  0  0  0  0  0  0  0  0
    7.2472    8.0746   23.5050 C   0  0  0  0  0  0  0  0  0  0  0  0
    9.2051    6.9101   23.4604 C   0  0  0  0  0  0  0  0  0  0  0  0
   11.9646    6.0299   21.4251 C   0  0  0  0  0  0  0  0  0  0  0  0
  1  5  1  0
  1 13  1  0
  2 20  2  0
  2 28  1  0
  2 29  1  0
  3 19  4  0
  3 25  4  0
  4 23  4  0
  4 27  1  0
  4 30  4  0
  5 17  1  0
  6  8  1  0
  6 29  1  0
  7 24  4  0
  7 26  4  0
  8 28  1  0
  9 13  2  0
 10 18  1  0
 10 21  4  0
 10 30  4  0
 11 17  2  0
 12 18  1  0
 13 15  1  0
 14 24  1  0
 15 25  1  0
 16 28  2  0
 17 20  1  0
 19 24  4  0
 20 23  1  0
 21 22  4  0
 22 23  4  0
 25 26  4  0
 27 29  2  0
M  END
$$$$

 Created by Python create_sdf_string function

 30 33  0  0  0  0  0  0  0  0999 V2000
    8.3036    9.8571   18.4133 C   0  0  0  0  0  0  0  0  0  0  0  0
    8.3694    7.6612   22.6703 C   0  0  0  0  0  0  0  0  0  0  0  0
    8.4143    6.6863   16.2273 C   0  0  0  0  0  0  0  0  0  0  0  0
   10.7581    6.5674   21.7636 C   0  0  0  0  0  0  0  0  0  0  0  0
    8.4452    8.7960   19.2958 O   0  0  0  0  0  0  0  0  0  0  0  0
    8.7122    6.7842   24.8569 C   0  0  0  0  0  0  0  0  0  0  0  0
   10.3400    6.1726   14.3081 C   0  0  0  0  0  0  0  0  0  0  0  0
    7.4297    7.5873   24.8962 C   0  0  0  0  0  0  0  0  0  0  0  0
    8.1566   10.0536   16.0516 O   0  0  0  0  0  0  0  0  0  0  0  0
   12.4989    6.2074   20.1776 C   0  0  0  0  0  0  0  0  0  0  0  0
    6.9192    9.1053   20.9073 O   0  0  0  0  0  0  0  0  0  0  0  0
   14.3979    6.0729   18.7784 C   0  0  0  0  0  0  0  0  0  0  0  0
    8.6811    9.5354   16.9998 C   0  0  0  0  0  0  0  0  0  0  0  0
    9.2512    4.2713   13.7653 O   0  0  0  0  0  0  0  0  0  0  0  0
    9.6495    8.6317   16.8332 N   0  0  0  0  0  0  0  0  0  0  0  0
    6.2934    8.6988   23.1988 O   0  0  0  0  0  0  0  0  0  0  0  0
    7.9806    8.6543   20.5437 C   0  0  0  0  0  0  0  0  0  0  0  0
   13.7270    5.7144   19.8610 O   0  0  0  0  0  0  0  0  0  0  0  0
    8.3351    5.5235   15.4478 C   0  0  0  0  0  0  0  0  0  0  0  0
    8.7700    7.8434   21.3915 C   0  0  0  0  0  0  0  0  0  0  0  0
   11.7856    6.8851   19.2401 C   0  0  0  0  0  0  0  0  0  0  0  0
   10.5281    7.4276   19.5649 C   0  0  0  0  0  0  0  0  0  0  0  0
   10.0256    7.2907   20.8484 C   0  0  0  0  0  0  0  0  0  0  0  0
    9.3113    5.3049   14.4911 C   0  0  0  0  0  0  0  0  0  0  0  0
    9.4607    7.5646   16.0139 C   0  0  0  0  0  0  0  0  0  0  0  0
   10.4192    7.3157   15.0955 C   0  0  0  0  0  0  0  0  0  0  0  0
   10.2489    6.4227   23.0218 N   0  0  0  0  0  0  0  0  0  0  0  0
    7.2472    8.0746   23.5050 C   0  0  0  0  0  0  0  0  0  0  0  0
    9.2051    6.9101   23.4604 C   0  0  0  0  0  0  0  0  0  0  0  0
   11.9646    6.0299   21.4251 C   0  0  0  0  0  0  0  0  0  0  0  0
  1  5  1  0
  1 13  1  0
  2 20  2  0
  2 28  1  0
  2 29  1  0
  3 19  4  0
  3 25  4  0
  4 23  4  0
  4 27  1  0
  4 30  4  0
  5 17  1  0
  6  8  1  0
  6 29  1  0
  7 24  4  0
  7 26  4  0
  8 28  1  0
  9 13  2  0
 10 18  1  0
 10 21  4  0
 10 30  4  0
 11 17  2  0
 12 18  1  0
 13 15  1  0
 14 24  1  0
 15 25  1  0
 16 28  2  0
 17 20  1  0
 19 24  4  0
 20 23  1  0
 21 22  4  0
 22 23  4  0
 25 26  4  0
 27 29  2  0
M  END
$$$$

 Created by Python create_sdf_string function

 30 33  0  0  0  0  0  0  0  0999 V2000
    8.3036    9.8571   18.4133 C   0  0  0  0  0  0  0  0  0  0  0  0
    8.3694    7.6612   22.6703 C   0  0  0  0  0  0  0  0  0  0  0  0
    8.4143    6.6863   16.2273 C   0  0  0  0  0  0  0  0  0  0  0  0
   10.7581    6.5674   21.7636 C   0  0  0  0  0  0  0  0  0  0  0  0
    8.4452    8.7960   19.2958 O   0  0  0  0  0  0  0  0  0  0  0  0
    8.7122    6.7842   24.8569 C   0  0  0  0  0  0  0  0  0  0  0  0
   10.3400    6.1726   14.3081 C   0  0  0  0  0  0  0  0  0  0  0  0
    7.4297    7.5873   24.8962 C   0  0  0  0  0  0  0  0  0  0  0  0
    8.1566   10.0536   16.0516 O   0  0  0  0  0  0  0  0  0  0  0  0
   12.4989    6.2074   20.1776 C   0  0  0  0  0  0  0  0  0  0  0  0
    6.9192    9.1053   20.9073 O   0  0  0  0  0  0  0  0  0  0  0  0
   14.3979    6.0729   18.7784 C   0  0  0  0  0  0  0  0  0  0  0  0
    8.6811    9.5354   16.9998 C   0  0  0  0  0  0  0  0  0  0  0  0
    9.2512    4.2713   13.7653 O   0  0  0  0  0  0  0  0  0  0  0  0
    9.6495    8.6317   16.8332 N   0  0  0  0  0  0  0  0  0  0  0  0
    6.2934    8.6988   23.1988 O   0  0  0  0  0  0  0  0  0  0  0  0
    7.9806    8.6543   20.5437 C   0  0  0  0  0  0  0  0  0  0  0  0
   13.7270    5.7144   19.8610 O   0  0  0  0  0  0  0  0  0  0  0  0
    8.3351    5.5235   15.4478 C   0  0  0  0  0  0  0  0  0  0  0  0
    8.7700    7.8434   21.3915 C   0  0  0  0  0  0  0  0  0  0  0  0
   11.7856    6.8851   19.2401 C   0  0  0  0  0  0  0  0  0  0  0  0
   10.5281    7.4276   19.5649 C   0  0  0  0  0  0  0  0  0  0  0  0
   10.0256    7.2907   20.8484 C   0  0  0  0  0  0  0  0  0  0  0  0
    9.3113    5.3049   14.4911 C   0  0  0  0  0  0  0  0  0  0  0  0
    9.4607    7.5646   16.0139 C   0  0  0  0  0  0  0  0  0  0  0  0
   10.4192    7.3157   15.0955 C   0  0  0  0  0  0  0  0  0  0  0  0
   10.2489    6.4227   23.0218 N   0  0  0  0  0  0  0  0  0  0  0  0
    7.2472    8.0746   23.5050 C   0  0  0  0  0  0  0  0  0  0  0  0
    9.2051    6.9101   23.4604 C   0  0  0  0  0  0  0  0  0  0  0  0
   11.9646    6.0299   21.4251 C   0  0  0  0  0  0  0  0  0  0  0  0
  1  5  1  0
  1 13  1  0
  2 20  2  0
  2 28  1  0
  2 29  1  0
  3 19  4  0
  3 25  4  0
  4 23  4  0
  4 27  1  0
  4 30  4  0
  5 17  1  0
  6  8  1  0
  6 29  1  0
  7 24  4  0
  7 26  4  0
  8 28  1  0
  9 13  2  0
 10 18  1  0
 10 21  4  0
 10 30  4  0
 11 17  2  0
 12 18  1  0
 13 15  1  0
 14 24  1  0
 15 25  1  0
 16 28  2  0
 17 20  1  0
 19 24  4  0
 20 23  1  0
 21 22  4  0
 22 23  4  0
 25 26  4  0
 27 29  2  0
M  END
$$$$

 Created by Python create_sdf_string function

 30 33  0  0  0  0  0  0  0  0999 V2000
    8.3036    9.8571   18.4133 C   0  0  0  0  0  0  0  0  0  0  0  0
    8.3694    7.6612   22.6703 C   0  0  0  0  0  0  0  0  0  0  0  0
    8.4143    6.6863   16.2273 C   0  0  0  0  0  0  0  0  0  0  0  0
   10.7581    6.5674   21.7636 C   0  0  0  0  0  0  0  0  0  0  0  0
    8.4452    8.7960   19.2958 O   0  0  0  0  0  0  0  0  0  0  0  0
    8.7122    6.7842   24.8569 C   0  0  0  0  0  0  0  0  0  0  0  0
   10.3400    6.1726   14.3081 C   0  0  0  0  0  0  0  0  0  0  0  0
    7.4297    7.5873   24.8962 C   0  0  0  0  0  0  0  0  0  0  0  0
    8.1566   10.0536   16.0516 O   0  0  0  0  0  0  0  0  0  0  0  0
   12.4989    6.2074   20.1776 C   0  0  0  0  0  0  0  0  0  0  0  0
    6.9192    9.1053   20.9073 O   0  0  0  0  0  0  0  0  0  0  0  0
   14.3979    6.0729   18.7784 C   0  0  0  0  0  0  0  0  0  0  0  0
    8.6811    9.5354   16.9998 C   0  0  0  0  0  0  0  0  0  0  0  0
    9.2512    4.2713   13.7653 O   0  0  0  0  0  0  0  0  0  0  0  0
    9.6495    8.6317   16.8332 N   0  0  0  0  0  0  0  0  0  0  0  0
    6.2934    8.6988   23.1988 O   0  0  0  0  0  0  0  0  0  0  0  0
    7.9806    8.6543   20.5437 C   0  0  0  0  0  0  0  0  0  0  0  0
   13.7270    5.7144   19.8610 O   0  0  0  0  0  0  0  0  0  0  0  0
    8.3351    5.5235   15.4478 C   0  0  0  0  0  0  0  0  0  0  0  0
    8.7700    7.8434   21.3915 C   0  0  0  0  0  0  0  0  0  0  0  0
   11.7856    6.8851   19.2401 C   0  0  0  0  0  0  0  0  0  0  0  0
   10.5281    7.4276   19.5649 C   0  0  0  0  0  0  0  0  0  0  0  0
   10.0256    7.2907   20.8484 C   0  0  0  0  0  0  0  0  0  0  0  0
    9.3113    5.3049   14.4911 C   0  0  0  0  0  0  0  0  0  0  0  0
    9.4607    7.5646   16.0139 C   0  0  0  0  0  0  0  0  0  0  0  0
   10.4192    7.3157   15.0955 C   0  0  0  0  0  0  0  0  0  0  0  0
   10.2489    6.4227   23.0218 N   0  0  0  0  0  0  0  0  0  0  0  0
    7.2472    8.0746   23.5050 C   0  0  0  0  0  0  0  0  0  0  0  0
    9.2051    6.9101   23.4604 C   0  0  0  0  0  0  0  0  0  0  0  0
   11.9646    6.0299   21.4251 C   0  0  0  0  0  0  0  0  0  0  0  0
  1  5  1  0
  1 13  1  0
  2 20  2  0
  2 28  1  0
  2 29  1  0
  3 19  4  0
  3 25  4  0
  4 23  4  0
  4 27  1  0
  4 30  4  0
  5 17  1  0
  6  8  1  0
  6 29  1  0
  7 24  4  0
  7 26  4  0
  8 28  1  0
  9 13  2  0
 10 18  1  0
 10 21  4  0
 10 30  4  0
 11 17  2  0
 12 18  1  0
 13 15  1  0
 14 24  1  0
 15 25  1  0
 16 28  2  0
 17 20  1  0
 19 24  4  0
 20 23  1  0
 21 22  4  0
 22 23  4  0
 25 26  4  0
 27 29  2  0
M  END
$$$$

 Created by Python create_sdf_string function

 30 33  0  0  0  0  0  0  0  0999 V2000
    8.3036    9.8571   18.4133 C   0  0  0  0  0  0  0  0  0  0  0  0
    8.3694    7.6612   22.6703 C   0  0  0  0  0  0  0  0  0  0  0  0
    8.4143    6.6863   16.2273 C   0  0  0  0  0  0  0  0  0  0  0  0
   10.7581    6.5674   21.7636 C   0  0  0  0  0  0  0  0  0  0  0  0
    8.4452    8.7960   19.2958 O   0  0  0  0  0  0  0  0  0  0  0  0
    8.7122    6.7842   24.8569 C   0  0  0  0  0  0  0  0  0  0  0  0
   10.3400    6.1726   14.3081 C   0  0  0  0  0  0  0  0  0  0  0  0
    7.4297    7.5873   24.8962 C   0  0  0  0  0  0  0  0  0  0  0  0
    8.1566   10.0536   16.0516 O   0  0  0  0  0  0  0  0  0  0  0  0
   12.4989    6.2074   20.1776 C   0  0  0  0  0  0  0  0  0  0  0  0
    6.9192    9.1053   20.9073 O   0  0  0  0  0  0  0  0  0  0  0  0
   14.3979    6.0729   18.7784 C   0  0  0  0  0  0  0  0  0  0  0  0
    8.6811    9.5354   16.9998 C   0  0  0  0  0  0  0  0  0  0  0  0
    9.2512    4.2713   13.7653 O   0  0  0  0  0  0  0  0  0  0  0  0
    9.6495    8.6317   16.8332 N   0  0  0  0  0  0  0  0  0  0  0  0
    6.2934    8.6988   23.1988 O   0  0  0  0  0  0  0  0  0  0  0  0
    7.9806    8.6543   20.5437 C   0  0  0  0  0  0  0  0  0  0  0  0
   13.7270    5.7144   19.8610 O   0  0  0  0  0  0  0  0  0  0  0  0
    8.3351    5.5235   15.4478 C   0  0  0  0  0  0  0  0  0  0  0  0
    8.7700    7.8434   21.3915 C   0  0  0  0  0  0  0  0  0  0  0  0
   11.7856    6.8851   19.2401 C   0  0  0  0  0  0  0  0  0  0  0  0
   10.5281    7.4276   19.5649 C   0  0  0  0  0  0  0  0  0  0  0  0
   10.0256    7.2907   20.8484 C   0  0  0  0  0  0  0  0  0  0  0  0
    9.3113    5.3049   14.4911 C   0  0  0  0  0  0  0  0  0  0  0  0
    9.4607    7.5646   16.0139 C   0  0  0  0  0  0  0  0  0  0  0  0
   10.4192    7.3157   15.0955 C   0  0  0  0  0  0  0  0  0  0  0  0
   10.2489    6.4227   23.0218 N   0  0  0  0  0  0  0  0  0  0  0  0
    7.2472    8.0746   23.5050 C   0  0  0  0  0  0  0  0  0  0  0  0
    9.2051    6.9101   23.4604 C   0  0  0  0  0  0  0  0  0  0  0  0
   11.9646    6.0299   21.4251 C   0  0  0  0  0  0  0  0  0  0  0  0
  1  5  1  0
  1 13  1  0
  2 20  2  0
  2 28  1  0
  2 29  1  0
  3 19  4  0
  3 25  4  0
  4 23  4  0
  4 27  1  0
  4 30  4  0
  5 17  1  0
  6  8  1  0
  6 29  1  0
  7 24  4  0
  7 26  4  0
  8 28  1  0
  9 13  2  0
 10 18  1  0
 10 21  4  0
 10 30  4  0
 11 17  2  0
 12 18  1  0
 13 15  1  0
 14 24  1  0
 15 25  1  0
 16 28  2  0
 17 20  1  0
 19 24  4  0
 20 23  1  0
 21 22  4  0
 22 23  4  0
 25 26  4  0
 27 29  2  0
M  END
$$$$

 Created by Python create_sdf_string function

 30 33  0  0  0  0  0  0  0  0999 V2000
    8.3036    9.8571   18.4133 C   0  0  0  0  0  0  0  0  0  0  0  0
    8.3694    7.6612   22.6703 C   0  0  0  0  0  0  0  0  0  0  0  0
    8.4143    6.6863   16.2273 C   0  0  0  0  0  0  0  0  0  0  0  0
   10.7581    6.5674   21.7636 C   0  0  0  0  0  0  0  0  0  0  0  0
    8.4452    8.7960   19.2958 O   0  0  0  0  0  0  0  0  0  0  0  0
    8.7122    6.7842   24.8569 C   0  0  0  0  0  0  0  0  0  0  0  0
   10.3400    6.1726   14.3081 C   0  0  0  0  0  0  0  0  0  0  0  0
    7.4297    7.5873   24.8962 C   0  0  0  0  0  0  0  0  0  0  0  0
    8.1566   10.0536   16.0516 O   0  0  0  0  0  0  0  0  0  0  0  0
   12.4989    6.2074   20.1776 C   0  0  0  0  0  0  0  0  0  0  0  0
    6.9192    9.1053   20.9073 O   0  0  0  0  0  0  0  0  0  0  0  0
   14.3979    6.0729   18.7784 C   0  0  0  0  0  0  0  0  0  0  0  0
    8.6811    9.5354   16.9998 C   0  0  0  0  0  0  0  0  0  0  0  0
    9.2512    4.2713   13.7653 O   0  0  0  0  0  0  0  0  0  0  0  0
    9.6495    8.6317   16.8332 N   0  0  0  0  0  0  0  0  0  0  0  0
    6.2934    8.6988   23.1988 O   0  0  0  0  0  0  0  0  0  0  0  0
    7.9806    8.6543   20.5437 C   0  0  0  0  0  0  0  0  0  0  0  0
   13.7270    5.7144   19.8610 O   0  0  0  0  0  0  0  0  0  0  0  0
    8.3351    5.5235   15.4478 C   0  0  0  0  0  0  0  0  0  0  0  0
    8.7700    7.8434   21.3915 C   0  0  0  0  0  0  0  0  0  0  0  0
   11.7856    6.8851   19.2401 C   0  0  0  0  0  0  0  0  0  0  0  0
   10.5281    7.4276   19.5649 C   0  0  0  0  0  0  0  0  0  0  0  0
   10.0256    7.2907   20.8484 C   0  0  0  0  0  0  0  0  0  0  0  0
    9.3113    5.3049   14.4911 C   0  0  0  0  0  0  0  0  0  0  0  0
    9.4607    7.5646   16.0139 C   0  0  0  0  0  0  0  0  0  0  0  0
   10.4192    7.3157   15.0955 C   0  0  0  0  0  0  0  0  0  0  0  0
   10.2489    6.4227   23.0218 N   0  0  0  0  0  0  0  0  0  0  0  0
    7.2472    8.0746   23.5050 C   0  0  0  0  0  0  0  0  0  0  0  0
    9.2051    6.9101   23.4604 C   0  0  0  0  0  0  0  0  0  0  0  0
   11.9646    6.0299   21.4251 C   0  0  0  0  0  0  0  0  0  0  0  0
  1  5  1  0
  1 13  1  0
  2 20  2  0
  2 28  1  0
  2 29  1  0
  3 19  4  0
  3 25  4  0
  4 23  4  0
  4 27  1  0
  4 30  4  0
  5 17  1  0
  6  8  1  0
  6 29  1  0
  7 24  4  0
  7 26  4  0
  8 28  1  0
  9 13  2  0
 10 18  1  0
 10 21  4  0
 10 30  4  0
 11 17  2  0
 12 18  1  0
 13 15  1  0
 14 24  1  0
 15 25  1  0
 16 28  2  0
 17 20  1  0
 19 24  4  0
 20 23  1  0
 21 22  4  0
 22 23  4  0
 25 26  4  0
 27 29  2  0
M  END
$$$$

 Created by Python create_sdf_string function

 30 33  0  0  0  0  0  0  0  0999 V2000
    8.3036    9.8571   18.4133 C   0  0  0  0  0  0  0  0  0  0  0  0
    8.3694    7.6612   22.6703 C   0  0  0  0  0  0  0  0  0  0  0  0
    8.4143    6.6863   16.2273 C   0  0  0  0  0  0  0  0  0  0  0  0
   10.7581    6.5674   21.7636 C   0  0  0  0  0  0  0  0  0  0  0  0
    8.4452    8.7960   19.2958 O   0  0  0  0  0  0  0  0  0  0  0  0
    8.7122    6.7842   24.8569 C   0  0  0  0  0  0  0  0  0  0  0  0
   10.3400    6.1726   14.3081 C   0  0  0  0  0  0  0  0  0  0  0  0
    7.4297    7.5873   24.8962 C   0  0  0  0  0  0  0  0  0  0  0  0
    8.1566   10.0536   16.0516 O   0  0  0  0  0  0  0  0  0  0  0  0
   12.4989    6.2074   20.1776 C   0  0  0  0  0  0  0  0  0  0  0  0
    6.9192    9.1053   20.9073 O   0  0  0  0  0  0  0  0  0  0  0  0
   14.3979    6.0729   18.7784 C   0  0  0  0  0  0  0  0  0  0  0  0
    8.6811    9.5354   16.9998 C   0  0  0  0  0  0  0  0  0  0  0  0
    9.2512    4.2713   13.7653 O   0  0  0  0  0  0  0  0  0  0  0  0
    9.6495    8.6317   16.8332 N   0  0  0  0  0  0  0  0  0  0  0  0
    6.2934    8.6988   23.1988 O   0  0  0  0  0  0  0  0  0  0  0  0
    7.9806    8.6543   20.5437 C   0  0  0  0  0  0  0  0  0  0  0  0
   13.7270    5.7144   19.8610 O   0  0  0  0  0  0  0  0  0  0  0  0
    8.3351    5.5235   15.4478 C   0  0  0  0  0  0  0  0  0  0  0  0
    8.7700    7.8434   21.3915 C   0  0  0  0  0  0  0  0  0  0  0  0
   11.7856    6.8851   19.2401 C   0  0  0  0  0  0  0  0  0  0  0  0
   10.5281    7.4276   19.5649 C   0  0  0  0  0  0  0  0  0  0  0  0
   10.0256    7.2907   20.8484 C   0  0  0  0  0  0  0  0  0  0  0  0
    9.3113    5.3049   14.4911 C   0  0  0  0  0  0  0  0  0  0  0  0
    9.4607    7.5646   16.0139 C   0  0  0  0  0  0  0  0  0  0  0  0
   10.4192    7.3157   15.0955 C   0  0  0  0  0  0  0  0  0  0  0  0
   10.2489    6.4227   23.0218 N   0  0  0  0  0  0  0  0  0  0  0  0
    7.2472    8.0746   23.5050 C   0  0  0  0  0  0  0  0  0  0  0  0
    9.2051    6.9101   23.4604 C   0  0  0  0  0  0  0  0  0  0  0  0
   11.9646    6.0299   21.4251 C   0  0  0  0  0  0  0  0  0  0  0  0
  1  5  1  0
  1 13  1  0
  2 20  2  0
  2 28  1  0
  2 29  1  0
  3 19  4  0
  3 25  4  0
  4 23  4  0
  4 27  1  0
  4 30  4  0
  5 17  1  0
  6  8  1  0
  6 29  1  0
  7 24  4  0
  7 26  4  0
  8 28  1  0
  9 13  2  0
 10 18  1  0
 10 21  4  0
 10 30  4  0
 11 17  2  0
 12 18  1  0
 13 15  1  0
 14 24  1  0
 15 25  1  0
 16 28  2  0
 17 20  1  0
 19 24  4  0
 20 23  1  0
 21 22  4  0
 22 23  4  0
 25 26  4  0
 27 29  2  0
M  END
$$$$

 Created by Python create_sdf_string function

 30 33  0  0  0  0  0  0  0  0999 V2000
    8.3036    9.8571   18.4133 C   0  0  0  0  0  0  0  0  0  0  0  0
    8.3694    7.6612   22.6703 C   0  0  0  0  0  0  0  0  0  0  0  0
    8.4143    6.6863   16.2273 C   0  0  0  0  0  0  0  0  0  0  0  0
   10.7581    6.5674   21.7636 C   0  0  0  0  0  0  0  0  0  0  0  0
    8.4452    8.7960   19.2958 O   0  0  0  0  0  0  0  0  0  0  0  0
    8.7122    6.7842   24.8569 C   0  0  0  0  0  0  0  0  0  0  0  0
   10.3400    6.1726   14.3081 C   0  0  0  0  0  0  0  0  0  0  0  0
    7.4297    7.5873   24.8962 C   0  0  0  0  0  0  0  0  0  0  0  0
    8.1566   10.0536   16.0516 O   0  0  0  0  0  0  0  0  0  0  0  0
   12.4989    6.2074   20.1776 C   0  0  0  0  0  0  0  0  0  0  0  0
    6.9192    9.1053   20.9073 O   0  0  0  0  0  0  0  0  0  0  0  0
   14.3979    6.0729   18.7784 C   0  0  0  0  0  0  0  0  0  0  0  0
    8.6811    9.5354   16.9998 C   0  0  0  0  0  0  0  0  0  0  0  0
    9.2512    4.2713   13.7653 O   0  0  0  0  0  0  0  0  0  0  0  0
    9.6495    8.6317   16.8332 N   0  0  0  0  0  0  0  0  0  0  0  0
    6.2934    8.6988   23.1988 O   0  0  0  0  0  0  0  0  0  0  0  0
    7.9806    8.6543   20.5437 C   0  0  0  0  0  0  0  0  0  0  0  0
   13.7270    5.7144   19.8610 O   0  0  0  0  0  0  0  0  0  0  0  0
    8.3351    5.5235   15.4478 C   0  0  0  0  0  0  0  0  0  0  0  0
    8.7700    7.8434   21.3915 C   0  0  0  0  0  0  0  0  0  0  0  0
   11.7856    6.8851   19.2401 C   0  0  0  0  0  0  0  0  0  0  0  0
   10.5281    7.4276   19.5649 C   0  0  0  0  0  0  0  0  0  0  0  0
   10.0256    7.2907   20.8484 C   0  0  0  0  0  0  0  0  0  0  0  0
    9.3113    5.3049   14.4911 C   0  0  0  0  0  0  0  0  0  0  0  0
    9.4607    7.5646   16.0139 C   0  0  0  0  0  0  0  0  0  0  0  0
   10.4192    7.3157   15.0955 C   0  0  0  0  0  0  0  0  0  0  0  0
   10.2489    6.4227   23.0218 N   0  0  0  0  0  0  0  0  0  0  0  0
    7.2472    8.0746   23.5050 C   0  0  0  0  0  0  0  0  0  0  0  0
    9.2051    6.9101   23.4604 C   0  0  0  0  0  0  0  0  0  0  0  0
   11.9646    6.0299   21.4251 C   0  0  0  0  0  0  0  0  0  0  0  0
  1  5  1  0
  1 13  1  0
  2 20  2  0
  2 28  1  0
  2 29  1  0
  3 19  4  0
  3 25  4  0
  4 23  4  0
  4 27  1  0
  4 30  4  0
  5 17  1  0
  6  8  1  0
  6 29  1  0
  7 24  4  0
  7 26  4  0
  8 28  1  0
  9 13  2  0
 10 18  1  0
 10 21  4  0
 10 30  4  0
 11 17  2  0
 12 18  1  0
 13 15  1  0
 14 24  1  0
 15 25  1  0
 16 28  2  0
 17 20  1  0
 19 24  4  0
 20 23  1  0
 21 22  4  0
 22 23  4  0
 25 26  4  0
 27 29  2  0
M  END
$$$$

 Created by Python create_sdf_string function

 30 33  0  0  0  0  0  0  0  0999 V2000
    8.3036    9.8571   18.4133 C   0  0  0  0  0  0  0  0  0  0  0  0
    8.3694    7.6612   22.6703 C   0  0  0  0  0  0  0  0  0  0  0  0
    8.4143    6.6863   16.2273 C   0  0  0  0  0  0  0  0  0  0  0  0
   10.7581    6.5674   21.7636 C   0  0  0  0  0  0  0  0  0  0  0  0
    8.4452    8.7960   19.2958 O   0  0  0  0  0  0  0  0  0  0  0  0
    8.7122    6.7842   24.8569 C   0  0  0  0  0  0  0  0  0  0  0  0
   10.3400    6.1726   14.3081 C   0  0  0  0  0  0  0  0  0  0  0  0
    7.4297    7.5873   24.8962 C   0  0  0  0  0  0  0  0  0  0  0  0
    8.1566   10.0536   16.0516 O   0  0  0  0  0  0  0  0  0  0  0  0
   12.4989    6.2074   20.1776 C   0  0  0  0  0  0  0  0  0  0  0  0
    6.9192    9.1053   20.9073 O   0  0  0  0  0  0  0  0  0  0  0  0
   14.3979    6.0729   18.7784 C   0  0  0  0  0  0  0  0  0  0  0  0
    8.6811    9.5354   16.9998 C   0  0  0  0  0  0  0  0  0  0  0  0
    9.2512    4.2713   13.7653 O   0  0  0  0  0  0  0  0  0  0  0  0
    9.6495    8.6317   16.8332 N   0  0  0  0  0  0  0  0  0  0  0  0
    6.2934    8.6988   23.1988 O   0  0  0  0  0  0  0  0  0  0  0  0
    7.9806    8.6543   20.5437 C   0  0  0  0  0  0  0  0  0  0  0  0
   13.7270    5.7144   19.8610 O   0  0  0  0  0  0  0  0  0  0  0  0
    8.3351    5.5235   15.4478 C   0  0  0  0  0  0  0  0  0  0  0  0
    8.7700    7.8434   21.3915 C   0  0  0  0  0  0  0  0  0  0  0  0
   11.7856    6.8851   19.2401 C   0  0  0  0  0  0  0  0  0  0  0  0
   10.5281    7.4276   19.5649 C   0  0  0  0  0  0  0  0  0  0  0  0
   10.0256    7.2907   20.8484 C   0  0  0  0  0  0  0  0  0  0  0  0
    9.3113    5.3049   14.4911 C   0  0  0  0  0  0  0  0  0  0  0  0
    9.4607    7.5646   16.0139 C   0  0  0  0  0  0  0  0  0  0  0  0
   10.4192    7.3157   15.0955 C   0  0  0  0  0  0  0  0  0  0  0  0
   10.2489    6.4227   23.0218 N   0  0  0  0  0  0  0  0  0  0  0  0
    7.2472    8.0746   23.5050 C   0  0  0  0  0  0  0  0  0  0  0  0
    9.2051    6.9101   23.4604 C   0  0  0  0  0  0  0  0  0  0  0  0
   11.9646    6.0299   21.4251 C   0  0  0  0  0  0  0  0  0  0  0  0
  1  5  1  0
  1 13  1  0
  2 20  2  0
  2 28  1  0
  2 29  1  0
  3 19  4  0
  3 25  4  0
  4 23  4  0
  4 27  1  0
  4 30  4  0
  5 17  1  0
  6  8  1  0
  6 29  1  0
  7 24  4  0
  7 26  4  0
  8 28  1  0
  9 13  2  0
 10 18  1  0
 10 21  4  0
 10 30  4  0
 11 17  2  0
 12 18  1  0
 13 15  1  0
 14 24  1  0
 15 25  1  0
 16 28  2  0
 17 20  1  0
 19 24  4  0
 20 23  1  0
 21 22  4  0
 22 23  4  0
 25 26  4  0
 27 29  2  0
M  END
$$$$

 Created by Python create_sdf_string function

 30 33  0  0  0  0  0  0  0  0999 V2000
    8.3036    9.8571   18.4133 C   0  0  0  0  0  0  0  0  0  0  0  0
    8.3694    7.6612   22.6703 C   0  0  0  0  0  0  0  0  0  0  0  0
    8.4143    6.6863   16.2273 C   0  0  0  0  0  0  0  0  0  0  0  0
   10.7581    6.5674   21.7636 C   0  0  0  0  0  0  0  0  0  0  0  0
    8.4452    8.7960   19.2958 O   0  0  0  0  0  0  0  0  0  0  0  0
    8.7122    6.7842   24.8569 C   0  0  0  0  0  0  0  0  0  0  0  0
   10.3400    6.1726   14.3081 C   0  0  0  0  0  0  0  0  0  0  0  0
    7.4297    7.5873   24.8962 C   0  0  0  0  0  0  0  0  0  0  0  0
    8.1566   10.0536   16.0516 O   0  0  0  0  0  0  0  0  0  0  0  0
   12.4989    6.2074   20.1776 C   0  0  0  0  0  0  0  0  0  0  0  0
    6.9192    9.1053   20.9073 O   0  0  0  0  0  0  0  0  0  0  0  0
   14.3979    6.0729   18.7784 C   0  0  0  0  0  0  0  0  0  0  0  0
    8.6811    9.5354   16.9998 C   0  0  0  0  0  0  0  0  0  0  0  0
    9.2512    4.2713   13.7653 O   0  0  0  0  0  0  0  0  0  0  0  0
    9.6495    8.6317   16.8332 N   0  0  0  0  0  0  0  0  0  0  0  0
    6.2934    8.6988   23.1988 O   0  0  0  0  0  0  0  0  0  0  0  0
    7.9806    8.6543   20.5437 C   0  0  0  0  0  0  0  0  0  0  0  0
   13.7270    5.7144   19.8610 O   0  0  0  0  0  0  0  0  0  0  0  0
    8.3351    5.5235   15.4478 C   0  0  0  0  0  0  0  0  0  0  0  0
    8.7700    7.8434   21.3915 C   0  0  0  0  0  0  0  0  0  0  0  0
   11.7856    6.8851   19.2401 C   0  0  0  0  0  0  0  0  0  0  0  0
   10.5281    7.4276   19.5649 C   0  0  0  0  0  0  0  0  0  0  0  0
   10.0256    7.2907   20.8484 C   0  0  0  0  0  0  0  0  0  0  0  0
    9.3113    5.3049   14.4911 C   0  0  0  0  0  0  0  0  0  0  0  0
    9.4607    7.5646   16.0139 C   0  0  0  0  0  0  0  0  0  0  0  0
   10.4192    7.3157   15.0955 C   0  0  0  0  0  0  0  0  0  0  0  0
   10.2489    6.4227   23.0218 N   0  0  0  0  0  0  0  0  0  0  0  0
    7.2472    8.0746   23.5050 C   0  0  0  0  0  0  0  0  0  0  0  0
    9.2051    6.9101   23.4604 C   0  0  0  0  0  0  0  0  0  0  0  0
   11.9646    6.0299   21.4251 C   0  0  0  0  0  0  0  0  0  0  0  0
  1  5  1  0
  1 13  1  0
  2 20  2  0
  2 28  1  0
  2 29  1  0
  3 19  4  0
  3 25  4  0
  4 23  4  0
  4 27  1  0
  4 30  4  0
  5 17  1  0
  6  8  1  0
  6 29  1  0
  7 24  4  0
  7 26  4  0
  8 28  1  0
  9 13  2  0
 10 18  1  0
 10 21  4  0
 10 30  4  0
 11 17  2  0
 12 18  1  0
 13 15  1  0
 14 24  1  0
 15 25  1  0
 16 28  2  0
 17 20  1  0
 19 24  4  0
 20 23  1  0
 21 22  4  0
 22 23  4  0
 25 26  4  0
 27 29  2  0
M  END
$$$$

 Created by Python create_sdf_string function

 30 33  0  0  0  0  0  0  0  0999 V2000
    8.3036    9.8571   18.4133 C   0  0  0  0  0  0  0  0  0  0  0  0
    8.3694    7.6612   22.6703 C   0  0  0  0  0  0  0  0  0  0  0  0
    8.4143    6.6863   16.2273 C   0  0  0  0  0  0  0  0  0  0  0  0
   10.7581    6.5674   21.7636 C   0  0  0  0  0  0  0  0  0  0  0  0
    8.4452    8.7960   19.2958 O   0  0  0  0  0  0  0  0  0  0  0  0
    8.7122    6.7842   24.8569 C   0  0  0  0  0  0  0  0  0  0  0  0
   10.3400    6.1726   14.3081 C   0  0  0  0  0  0  0  0  0  0  0  0
    7.4297    7.5873   24.8962 C   0  0  0  0  0  0  0  0  0  0  0  0
    8.1566   10.0536   16.0516 O   0  0  0  0  0  0  0  0  0  0  0  0
   12.4989    6.2074   20.1776 C   0  0  0  0  0  0  0  0  0  0  0  0
    6.9192    9.1053   20.9073 O   0  0  0  0  0  0  0  0  0  0  0  0
   14.3979    6.0729   18.7784 C   0  0  0  0  0  0  0  0  0  0  0  0
    8.6811    9.5354   16.9998 C   0  0  0  0  0  0  0  0  0  0  0  0
    9.2512    4.2713   13.7653 O   0  0  0  0  0  0  0  0  0  0  0  0
    9.6495    8.6317   16.8332 N   0  0  0  0  0  0  0  0  0  0  0  0
    6.2934    8.6988   23.1988 O   0  0  0  0  0  0  0  0  0  0  0  0
    7.9806    8.6543   20.5437 C   0  0  0  0  0  0  0  0  0  0  0  0
   13.7270    5.7144   19.8610 O   0  0  0  0  0  0  0  0  0  0  0  0
    8.3351    5.5235   15.4478 C   0  0  0  0  0  0  0  0  0  0  0  0
    8.7700    7.8434   21.3915 C   0  0  0  0  0  0  0  0  0  0  0  0
   11.7856    6.8851   19.2401 C   0  0  0  0  0  0  0  0  0  0  0  0
   10.5281    7.4276   19.5649 C   0  0  0  0  0  0  0  0  0  0  0  0
   10.0256    7.2907   20.8484 C   0  0  0  0  0  0  0  0  0  0  0  0
    9.3113    5.3049   14.4911 C   0  0  0  0  0  0  0  0  0  0  0  0
    9.4607    7.5646   16.0139 C   0  0  0  0  0  0  0  0  0  0  0  0
   10.4192    7.3157   15.0955 C   0  0  0  0  0  0  0  0  0  0  0  0
   10.2489    6.4227   23.0218 N   0  0  0  0  0  0  0  0  0  0  0  0
    7.2472    8.0746   23.5050 C   0  0  0  0  0  0  0  0  0  0  0  0
    9.2051    6.9101   23.4604 C   0  0  0  0  0  0  0  0  0  0  0  0
   11.9646    6.0299   21.4251 C   0  0  0  0  0  0  0  0  0  0  0  0
  1  5  1  0
  1 13  1  0
  2 20  2  0
  2 28  1  0
  2 29  1  0
  3 19  4  0
  3 25  4  0
  4 23  4  0
  4 27  1  0
  4 30  4  0
  5 17  1  0
  6  8  1  0
  6 29  1  0
  7 24  4  0
  7 26  4  0
  8 28  1  0
  9 13  2  0
 10 18  1  0
 10 21  4  0
 10 30  4  0
 11 17  2  0
 12 18  1  0
 13 15  1  0
 14 24  1  0
 15 25  1  0
 16 28  2  0
 17 20  1  0
 19 24  4  0
 20 23  1  0
 21 22  4  0
 22 23  4  0
 25 26  4  0
 27 29  2  0
M  END
$$$$

 Created by Python create_sdf_string function

 30 33  0  0  0  0  0  0  0  0999 V2000
    8.3036    9.8571   18.4133 C   0  0  0  0  0  0  0  0  0  0  0  0
    8.3694    7.6612   22.6703 C   0  0  0  0  0  0  0  0  0  0  0  0
    8.4143    6.6863   16.2273 C   0  0  0  0  0  0  0  0  0  0  0  0
   10.7581    6.5674   21.7636 C   0  0  0  0  0  0  0  0  0  0  0  0
    8.4452    8.7960   19.2958 O   0  0  0  0  0  0  0  0  0  0  0  0
    8.7122    6.7842   24.8569 C   0  0  0  0  0  0  0  0  0  0  0  0
   10.3400    6.1726   14.3081 C   0  0  0  0  0  0  0  0  0  0  0  0
    7.4297    7.5873   24.8962 C   0  0  0  0  0  0  0  0  0  0  0  0
    8.1566   10.0536   16.0516 O   0  0  0  0  0  0  0  0  0  0  0  0
   12.4989    6.2074   20.1776 C   0  0  0  0  0  0  0  0  0  0  0  0
    6.9192    9.1053   20.9073 O   0  0  0  0  0  0  0  0  0  0  0  0
   14.3979    6.0729   18.7784 C   0  0  0  0  0  0  0  0  0  0  0  0
    8.6811    9.5354   16.9998 C   0  0  0  0  0  0  0  0  0  0  0  0
    9.2512    4.2713   13.7653 O   0  0  0  0  0  0  0  0  0  0  0  0
    9.6495    8.6317   16.8332 N   0  0  0  0  0  0  0  0  0  0  0  0
    6.2934    8.6988   23.1988 O   0  0  0  0  0  0  0  0  0  0  0  0
    7.9806    8.6543   20.5437 C   0  0  0  0  0  0  0  0  0  0  0  0
   13.7270    5.7144   19.8610 O   0  0  0  0  0  0  0  0  0  0  0  0
    8.3351    5.5235   15.4478 C   0  0  0  0  0  0  0  0  0  0  0  0
    8.7700    7.8434   21.3915 C   0  0  0  0  0  0  0  0  0  0  0  0
   11.7856    6.8851   19.2401 C   0  0  0  0  0  0  0  0  0  0  0  0
   10.5281    7.4276   19.5649 C   0  0  0  0  0  0  0  0  0  0  0  0
   10.0256    7.2907   20.8484 C   0  0  0  0  0  0  0  0  0  0  0  0
    9.3113    5.3049   14.4911 C   0  0  0  0  0  0  0  0  0  0  0  0
    9.4607    7.5646   16.0139 C   0  0  0  0  0  0  0  0  0  0  0  0
   10.4192    7.3157   15.0955 C   0  0  0  0  0  0  0  0  0  0  0  0
   10.2489    6.4227   23.0218 N   0  0  0  0  0  0  0  0  0  0  0  0
    7.2472    8.0746   23.5050 C   0  0  0  0  0  0  0  0  0  0  0  0
    9.2051    6.9101   23.4604 C   0  0  0  0  0  0  0  0  0  0  0  0
   11.9646    6.0299   21.4251 C   0  0  0  0  0  0  0  0  0  0  0  0
  1  5  1  0
  1 13  1  0
  2 20  2  0
  2 28  1  0
  2 29  1  0
  3 19  4  0
  3 25  4  0
  4 23  4  0
  4 27  1  0
  4 30  4  0
  5 17  1  0
  6  8  1  0
  6 29  1  0
  7 24  4  0
  7 26  4  0
  8 28  1  0
  9 13  2  0
 10 18  1  0
 10 21  4  0
 10 30  4  0
 11 17  2  0
 12 18  1  0
 13 15  1  0
 14 24  1  0
 15 25  1  0
 16 28  2  0
 17 20  1  0
 19 24  4  0
 20 23  1  0
 21 22  4  0
 22 23  4  0
 25 26  4  0
 27 29  2  0
M  END
$$$$

 Created by Python create_sdf_string function

 30 33  0  0  0  0  0  0  0  0999 V2000
    8.3036    9.8571   18.4133 C   0  0  0  0  0  0  0  0  0  0  0  0
    8.3694    7.6612   22.6703 C   0  0  0  0  0  0  0  0  0  0  0  0
    8.4143    6.6863   16.2273 C   0  0  0  0  0  0  0  0  0  0  0  0
   10.7581    6.5674   21.7636 C   0  0  0  0  0  0  0  0  0  0  0  0
    8.4452    8.7960   19.2958 O   0  0  0  0  0  0  0  0  0  0  0  0
    8.7122    6.7842   24.8569 C   0  0  0  0  0  0  0  0  0  0  0  0
   10.3400    6.1726   14.3081 C   0  0  0  0  0  0  0  0  0  0  0  0
    7.4297    7.5873   24.8962 C   0  0  0  0  0  0  0  0  0  0  0  0
    8.1566   10.0536   16.0516 O   0  0  0  0  0  0  0  0  0  0  0  0
   12.4989    6.2074   20.1776 C   0  0  0  0  0  0  0  0  0  0  0  0
    6.9192    9.1053   20.9073 O   0  0  0  0  0  0  0  0  0  0  0  0
   14.3979    6.0729   18.7784 C   0  0  0  0  0  0  0  0  0  0  0  0
    8.6811    9.5354   16.9998 C   0  0  0  0  0  0  0  0  0  0  0  0
    9.2512    4.2713   13.7653 O   0  0  0  0  0  0  0  0  0  0  0  0
    9.6495    8.6317   16.8332 N   0  0  0  0  0  0  0  0  0  0  0  0
    6.2934    8.6988   23.1988 O   0  0  0  0  0  0  0  0  0  0  0  0
    7.9806    8.6543   20.5437 C   0  0  0  0  0  0  0  0  0  0  0  0
   13.7270    5.7144   19.8610 O   0  0  0  0  0  0  0  0  0  0  0  0
    8.3351    5.5235   15.4478 C   0  0  0  0  0  0  0  0  0  0  0  0
    8.7700    7.8434   21.3915 C   0  0  0  0  0  0  0  0  0  0  0  0
   11.7856    6.8851   19.2401 C   0  0  0  0  0  0  0  0  0  0  0  0
   10.5281    7.4276   19.5649 C   0  0  0  0  0  0  0  0  0  0  0  0
   10.0256    7.2907   20.8484 C   0  0  0  0  0  0  0  0  0  0  0  0
    9.3113    5.3049   14.4911 C   0  0  0  0  0  0  0  0  0  0  0  0
    9.4607    7.5646   16.0139 C   0  0  0  0  0  0  0  0  0  0  0  0
   10.4192    7.3157   15.0955 C   0  0  0  0  0  0  0  0  0  0  0  0
   10.2489    6.4227   23.0218 N   0  0  0  0  0  0  0  0  0  0  0  0
    7.2472    8.0746   23.5050 C   0  0  0  0  0  0  0  0  0  0  0  0
    9.2051    6.9101   23.4604 C   0  0  0  0  0  0  0  0  0  0  0  0
   11.9646    6.0299   21.4251 C   0  0  0  0  0  0  0  0  0  0  0  0
  1  5  1  0
  1 13  1  0
  2 20  2  0
  2 28  1  0
  2 29  1  0
  3 19  4  0
  3 25  4  0
  4 23  4  0
  4 27  1  0
  4 30  4  0
  5 17  1  0
  6  8  1  0
  6 29  1  0
  7 24  4  0
  7 26  4  0
  8 28  1  0
  9 13  2  0
 10 18  1  0
 10 21  4  0
 10 30  4  0
 11 17  2  0
 12 18  1  0
 13 15  1  0
 14 24  1  0
 15 25  1  0
 16 28  2  0
 17 20  1  0
 19 24  4  0
 20 23  1  0
 21 22  4  0
 22 23  4  0
 25 26  4  0
 27 29  2  0
M  END
$$$$

 Created by Python create_sdf_string function

 30 33  0  0  0  0  0  0  0  0999 V2000
    8.3036    9.8571   18.4133 C   0  0  0  0  0  0  0  0  0  0  0  0
    8.3694    7.6612   22.6703 C   0  0  0  0  0  0  0  0  0  0  0  0
    8.4143    6.6863   16.2273 C   0  0  0  0  0  0  0  0  0  0  0  0
   10.7581    6.5674   21.7636 C   0  0  0  0  0  0  0  0  0  0  0  0
    8.4452    8.7960   19.2958 O   0  0  0  0  0  0  0  0  0  0  0  0
    8.7122    6.7842   24.8569 C   0  0  0  0  0  0  0  0  0  0  0  0
   10.3400    6.1726   14.3081 C   0  0  0  0  0  0  0  0  0  0  0  0
    7.4297    7.5873   24.8962 C   0  0  0  0  0  0  0  0  0  0  0  0
    8.1566   10.0536   16.0516 O   0  0  0  0  0  0  0  0  0  0  0  0
   12.4989    6.2074   20.1776 C   0  0  0  0  0  0  0  0  0  0  0  0
    6.9192    9.1053   20.9073 O   0  0  0  0  0  0  0  0  0  0  0  0
   14.3979    6.0729   18.7784 C   0  0  0  0  0  0  0  0  0  0  0  0
    8.6811    9.5354   16.9998 C   0  0  0  0  0  0  0  0  0  0  0  0
    9.2512    4.2713   13.7653 O   0  0  0  0  0  0  0  0  0  0  0  0
    9.6495    8.6317   16.8332 N   0  0  0  0  0  0  0  0  0  0  0  0
    6.2934    8.6988   23.1988 O   0  0  0  0  0  0  0  0  0  0  0  0
    7.9806    8.6543   20.5437 C   0  0  0  0  0  0  0  0  0  0  0  0
   13.7270    5.7144   19.8610 O   0  0  0  0  0  0  0  0  0  0  0  0
    8.3351    5.5235   15.4478 C   0  0  0  0  0  0  0  0  0  0  0  0
    8.7700    7.8434   21.3915 C   0  0  0  0  0  0  0  0  0  0  0  0
   11.7856    6.8851   19.2401 C   0  0  0  0  0  0  0  0  0  0  0  0
   10.5281    7.4276   19.5649 C   0  0  0  0  0  0  0  0  0  0  0  0
   10.0256    7.2907   20.8484 C   0  0  0  0  0  0  0  0  0  0  0  0
    9.3113    5.3049   14.4911 C   0  0  0  0  0  0  0  0  0  0  0  0
    9.4607    7.5646   16.0139 C   0  0  0  0  0  0  0  0  0  0  0  0
   10.4192    7.3157   15.0955 C   0  0  0  0  0  0  0  0  0  0  0  0
   10.2489    6.4227   23.0218 N   0  0  0  0  0  0  0  0  0  0  0  0
    7.2472    8.0746   23.5050 C   0  0  0  0  0  0  0  0  0  0  0  0
    9.2051    6.9101   23.4604 C   0  0  0  0  0  0  0  0  0  0  0  0
   11.9646    6.0299   21.4251 C   0  0  0  0  0  0  0  0  0  0  0  0
  1  5  1  0
  1 13  1  0
  2 20  2  0
  2 28  1  0
  2 29  1  0
  3 19  4  0
  3 25  4  0
  4 23  4  0
  4 27  1  0
  4 30  4  0
  5 17  1  0
  6  8  1  0
  6 29  1  0
  7 24  4  0
  7 26  4  0
  8 28  1  0
  9 13  2  0
 10 18  1  0
 10 21  4  0
 10 30  4  0
 11 17  2  0
 12 18  1  0
 13 15  1  0
 14 24  1  0
 15 25  1  0
 16 28  2  0
 17 20  1  0
 19 24  4  0
 20 23  1  0
 21 22  4  0
 22 23  4  0
 25 26  4  0
 27 29  2  0
M  END
$$$$

 Created by Python create_sdf_string function

 30 33  0  0  0  0  0  0  0  0999 V2000
    8.3036    9.8571   18.4133 C   0  0  0  0  0  0  0  0  0  0  0  0
    8.3694    7.6612   22.6703 C   0  0  0  0  0  0  0  0  0  0  0  0
    8.4143    6.6863   16.2273 C   0  0  0  0  0  0  0  0  0  0  0  0
   10.7581    6.5674   21.7636 C   0  0  0  0  0  0  0  0  0  0  0  0
    8.4452    8.7960   19.2958 O   0  0  0  0  0  0  0  0  0  0  0  0
    8.7122    6.7842   24.8569 C   0  0  0  0  0  0  0  0  0  0  0  0
   10.3400    6.1726   14.3081 C   0  0  0  0  0  0  0  0  0  0  0  0
    7.4297    7.5873   24.8962 C   0  0  0  0  0  0  0  0  0  0  0  0
    8.1566   10.0536   16.0516 O   0  0  0  0  0  0  0  0  0  0  0  0
   12.4989    6.2074   20.1776 C   0  0  0  0  0  0  0  0  0  0  0  0
    6.9192    9.1053   20.9073 O   0  0  0  0  0  0  0  0  0  0  0  0
   14.3979    6.0729   18.7784 C   0  0  0  0  0  0  0  0  0  0  0  0
    8.6811    9.5354   16.9998 C   0  0  0  0  0  0  0  0  0  0  0  0
    9.2512    4.2713   13.7653 O   0  0  0  0  0  0  0  0  0  0  0  0
    9.6495    8.6317   16.8332 N   0  0  0  0  0  0  0  0  0  0  0  0
    6.2934    8.6988   23.1988 O   0  0  0  0  0  0  0  0  0  0  0  0
    7.9806    8.6543   20.5437 C   0  0  0  0  0  0  0  0  0  0  0  0
   13.7270    5.7144   19.8610 O   0  0  0  0  0  0  0  0  0  0  0  0
    8.3351    5.5235   15.4478 C   0  0  0  0  0  0  0  0  0  0  0  0
    8.7700    7.8434   21.3915 C   0  0  0  0  0  0  0  0  0  0  0  0
   11.7856    6.8851   19.2401 C   0  0  0  0  0  0  0  0  0  0  0  0
   10.5281    7.4276   19.5649 C   0  0  0  0  0  0  0  0  0  0  0  0
   10.0256    7.2907   20.8484 C   0  0  0  0  0  0  0  0  0  0  0  0
    9.3113    5.3049   14.4911 C   0  0  0  0  0  0  0  0  0  0  0  0
    9.4607    7.5646   16.0139 C   0  0  0  0  0  0  0  0  0  0  0  0
   10.4192    7.3157   15.0955 C   0  0  0  0  0  0  0  0  0  0  0  0
   10.2489    6.4227   23.0218 N   0  0  0  0  0  0  0  0  0  0  0  0
    7.2472    8.0746   23.5050 C   0  0  0  0  0  0  0  0  0  0  0  0
    9.2051    6.9101   23.4604 C   0  0  0  0  0  0  0  0  0  0  0  0
   11.9646    6.0299   21.4251 C   0  0  0  0  0  0  0  0  0  0  0  0
  1  5  1  0
  1 13  1  0
  2 20  2  0
  2 28  1  0
  2 29  1  0
  3 19  4  0
  3 25  4  0
  4 23  4  0
  4 27  1  0
  4 30  4  0
  5 17  1  0
  6  8  1  0
  6 29  1  0
  7 24  4  0
  7 26  4  0
  8 28  1  0
  9 13  2  0
 10 18  1  0
 10 21  4  0
 10 30  4  0
 11 17  2  0
 12 18  1  0
 13 15  1  0
 14 24  1  0
 15 25  1  0
 16 28  2  0
 17 20  1  0
 19 24  4  0
 20 23  1  0
 21 22  4  0
 22 23  4  0
 25 26  4  0
 27 29  2  0
M  END
$$$$

 Created by Python create_sdf_string function

 30 33  0  0  0  0  0  0  0  0999 V2000
    8.3036    9.8571   18.4133 C   0  0  0  0  0  0  0  0  0  0  0  0
    8.3694    7.6612   22.6703 C   0  0  0  0  0  0  0  0  0  0  0  0
    8.4143    6.6863   16.2273 C   0  0  0  0  0  0  0  0  0  0  0  0
   10.7581    6.5674   21.7636 C   0  0  0  0  0  0  0  0  0  0  0  0
    8.4452    8.7960   19.2958 O   0  0  0  0  0  0  0  0  0  0  0  0
    8.7122    6.7842   24.8569 C   0  0  0  0  0  0  0  0  0  0  0  0
   10.3400    6.1726   14.3081 C   0  0  0  0  0  0  0  0  0  0  0  0
    7.4297    7.5873   24.8962 C   0  0  0  0  0  0  0  0  0  0  0  0
    8.1566   10.0536   16.0516 O   0  0  0  0  0  0  0  0  0  0  0  0
   12.4989    6.2074   20.1776 C   0  0  0  0  0  0  0  0  0  0  0  0
    6.9192    9.1053   20.9073 O   0  0  0  0  0  0  0  0  0  0  0  0
   14.3979    6.0729   18.7784 C   0  0  0  0  0  0  0  0  0  0  0  0
    8.6811    9.5354   16.9998 C   0  0  0  0  0  0  0  0  0  0  0  0
    9.2512    4.2713   13.7653 O   0  0  0  0  0  0  0  0  0  0  0  0
    9.6495    8.6317   16.8332 N   0  0  0  0  0  0  0  0  0  0  0  0
    6.2934    8.6988   23.1988 O   0  0  0  0  0  0  0  0  0  0  0  0
    7.9806    8.6543   20.5437 C   0  0  0  0  0  0  0  0  0  0  0  0
   13.7270    5.7144   19.8610 O   0  0  0  0  0  0  0  0  0  0  0  0
    8.3351    5.5235   15.4478 C   0  0  0  0  0  0  0  0  0  0  0  0
    8.7700    7.8434   21.3915 C   0  0  0  0  0  0  0  0  0  0  0  0
   11.7856    6.8851   19.2401 C   0  0  0  0  0  0  0  0  0  0  0  0
   10.5281    7.4276   19.5649 C   0  0  0  0  0  0  0  0  0  0  0  0
   10.0256    7.2907   20.8484 C   0  0  0  0  0  0  0  0  0  0  0  0
    9.3113    5.3049   14.4911 C   0  0  0  0  0  0  0  0  0  0  0  0
    9.4607    7.5646   16.0139 C   0  0  0  0  0  0  0  0  0  0  0  0
   10.4192    7.3157   15.0955 C   0  0  0  0  0  0  0  0  0  0  0  0
   10.2489    6.4227   23.0218 N   0  0  0  0  0  0  0  0  0  0  0  0
    7.2472    8.0746   23.5050 C   0  0  0  0  0  0  0  0  0  0  0  0
    9.2051    6.9101   23.4604 C   0  0  0  0  0  0  0  0  0  0  0  0
   11.9646    6.0299   21.4251 C   0  0  0  0  0  0  0  0  0  0  0  0
  1  5  1  0
  1 13  1  0
  2 20  2  0
  2 28  1  0
  2 29  1  0
  3 19  4  0
  3 25  4  0
  4 23  4  0
  4 27  1  0
  4 30  4  0
  5 17  1  0
  6  8  1  0
  6 29  1  0
  7 24  4  0
  7 26  4  0
  8 28  1  0
  9 13  2  0
 10 18  1  0
 10 21  4  0
 10 30  4  0
 11 17  2  0
 12 18  1  0
 13 15  1  0
 14 24  1  0
 15 25  1  0
 16 28  2  0
 17 20  1  0
 19 24  4  0
 20 23  1  0
 21 22  4  0
 22 23  4  0
 25 26  4  0
 27 29  2  0
M  END
$$$$

 Created by Python create_sdf_string function

 30 33  0  0  0  0  0  0  0  0999 V2000
    8.3036    9.8571   18.4133 C   0  0  0  0  0  0  0  0  0  0  0  0
    8.3694    7.6612   22.6703 C   0  0  0  0  0  0  0  0  0  0  0  0
    8.4143    6.6863   16.2273 C   0  0  0  0  0  0  0  0  0  0  0  0
   10.7581    6.5674   21.7636 C   0  0  0  0  0  0  0  0  0  0  0  0
    8.4452    8.7960   19.2958 O   0  0  0  0  0  0  0  0  0  0  0  0
    8.7122    6.7842   24.8569 C   0  0  0  0  0  0  0  0  0  0  0  0
   10.3400    6.1726   14.3081 C   0  0  0  0  0  0  0  0  0  0  0  0
    7.4297    7.5873   24.8962 C   0  0  0  0  0  0  0  0  0  0  0  0
    8.1566   10.0536   16.0516 O   0  0  0  0  0  0  0  0  0  0  0  0
   12.4989    6.2074   20.1776 C   0  0  0  0  0  0  0  0  0  0  0  0
    6.9192    9.1053   20.9073 O   0  0  0  0  0  0  0  0  0  0  0  0
   14.3979    6.0729   18.7784 C   0  0  0  0  0  0  0  0  0  0  0  0
    8.6811    9.5354   16.9998 C   0  0  0  0  0  0  0  0  0  0  0  0
    9.2512    4.2713   13.7653 O   0  0  0  0  0  0  0  0  0  0  0  0
    9.6495    8.6317   16.8332 N   0  0  0  0  0  0  0  0  0  0  0  0
    6.2934    8.6988   23.1988 O   0  0  0  0  0  0  0  0  0  0  0  0
    7.9806    8.6543   20.5437 C   0  0  0  0  0  0  0  0  0  0  0  0
   13.7270    5.7144   19.8610 O   0  0  0  0  0  0  0  0  0  0  0  0
    8.3351    5.5235   15.4478 C   0  0  0  0  0  0  0  0  0  0  0  0
    8.7700    7.8434   21.3915 C   0  0  0  0  0  0  0  0  0  0  0  0
   11.7856    6.8851   19.2401 C   0  0  0  0  0  0  0  0  0  0  0  0
   10.5281    7.4276   19.5649 C   0  0  0  0  0  0  0  0  0  0  0  0
   10.0256    7.2907   20.8484 C   0  0  0  0  0  0  0  0  0  0  0  0
    9.3113    5.3049   14.4911 C   0  0  0  0  0  0  0  0  0  0  0  0
    9.4607    7.5646   16.0139 C   0  0  0  0  0  0  0  0  0  0  0  0
   10.4192    7.3157   15.0955 C   0  0  0  0  0  0  0  0  0  0  0  0
   10.2489    6.4227   23.0218 N   0  0  0  0  0  0  0  0  0  0  0  0
    7.2472    8.0746   23.5050 C   0  0  0  0  0  0  0  0  0  0  0  0
    9.2051    6.9101   23.4604 C   0  0  0  0  0  0  0  0  0  0  0  0
   11.9646    6.0299   21.4251 C   0  0  0  0  0  0  0  0  0  0  0  0
  1  5  1  0
  1 13  1  0
  2 20  2  0
  2 28  1  0
  2 29  1  0
  3 19  4  0
  3 25  4  0
  4 23  4  0
  4 27  1  0
  4 30  4  0
  5 17  1  0
  6  8  1  0
  6 29  1  0
  7 24  4  0
  7 26  4  0
  8 28  1  0
  9 13  2  0
 10 18  1  0
 10 21  4  0
 10 30  4  0
 11 17  2  0
 12 18  1  0
 13 15  1  0
 14 24  1  0
 15 25  1  0
 16 28  2  0
 17 20  1  0
 19 24  4  0
 20 23  1  0
 21 22  4  0
 22 23  4  0
 25 26  4  0
 27 29  2  0
M  END
$$$$

 Created by Python create_sdf_string function

 30 33  0  0  0  0  0  0  0  0999 V2000
    8.3036    9.8571   18.4133 C   0  0  0  0  0  0  0  0  0  0  0  0
    8.3694    7.6612   22.6703 C   0  0  0  0  0  0  0  0  0  0  0  0
    8.4143    6.6863   16.2273 C   0  0  0  0  0  0  0  0  0  0  0  0
   10.7581    6.5674   21.7636 C   0  0  0  0  0  0  0  0  0  0  0  0
    8.4452    8.7960   19.2958 O   0  0  0  0  0  0  0  0  0  0  0  0
    8.7122    6.7842   24.8569 C   0  0  0  0  0  0  0  0  0  0  0  0
   10.3400    6.1726   14.3081 C   0  0  0  0  0  0  0  0  0  0  0  0
    7.4297    7.5873   24.8962 C   0  0  0  0  0  0  0  0  0  0  0  0
    8.1566   10.0536   16.0516 O   0  0  0  0  0  0  0  0  0  0  0  0
   12.4989    6.2074   20.1776 C   0  0  0  0  0  0  0  0  0  0  0  0
    6.9192    9.1053   20.9073 O   0  0  0  0  0  0  0  0  0  0  0  0
   14.3979    6.0729   18.7784 C   0  0  0  0  0  0  0  0  0  0  0  0
    8.6811    9.5354   16.9998 C   0  0  0  0  0  0  0  0  0  0  0  0
    9.2512    4.2713   13.7653 O   0  0  0  0  0  0  0  0  0  0  0  0
    9.6495    8.6317   16.8332 N   0  0  0  0  0  0  0  0  0  0  0  0
    6.2934    8.6988   23.1988 O   0  0  0  0  0  0  0  0  0  0  0  0
    7.9806    8.6543   20.5437 C   0  0  0  0  0  0  0  0  0  0  0  0
   13.7270    5.7144   19.8610 O   0  0  0  0  0  0  0  0  0  0  0  0
    8.3351    5.5235   15.4478 C   0  0  0  0  0  0  0  0  0  0  0  0
    8.7700    7.8434   21.3915 C   0  0  0  0  0  0  0  0  0  0  0  0
   11.7856    6.8851   19.2401 C   0  0  0  0  0  0  0  0  0  0  0  0
   10.5281    7.4276   19.5649 C   0  0  0  0  0  0  0  0  0  0  0  0
   10.0256    7.2907   20.8484 C   0  0  0  0  0  0  0  0  0  0  0  0
    9.3113    5.3049   14.4911 C   0  0  0  0  0  0  0  0  0  0  0  0
    9.4607    7.5646   16.0139 C   0  0  0  0  0  0  0  0  0  0  0  0
   10.4192    7.3157   15.0955 C   0  0  0  0  0  0  0  0  0  0  0  0
   10.2489    6.4227   23.0218 N   0  0  0  0  0  0  0  0  0  0  0  0
    7.2472    8.0746   23.5050 C   0  0  0  0  0  0  0  0  0  0  0  0
    9.2051    6.9101   23.4604 C   0  0  0  0  0  0  0  0  0  0  0  0
   11.9646    6.0299   21.4251 C   0  0  0  0  0  0  0  0  0  0  0  0
  1  5  1  0
  1 13  1  0
  2 20  2  0
  2 28  1  0
  2 29  1  0
  3 19  4  0
  3 25  4  0
  4 23  4  0
  4 27  1  0
  4 30  4  0
  5 17  1  0
  6  8  1  0
  6 29  1  0
  7 24  4  0
  7 26  4  0
  8 28  1  0
  9 13  2  0
 10 18  1  0
 10 21  4  0
 10 30  4  0
 11 17  2  0
 12 18  1  0
 13 15  1  0
 14 24  1  0
 15 25  1  0
 16 28  2  0
 17 20  1  0
 19 24  4  0
 20 23  1  0
 21 22  4  0
 22 23  4  0
 25 26  4  0
 27 29  2  0
M  END
$$$$

 Created by Python create_sdf_string function

 30 33  0  0  0  0  0  0  0  0999 V2000
    8.3036    9.8571   18.4133 C   0  0  0  0  0  0  0  0  0  0  0  0
    8.3694    7.6612   22.6703 C   0  0  0  0  0  0  0  0  0  0  0  0
    8.4143    6.6863   16.2273 C   0  0  0  0  0  0  0  0  0  0  0  0
   10.7581    6.5674   21.7636 C   0  0  0  0  0  0  0  0  0  0  0  0
    8.4452    8.7960   19.2958 O   0  0  0  0  0  0  0  0  0  0  0  0
    8.7122    6.7842   24.8569 C   0  0  0  0  0  0  0  0  0  0  0  0
   10.3400    6.1726   14.3081 C   0  0  0  0  0  0  0  0  0  0  0  0
    7.4297    7.5873   24.8962 C   0  0  0  0  0  0  0  0  0  0  0  0
    8.1566   10.0536   16.0516 O   0  0  0  0  0  0  0  0  0  0  0  0
   12.4989    6.2074   20.1776 C   0  0  0  0  0  0  0  0  0  0  0  0
    6.9192    9.1053   20.9073 O   0  0  0  0  0  0  0  0  0  0  0  0
   14.3979    6.0729   18.7784 C   0  0  0  0  0  0  0  0  0  0  0  0
    8.6811    9.5354   16.9998 C   0  0  0  0  0  0  0  0  0  0  0  0
    9.2512    4.2713   13.7653 O   0  0  0  0  0  0  0  0  0  0  0  0
    9.6495    8.6317   16.8332 N   0  0  0  0  0  0  0  0  0  0  0  0
    6.2934    8.6988   23.1988 O   0  0  0  0  0  0  0  0  0  0  0  0
    7.9806    8.6543   20.5437 C   0  0  0  0  0  0  0  0  0  0  0  0
   13.7270    5.7144   19.8610 O   0  0  0  0  0  0  0  0  0  0  0  0
    8.3351    5.5235   15.4478 C   0  0  0  0  0  0  0  0  0  0  0  0
    8.7700    7.8434   21.3915 C   0  0  0  0  0  0  0  0  0  0  0  0
   11.7856    6.8851   19.2401 C   0  0  0  0  0  0  0  0  0  0  0  0
   10.5281    7.4276   19.5649 C   0  0  0  0  0  0  0  0  0  0  0  0
   10.0256    7.2907   20.8484 C   0  0  0  0  0  0  0  0  0  0  0  0
    9.3113    5.3049   14.4911 C   0  0  0  0  0  0  0  0  0  0  0  0
    9.4607    7.5646   16.0139 C   0  0  0  0  0  0  0  0  0  0  0  0
   10.4192    7.3157   15.0955 C   0  0  0  0  0  0  0  0  0  0  0  0
   10.2489    6.4227   23.0218 N   0  0  0  0  0  0  0  0  0  0  0  0
    7.2472    8.0746   23.5050 C   0  0  0  0  0  0  0  0  0  0  0  0
    9.2051    6.9101   23.4604 C   0  0  0  0  0  0  0  0  0  0  0  0
   11.9646    6.0299   21.4251 C   0  0  0  0  0  0  0  0  0  0  0  0
  1  5  1  0
  1 13  1  0
  2 20  2  0
  2 28  1  0
  2 29  1  0
  3 19  4  0
  3 25  4  0
  4 23  4  0
  4 27  1  0
  4 30  4  0
  5 17  1  0
  6  8  1  0
  6 29  1  0
  7 24  4  0
  7 26  4  0
  8 28  1  0
  9 13  2  0
 10 18  1  0
 10 21  4  0
 10 30  4  0
 11 17  2  0
 12 18  1  0
 13 15  1  0
 14 24  1  0
 15 25  1  0
 16 28  2  0
 17 20  1  0
 19 24  4  0
 20 23  1  0
 21 22  4  0
 22 23  4  0
 25 26  4  0
 27 29  2  0
M  END
$$$$

 Created by Python create_sdf_string function

 30 33  0  0  0  0  0  0  0  0999 V2000
    8.3036    9.8571   18.4133 C   0  0  0  0  0  0  0  0  0  0  0  0
    8.3694    7.6612   22.6703 C   0  0  0  0  0  0  0  0  0  0  0  0
    8.4143    6.6863   16.2273 C   0  0  0  0  0  0  0  0  0  0  0  0
   10.7581    6.5674   21.7636 C   0  0  0  0  0  0  0  0  0  0  0  0
    8.4452    8.7960   19.2958 O   0  0  0  0  0  0  0  0  0  0  0  0
    8.7122    6.7842   24.8569 C   0  0  0  0  0  0  0  0  0  0  0  0
   10.3400    6.1726   14.3081 C   0  0  0  0  0  0  0  0  0  0  0  0
    7.4297    7.5873   24.8962 C   0  0  0  0  0  0  0  0  0  0  0  0
    8.1566   10.0536   16.0516 O   0  0  0  0  0  0  0  0  0  0  0  0
   12.4989    6.2074   20.1776 C   0  0  0  0  0  0  0  0  0  0  0  0
    6.9192    9.1053   20.9073 O   0  0  0  0  0  0  0  0  0  0  0  0
   14.3979    6.0729   18.7784 C   0  0  0  0  0  0  0  0  0  0  0  0
    8.6811    9.5354   16.9998 C   0  0  0  0  0  0  0  0  0  0  0  0
    9.2512    4.2713   13.7653 O   0  0  0  0  0  0  0  0  0  0  0  0
    9.6495    8.6317   16.8332 N   0  0  0  0  0  0  0  0  0  0  0  0
    6.2934    8.6988   23.1988 O   0  0  0  0  0  0  0  0  0  0  0  0
    7.9806    8.6543   20.5437 C   0  0  0  0  0  0  0  0  0  0  0  0
   13.7270    5.7144   19.8610 O   0  0  0  0  0  0  0  0  0  0  0  0
    8.3351    5.5235   15.4478 C   0  0  0  0  0  0  0  0  0  0  0  0
    8.7700    7.8434   21.3915 C   0  0  0  0  0  0  0  0  0  0  0  0
   11.7856    6.8851   19.2401 C   0  0  0  0  0  0  0  0  0  0  0  0
   10.5281    7.4276   19.5649 C   0  0  0  0  0  0  0  0  0  0  0  0
   10.0256    7.2907   20.8484 C   0  0  0  0  0  0  0  0  0  0  0  0
    9.3113    5.3049   14.4911 C   0  0  0  0  0  0  0  0  0  0  0  0
    9.4607    7.5646   16.0139 C   0  0  0  0  0  0  0  0  0  0  0  0
   10.4192    7.3157   15.0955 C   0  0  0  0  0  0  0  0  0  0  0  0
   10.2489    6.4227   23.0218 N   0  0  0  0  0  0  0  0  0  0  0  0
    7.2472    8.0746   23.5050 C   0  0  0  0  0  0  0  0  0  0  0  0
    9.2051    6.9101   23.4604 C   0  0  0  0  0  0  0  0  0  0  0  0
   11.9646    6.0299   21.4251 C   0  0  0  0  0  0  0  0  0  0  0  0
  1  5  1  0
  1 13  1  0
  2 20  2  0
  2 28  1  0
  2 29  1  0
  3 19  4  0
  3 25  4  0
  4 23  4  0
  4 27  1  0
  4 30  4  0
  5 17  1  0
  6  8  1  0
  6 29  1  0
  7 24  4  0
  7 26  4  0
  8 28  1  0
  9 13  2  0
 10 18  1  0
 10 21  4  0
 10 30  4  0
 11 17  2  0
 12 18  1  0
 13 15  1  0
 14 24  1  0
 15 25  1  0
 16 28  2  0
 17 20  1  0
 19 24  4  0
 20 23  1  0
 21 22  4  0
 22 23  4  0
 25 26  4  0
 27 29  2  0
M  END
$$$$

 Created by Python create_sdf_string function

 30 33  0  0  0  0  0  0  0  0999 V2000
    8.3036    9.8571   18.4133 C   0  0  0  0  0  0  0  0  0  0  0  0
    8.3694    7.6612   22.6703 C   0  0  0  0  0  0  0  0  0  0  0  0
    8.4143    6.6863   16.2273 C   0  0  0  0  0  0  0  0  0  0  0  0
   10.7581    6.5674   21.7636 C   0  0  0  0  0  0  0  0  0  0  0  0
    8.4452    8.7960   19.2958 O   0  0  0  0  0  0  0  0  0  0  0  0
    8.7122    6.7842   24.8569 C   0  0  0  0  0  0  0  0  0  0  0  0
   10.3400    6.1726   14.3081 C   0  0  0  0  0  0  0  0  0  0  0  0
    7.4297    7.5873   24.8962 C   0  0  0  0  0  0  0  0  0  0  0  0
    8.1566   10.0536   16.0516 O   0  0  0  0  0  0  0  0  0  0  0  0
   12.4989    6.2074   20.1776 C   0  0  0  0  0  0  0  0  0  0  0  0
    6.9192    9.1053   20.9073 O   0  0  0  0  0  0  0  0  0  0  0  0
   14.3979    6.0729   18.7784 C   0  0  0  0  0  0  0  0  0  0  0  0
    8.6811    9.5354   16.9998 C   0  0  0  0  0  0  0  0  0  0  0  0
    9.2512    4.2713   13.7653 O   0  0  0  0  0  0  0  0  0  0  0  0
    9.6495    8.6317   16.8332 N   0  0  0  0  0  0  0  0  0  0  0  0
    6.2934    8.6988   23.1988 O   0  0  0  0  0  0  0  0  0  0  0  0
    7.9806    8.6543   20.5437 C   0  0  0  0  0  0  0  0  0  0  0  0
   13.7270    5.7144   19.8610 O   0  0  0  0  0  0  0  0  0  0  0  0
    8.3351    5.5235   15.4478 C   0  0  0  0  0  0  0  0  0  0  0  0
    8.7700    7.8434   21.3915 C   0  0  0  0  0  0  0  0  0  0  0  0
   11.7856    6.8851   19.2401 C   0  0  0  0  0  0  0  0  0  0  0  0
   10.5281    7.4276   19.5649 C   0  0  0  0  0  0  0  0  0  0  0  0
   10.0256    7.2907   20.8484 C   0  0  0  0  0  0  0  0  0  0  0  0
    9.3113    5.3049   14.4911 C   0  0  0  0  0  0  0  0  0  0  0  0
    9.4607    7.5646   16.0139 C   0  0  0  0  0  0  0  0  0  0  0  0
   10.4192    7.3157   15.0955 C   0  0  0  0  0  0  0  0  0  0  0  0
   10.2489    6.4227   23.0218 N   0  0  0  0  0  0  0  0  0  0  0  0
    7.2472    8.0746   23.5050 C   0  0  0  0  0  0  0  0  0  0  0  0
    9.2051    6.9101   23.4604 C   0  0  0  0  0  0  0  0  0  0  0  0
   11.9646    6.0299   21.4251 C   0  0  0  0  0  0  0  0  0  0  0  0
  1  5  1  0
  1 13  1  0
  2 20  2  0
  2 28  1  0
  2 29  1  0
  3 19  4  0
  3 25  4  0
  4 23  4  0
  4 27  1  0
  4 30  4  0
  5 17  1  0
  6  8  1  0
  6 29  1  0
  7 24  4  0
  7 26  4  0
  8 28  1  0
  9 13  2  0
 10 18  1  0
 10 21  4  0
 10 30  4  0
 11 17  2  0
 12 18  1  0
 13 15  1  0
 14 24  1  0
 15 25  1  0
 16 28  2  0
 17 20  1  0
 19 24  4  0
 20 23  1  0
 21 22  4  0
 22 23  4  0
 25 26  4  0
 27 29  2  0
M  END
$$$$

 Created by Python create_sdf_string function

 30 33  0  0  0  0  0  0  0  0999 V2000
    8.3036    9.8571   18.4133 C   0  0  0  0  0  0  0  0  0  0  0  0
    8.3694    7.6612   22.6703 C   0  0  0  0  0  0  0  0  0  0  0  0
    8.4143    6.6863   16.2273 C   0  0  0  0  0  0  0  0  0  0  0  0
   10.7581    6.5674   21.7636 C   0  0  0  0  0  0  0  0  0  0  0  0
    8.4452    8.7960   19.2958 O   0  0  0  0  0  0  0  0  0  0  0  0
    8.7122    6.7842   24.8569 C   0  0  0  0  0  0  0  0  0  0  0  0
   10.3400    6.1726   14.3081 C   0  0  0  0  0  0  0  0  0  0  0  0
    7.4297    7.5873   24.8962 C   0  0  0  0  0  0  0  0  0  0  0  0
    8.1566   10.0536   16.0516 O   0  0  0  0  0  0  0  0  0  0  0  0
   12.4989    6.2074   20.1776 C   0  0  0  0  0  0  0  0  0  0  0  0
    6.9192    9.1053   20.9073 O   0  0  0  0  0  0  0  0  0  0  0  0
   14.3979    6.0729   18.7784 C   0  0  0  0  0  0  0  0  0  0  0  0
    8.6811    9.5354   16.9998 C   0  0  0  0  0  0  0  0  0  0  0  0
    9.2512    4.2713   13.7653 O   0  0  0  0  0  0  0  0  0  0  0  0
    9.6495    8.6317   16.8332 N   0  0  0  0  0  0  0  0  0  0  0  0
    6.2934    8.6988   23.1988 O   0  0  0  0  0  0  0  0  0  0  0  0
    7.9806    8.6543   20.5437 C   0  0  0  0  0  0  0  0  0  0  0  0
   13.7270    5.7144   19.8610 O   0  0  0  0  0  0  0  0  0  0  0  0
    8.3351    5.5235   15.4478 C   0  0  0  0  0  0  0  0  0  0  0  0
    8.7700    7.8434   21.3915 C   0  0  0  0  0  0  0  0  0  0  0  0
   11.7856    6.8851   19.2401 C   0  0  0  0  0  0  0  0  0  0  0  0
   10.5281    7.4276   19.5649 C   0  0  0  0  0  0  0  0  0  0  0  0
   10.0256    7.2907   20.8484 C   0  0  0  0  0  0  0  0  0  0  0  0
    9.3113    5.3049   14.4911 C   0  0  0  0  0  0  0  0  0  0  0  0
    9.4607    7.5646   16.0139 C   0  0  0  0  0  0  0  0  0  0  0  0
   10.4192    7.3157   15.0955 C   0  0  0  0  0  0  0  0  0  0  0  0
   10.2489    6.4227   23.0218 N   0  0  0  0  0  0  0  0  0  0  0  0
    7.2472    8.0746   23.5050 C   0  0  0  0  0  0  0  0  0  0  0  0
    9.2051    6.9101   23.4604 C   0  0  0  0  0  0  0  0  0  0  0  0
   11.9646    6.0299   21.4251 C   0  0  0  0  0  0  0  0  0  0  0  0
  1  5  1  0
  1 13  1  0
  2 20  2  0
  2 28  1  0
  2 29  1  0
  3 19  4  0
  3 25  4  0
  4 23  4  0
  4 27  1  0
  4 30  4  0
  5 17  1  0
  6  8  1  0
  6 29  1  0
  7 24  4  0
  7 26  4  0
  8 28  1  0
  9 13  2  0
 10 18  1  0
 10 21  4  0
 10 30  4  0
 11 17  2  0
 12 18  1  0
 13 15  1  0
 14 24  1  0
 15 25  1  0
 16 28  2  0
 17 20  1  0
 19 24  4  0
 20 23  1  0
 21 22  4  0
 22 23  4  0
 25 26  4  0
 27 29  2  0
M  END
$$$$

 Created by Python create_sdf_string function

 30 33  0  0  0  0  0  0  0  0999 V2000
    8.3036    9.8571   18.4133 C   0  0  0  0  0  0  0  0  0  0  0  0
    8.3694    7.6612   22.6703 C   0  0  0  0  0  0  0  0  0  0  0  0
    8.4143    6.6863   16.2273 C   0  0  0  0  0  0  0  0  0  0  0  0
   10.7581    6.5674   21.7636 C   0  0  0  0  0  0  0  0  0  0  0  0
    8.4452    8.7960   19.2958 O   0  0  0  0  0  0  0  0  0  0  0  0
    8.7122    6.7842   24.8569 C   0  0  0  0  0  0  0  0  0  0  0  0
   10.3400    6.1726   14.3081 C   0  0  0  0  0  0  0  0  0  0  0  0
    7.4297    7.5873   24.8962 C   0  0  0  0  0  0  0  0  0  0  0  0
    8.1566   10.0536   16.0516 O   0  0  0  0  0  0  0  0  0  0  0  0
   12.4989    6.2074   20.1776 C   0  0  0  0  0  0  0  0  0  0  0  0
    6.9192    9.1053   20.9073 O   0  0  0  0  0  0  0  0  0  0  0  0
   14.3979    6.0729   18.7784 C   0  0  0  0  0  0  0  0  0  0  0  0
    8.6811    9.5354   16.9998 C   0  0  0  0  0  0  0  0  0  0  0  0
    9.2512    4.2713   13.7653 O   0  0  0  0  0  0  0  0  0  0  0  0
    9.6495    8.6317   16.8332 N   0  0  0  0  0  0  0  0  0  0  0  0
    6.2934    8.6988   23.1988 O   0  0  0  0  0  0  0  0  0  0  0  0
    7.9806    8.6543   20.5437 C   0  0  0  0  0  0  0  0  0  0  0  0
   13.7270    5.7144   19.8610 O   0  0  0  0  0  0  0  0  0  0  0  0
    8.3351    5.5235   15.4478 C   0  0  0  0  0  0  0  0  0  0  0  0
    8.7700    7.8434   21.3915 C   0  0  0  0  0  0  0  0  0  0  0  0
   11.7856    6.8851   19.2401 C   0  0  0  0  0  0  0  0  0  0  0  0
   10.5281    7.4276   19.5649 C   0  0  0  0  0  0  0  0  0  0  0  0
   10.0256    7.2907   20.8484 C   0  0  0  0  0  0  0  0  0  0  0  0
    9.3113    5.3049   14.4911 C   0  0  0  0  0  0  0  0  0  0  0  0
    9.4607    7.5646   16.0139 C   0  0  0  0  0  0  0  0  0  0  0  0
   10.4192    7.3157   15.0955 C   0  0  0  0  0  0  0  0  0  0  0  0
   10.2489    6.4227   23.0218 N   0  0  0  0  0  0  0  0  0  0  0  0
    7.2472    8.0746   23.5050 C   0  0  0  0  0  0  0  0  0  0  0  0
    9.2051    6.9101   23.4604 C   0  0  0  0  0  0  0  0  0  0  0  0
   11.9646    6.0299   21.4251 C   0  0  0  0  0  0  0  0  0  0  0  0
  1  5  1  0
  1 13  1  0
  2 20  2  0
  2 28  1  0
  2 29  1  0
  3 19  4  0
  3 25  4  0
  4 23  4  0
  4 27  1  0
  4 30  4  0
  5 17  1  0
  6  8  1  0
  6 29  1  0
  7 24  4  0
  7 26  4  0
  8 28  1  0
  9 13  2  0
 10 18  1  0
 10 21  4  0
 10 30  4  0
 11 17  2  0
 12 18  1  0
 13 15  1  0
 14 24  1  0
 15 25  1  0
 16 28  2  0
 17 20  1  0
 19 24  4  0
 20 23  1  0
 21 22  4  0
 22 23  4  0
 25 26  4  0
 27 29  2  0
M  END
$$$$

 Created by Python create_sdf_string function

 30 33  0  0  0  0  0  0  0  0999 V2000
    8.3036    9.8571   18.4133 C   0  0  0  0  0  0  0  0  0  0  0  0
    8.3694    7.6612   22.6703 C   0  0  0  0  0  0  0  0  0  0  0  0
    8.4143    6.6863   16.2273 C   0  0  0  0  0  0  0  0  0  0  0  0
   10.7581    6.5674   21.7636 C   0  0  0  0  0  0  0  0  0  0  0  0
    8.4452    8.7960   19.2958 O   0  0  0  0  0  0  0  0  0  0  0  0
    8.7122    6.7842   24.8569 C   0  0  0  0  0  0  0  0  0  0  0  0
   10.3400    6.1726   14.3081 C   0  0  0  0  0  0  0  0  0  0  0  0
    7.4297    7.5873   24.8962 C   0  0  0  0  0  0  0  0  0  0  0  0
    8.1566   10.0536   16.0516 O   0  0  0  0  0  0  0  0  0  0  0  0
   12.4989    6.2074   20.1776 C   0  0  0  0  0  0  0  0  0  0  0  0
    6.9192    9.1053   20.9073 O   0  0  0  0  0  0  0  0  0  0  0  0
   14.3979    6.0729   18.7784 C   0  0  0  0  0  0  0  0  0  0  0  0
    8.6811    9.5354   16.9998 C   0  0  0  0  0  0  0  0  0  0  0  0
    9.2512    4.2713   13.7653 O   0  0  0  0  0  0  0  0  0  0  0  0
    9.6495    8.6317   16.8332 N   0  0  0  0  0  0  0  0  0  0  0  0
    6.2934    8.6988   23.1988 O   0  0  0  0  0  0  0  0  0  0  0  0
    7.9806    8.6543   20.5437 C   0  0  0  0  0  0  0  0  0  0  0  0
   13.7270    5.7144   19.8610 O   0  0  0  0  0  0  0  0  0  0  0  0
    8.3351    5.5235   15.4478 C   0  0  0  0  0  0  0  0  0  0  0  0
    8.7700    7.8434   21.3915 C   0  0  0  0  0  0  0  0  0  0  0  0
   11.7856    6.8851   19.2401 C   0  0  0  0  0  0  0  0  0  0  0  0
   10.5281    7.4276   19.5649 C   0  0  0  0  0  0  0  0  0  0  0  0
   10.0256    7.2907   20.8484 C   0  0  0  0  0  0  0  0  0  0  0  0
    9.3113    5.3049   14.4911 C   0  0  0  0  0  0  0  0  0  0  0  0
    9.4607    7.5646   16.0139 C   0  0  0  0  0  0  0  0  0  0  0  0
   10.4192    7.3157   15.0955 C   0  0  0  0  0  0  0  0  0  0  0  0
   10.2489    6.4227   23.0218 N   0  0  0  0  0  0  0  0  0  0  0  0
    7.2472    8.0746   23.5050 C   0  0  0  0  0  0  0  0  0  0  0  0
    9.2051    6.9101   23.4604 C   0  0  0  0  0  0  0  0  0  0  0  0
   11.9646    6.0299   21.4251 C   0  0  0  0  0  0  0  0  0  0  0  0
  1  5  1  0
  1 13  1  0
  2 20  2  0
  2 28  1  0
  2 29  1  0
  3 19  4  0
  3 25  4  0
  4 23  4  0
  4 27  1  0
  4 30  4  0
  5 17  1  0
  6  8  1  0
  6 29  1  0
  7 24  4  0
  7 26  4  0
  8 28  1  0
  9 13  2  0
 10 18  1  0
 10 21  4  0
 10 30  4  0
 11 17  2  0
 12 18  1  0
 13 15  1  0
 14 24  1  0
 15 25  1  0
 16 28  2  0
 17 20  1  0
 19 24  4  0
 20 23  1  0
 21 22  4  0
 22 23  4  0
 25 26  4  0
 27 29  2  0
M  END
$$$$

 Created by Python create_sdf_string function

 30 33  0  0  0  0  0  0  0  0999 V2000
    8.3036    9.8571   18.4133 C   0  0  0  0  0  0  0  0  0  0  0  0
    8.3694    7.6612   22.6703 C   0  0  0  0  0  0  0  0  0  0  0  0
    8.4143    6.6863   16.2273 C   0  0  0  0  0  0  0  0  0  0  0  0
   10.7581    6.5674   21.7636 C   0  0  0  0  0  0  0  0  0  0  0  0
    8.4452    8.7960   19.2958 O   0  0  0  0  0  0  0  0  0  0  0  0
    8.7122    6.7842   24.8569 C   0  0  0  0  0  0  0  0  0  0  0  0
   10.3400    6.1726   14.3081 C   0  0  0  0  0  0  0  0  0  0  0  0
    7.4297    7.5873   24.8962 C   0  0  0  0  0  0  0  0  0  0  0  0
    8.1566   10.0536   16.0516 O   0  0  0  0  0  0  0  0  0  0  0  0
   12.4989    6.2074   20.1776 C   0  0  0  0  0  0  0  0  0  0  0  0
    6.9192    9.1053   20.9073 O   0  0  0  0  0  0  0  0  0  0  0  0
   14.3979    6.0729   18.7784 C   0  0  0  0  0  0  0  0  0  0  0  0
    8.6811    9.5354   16.9998 C   0  0  0  0  0  0  0  0  0  0  0  0
    9.2512    4.2713   13.7653 O   0  0  0  0  0  0  0  0  0  0  0  0
    9.6495    8.6317   16.8332 N   0  0  0  0  0  0  0  0  0  0  0  0
    6.2934    8.6988   23.1988 O   0  0  0  0  0  0  0  0  0  0  0  0
    7.9806    8.6543   20.5437 C   0  0  0  0  0  0  0  0  0  0  0  0
   13.7270    5.7144   19.8610 O   0  0  0  0  0  0  0  0  0  0  0  0
    8.3351    5.5235   15.4478 C   0  0  0  0  0  0  0  0  0  0  0  0
    8.7700    7.8434   21.3915 C   0  0  0  0  0  0  0  0  0  0  0  0
   11.7856    6.8851   19.2401 C   0  0  0  0  0  0  0  0  0  0  0  0
   10.5281    7.4276   19.5649 C   0  0  0  0  0  0  0  0  0  0  0  0
   10.0256    7.2907   20.8484 C   0  0  0  0  0  0  0  0  0  0  0  0
    9.3113    5.3049   14.4911 C   0  0  0  0  0  0  0  0  0  0  0  0
    9.4607    7.5646   16.0139 C   0  0  0  0  0  0  0  0  0  0  0  0
   10.4192    7.3157   15.0955 C   0  0  0  0  0  0  0  0  0  0  0  0
   10.2489    6.4227   23.0218 N   0  0  0  0  0  0  0  0  0  0  0  0
    7.2472    8.0746   23.5050 C   0  0  0  0  0  0  0  0  0  0  0  0
    9.2051    6.9101   23.4604 C   0  0  0  0  0  0  0  0  0  0  0  0
   11.9646    6.0299   21.4251 C   0  0  0  0  0  0  0  0  0  0  0  0
  1  5  1  0
  1 13  1  0
  2 20  2  0
  2 28  1  0
  2 29  1  0
  3 19  4  0
  3 25  4  0
  4 23  4  0
  4 27  1  0
  4 30  4  0
  5 17  1  0
  6  8  1  0
  6 29  1  0
  7 24  4  0
  7 26  4  0
  8 28  1  0
  9 13  2  0
 10 18  1  0
 10 21  4  0
 10 30  4  0
 11 17  2  0
 12 18  1  0
 13 15  1  0
 14 24  1  0
 15 25  1  0
 16 28  2  0
 17 20  1  0
 19 24  4  0
 20 23  1  0
 21 22  4  0
 22 23  4  0
 25 26  4  0
 27 29  2  0
M  END
$$$$

 Created by Python create_sdf_string function

 30 33  0  0  0  0  0  0  0  0999 V2000
    8.3036    9.8571   18.4133 C   0  0  0  0  0  0  0  0  0  0  0  0
    8.3694    7.6612   22.6703 C   0  0  0  0  0  0  0  0  0  0  0  0
    8.4143    6.6863   16.2273 C   0  0  0  0  0  0  0  0  0  0  0  0
   10.7581    6.5674   21.7636 C   0  0  0  0  0  0  0  0  0  0  0  0
    8.4452    8.7960   19.2958 O   0  0  0  0  0  0  0  0  0  0  0  0
    8.7122    6.7842   24.8569 C   0  0  0  0  0  0  0  0  0  0  0  0
   10.3400    6.1726   14.3081 C   0  0  0  0  0  0  0  0  0  0  0  0
    7.4297    7.5873   24.8962 C   0  0  0  0  0  0  0  0  0  0  0  0
    8.1566   10.0536   16.0516 O   0  0  0  0  0  0  0  0  0  0  0  0
   12.4989    6.2074   20.1776 C   0  0  0  0  0  0  0  0  0  0  0  0
    6.9192    9.1053   20.9073 O   0  0  0  0  0  0  0  0  0  0  0  0
   14.3979    6.0729   18.7784 C   0  0  0  0  0  0  0  0  0  0  0  0
    8.6811    9.5354   16.9998 C   0  0  0  0  0  0  0  0  0  0  0  0
    9.2512    4.2713   13.7653 O   0  0  0  0  0  0  0  0  0  0  0  0
    9.6495    8.6317   16.8332 N   0  0  0  0  0  0  0  0  0  0  0  0
    6.2934    8.6988   23.1988 O   0  0  0  0  0  0  0  0  0  0  0  0
    7.9806    8.6543   20.5437 C   0  0  0  0  0  0  0  0  0  0  0  0
   13.7270    5.7144   19.8610 O   0  0  0  0  0  0  0  0  0  0  0  0
    8.3351    5.5235   15.4478 C   0  0  0  0  0  0  0  0  0  0  0  0
    8.7700    7.8434   21.3915 C   0  0  0  0  0  0  0  0  0  0  0  0
   11.7856    6.8851   19.2401 C   0  0  0  0  0  0  0  0  0  0  0  0
   10.5281    7.4276   19.5649 C   0  0  0  0  0  0  0  0  0  0  0  0
   10.0256    7.2907   20.8484 C   0  0  0  0  0  0  0  0  0  0  0  0
    9.3113    5.3049   14.4911 C   0  0  0  0  0  0  0  0  0  0  0  0
    9.4607    7.5646   16.0139 C   0  0  0  0  0  0  0  0  0  0  0  0
   10.4192    7.3157   15.0955 C   0  0  0  0  0  0  0  0  0  0  0  0
   10.2489    6.4227   23.0218 N   0  0  0  0  0  0  0  0  0  0  0  0
    7.2472    8.0746   23.5050 C   0  0  0  0  0  0  0  0  0  0  0  0
    9.2051    6.9101   23.4604 C   0  0  0  0  0  0  0  0  0  0  0  0
   11.9646    6.0299   21.4251 C   0  0  0  0  0  0  0  0  0  0  0  0
  1  5  1  0
  1 13  1  0
  2 20  2  0
  2 28  1  0
  2 29  1  0
  3 19  4  0
  3 25  4  0
  4 23  4  0
  4 27  1  0
  4 30  4  0
  5 17  1  0
  6  8  1  0
  6 29  1  0
  7 24  4  0
  7 26  4  0
  8 28  1  0
  9 13  2  0
 10 18  1  0
 10 21  4  0
 10 30  4  0
 11 17  2  0
 12 18  1  0
 13 15  1  0
 14 24  1  0
 15 25  1  0
 16 28  2  0
 17 20  1  0
 19 24  4  0
 20 23  1  0
 21 22  4  0
 22 23  4  0
 25 26  4  0
 27 29  2  0
M  END
$$$$

 Created by Python create_sdf_string function

 30 33  0  0  0  0  0  0  0  0999 V2000
    8.3036    9.8571   18.4133 C   0  0  0  0  0  0  0  0  0  0  0  0
    8.3694    7.6612   22.6703 C   0  0  0  0  0  0  0  0  0  0  0  0
    8.4143    6.6863   16.2273 C   0  0  0  0  0  0  0  0  0  0  0  0
   10.7581    6.5674   21.7636 C   0  0  0  0  0  0  0  0  0  0  0  0
    8.4452    8.7960   19.2958 O   0  0  0  0  0  0  0  0  0  0  0  0
    8.7122    6.7842   24.8569 C   0  0  0  0  0  0  0  0  0  0  0  0
   10.3400    6.1726   14.3081 C   0  0  0  0  0  0  0  0  0  0  0  0
    7.4297    7.5873   24.8962 C   0  0  0  0  0  0  0  0  0  0  0  0
    8.1566   10.0536   16.0516 O   0  0  0  0  0  0  0  0  0  0  0  0
   12.4989    6.2074   20.1776 C   0  0  0  0  0  0  0  0  0  0  0  0
    6.9192    9.1053   20.9073 O   0  0  0  0  0  0  0  0  0  0  0  0
   14.3979    6.0729   18.7784 C   0  0  0  0  0  0  0  0  0  0  0  0
    8.6811    9.5354   16.9998 C   0  0  0  0  0  0  0  0  0  0  0  0
    9.2512    4.2713   13.7653 O   0  0  0  0  0  0  0  0  0  0  0  0
    9.6495    8.6317   16.8332 N   0  0  0  0  0  0  0  0  0  0  0  0
    6.2934    8.6988   23.1988 O   0  0  0  0  0  0  0  0  0  0  0  0
    7.9806    8.6543   20.5437 C   0  0  0  0  0  0  0  0  0  0  0  0
   13.7270    5.7144   19.8610 O   0  0  0  0  0  0  0  0  0  0  0  0
    8.3351    5.5235   15.4478 C   0  0  0  0  0  0  0  0  0  0  0  0
    8.7700    7.8434   21.3915 C   0  0  0  0  0  0  0  0  0  0  0  0
   11.7856    6.8851   19.2401 C   0  0  0  0  0  0  0  0  0  0  0  0
   10.5281    7.4276   19.5649 C   0  0  0  0  0  0  0  0  0  0  0  0
   10.0256    7.2907   20.8484 C   0  0  0  0  0  0  0  0  0  0  0  0
    9.3113    5.3049   14.4911 C   0  0  0  0  0  0  0  0  0  0  0  0
    9.4607    7.5646   16.0139 C   0  0  0  0  0  0  0  0  0  0  0  0
   10.4192    7.3157   15.0955 C   0  0  0  0  0  0  0  0  0  0  0  0
   10.2489    6.4227   23.0218 N   0  0  0  0  0  0  0  0  0  0  0  0
    7.2472    8.0746   23.5050 C   0  0  0  0  0  0  0  0  0  0  0  0
    9.2051    6.9101   23.4604 C   0  0  0  0  0  0  0  0  0  0  0  0
   11.9646    6.0299   21.4251 C   0  0  0  0  0  0  0  0  0  0  0  0
  1  5  1  0
  1 13  1  0
  2 20  2  0
  2 28  1  0
  2 29  1  0
  3 19  4  0
  3 25  4  0
  4 23  4  0
  4 27  1  0
  4 30  4  0
  5 17  1  0
  6  8  1  0
  6 29  1  0
  7 24  4  0
  7 26  4  0
  8 28  1  0
  9 13  2  0
 10 18  1  0
 10 21  4  0
 10 30  4  0
 11 17  2  0
 12 18  1  0
 13 15  1  0
 14 24  1  0
 15 25  1  0
 16 28  2  0
 17 20  1  0
 19 24  4  0
 20 23  1  0
 21 22  4  0
 22 23  4  0
 25 26  4  0
 27 29  2  0
M  END
$$$$

 Created by Python create_sdf_string function

 30 33  0  0  0  0  0  0  0  0999 V2000
    8.3036    9.8571   18.4133 C   0  0  0  0  0  0  0  0  0  0  0  0
    8.3694    7.6612   22.6703 C   0  0  0  0  0  0  0  0  0  0  0  0
    8.4143    6.6863   16.2273 C   0  0  0  0  0  0  0  0  0  0  0  0
   10.7581    6.5674   21.7636 C   0  0  0  0  0  0  0  0  0  0  0  0
    8.4452    8.7960   19.2958 O   0  0  0  0  0  0  0  0  0  0  0  0
    8.7122    6.7842   24.8569 C   0  0  0  0  0  0  0  0  0  0  0  0
   10.3400    6.1726   14.3081 C   0  0  0  0  0  0  0  0  0  0  0  0
    7.4297    7.5873   24.8962 C   0  0  0  0  0  0  0  0  0  0  0  0
    8.1566   10.0536   16.0516 O   0  0  0  0  0  0  0  0  0  0  0  0
   12.4989    6.2074   20.1776 C   0  0  0  0  0  0  0  0  0  0  0  0
    6.9192    9.1053   20.9073 O   0  0  0  0  0  0  0  0  0  0  0  0
   14.3979    6.0729   18.7784 C   0  0  0  0  0  0  0  0  0  0  0  0
    8.6811    9.5354   16.9998 C   0  0  0  0  0  0  0  0  0  0  0  0
    9.2512    4.2713   13.7653 O   0  0  0  0  0  0  0  0  0  0  0  0
    9.6495    8.6317   16.8332 N   0  0  0  0  0  0  0  0  0  0  0  0
    6.2934    8.6988   23.1988 O   0  0  0  0  0  0  0  0  0  0  0  0
    7.9806    8.6543   20.5437 C   0  0  0  0  0  0  0  0  0  0  0  0
   13.7270    5.7144   19.8610 O   0  0  0  0  0  0  0  0  0  0  0  0
    8.3351    5.5235   15.4478 C   0  0  0  0  0  0  0  0  0  0  0  0
    8.7700    7.8434   21.3915 C   0  0  0  0  0  0  0  0  0  0  0  0
   11.7856    6.8851   19.2401 C   0  0  0  0  0  0  0  0  0  0  0  0
   10.5281    7.4276   19.5649 C   0  0  0  0  0  0  0  0  0  0  0  0
   10.0256    7.2907   20.8484 C   0  0  0  0  0  0  0  0  0  0  0  0
    9.3113    5.3049   14.4911 C   0  0  0  0  0  0  0  0  0  0  0  0
    9.4607    7.5646   16.0139 C   0  0  0  0  0  0  0  0  0  0  0  0
   10.4192    7.3157   15.0955 C   0  0  0  0  0  0  0  0  0  0  0  0
   10.2489    6.4227   23.0218 N   0  0  0  0  0  0  0  0  0  0  0  0
    7.2472    8.0746   23.5050 C   0  0  0  0  0  0  0  0  0  0  0  0
    9.2051    6.9101   23.4604 C   0  0  0  0  0  0  0  0  0  0  0  0
   11.9646    6.0299   21.4251 C   0  0  0  0  0  0  0  0  0  0  0  0
  1  5  1  0
  1 13  1  0
  2 20  2  0
  2 28  1  0
  2 29  1  0
  3 19  4  0
  3 25  4  0
  4 23  4  0
  4 27  1  0
  4 30  4  0
  5 17  1  0
  6  8  1  0
  6 29  1  0
  7 24  4  0
  7 26  4  0
  8 28  1  0
  9 13  2  0
 10 18  1  0
 10 21  4  0
 10 30  4  0
 11 17  2  0
 12 18  1  0
 13 15  1  0
 14 24  1  0
 15 25  1  0
 16 28  2  0
 17 20  1  0
 19 24  4  0
 20 23  1  0
 21 22  4  0
 22 23  4  0
 25 26  4  0
 27 29  2  0
M  END
$$$$

 Created by Python create_sdf_string function

 30 33  0  0  0  0  0  0  0  0999 V2000
    8.3036    9.8571   18.4133 C   0  0  0  0  0  0  0  0  0  0  0  0
    8.3694    7.6612   22.6703 C   0  0  0  0  0  0  0  0  0  0  0  0
    8.4143    6.6863   16.2273 C   0  0  0  0  0  0  0  0  0  0  0  0
   10.7581    6.5674   21.7636 C   0  0  0  0  0  0  0  0  0  0  0  0
    8.4452    8.7960   19.2958 O   0  0  0  0  0  0  0  0  0  0  0  0
    8.7122    6.7842   24.8569 C   0  0  0  0  0  0  0  0  0  0  0  0
   10.3400    6.1726   14.3081 C   0  0  0  0  0  0  0  0  0  0  0  0
    7.4297    7.5873   24.8962 C   0  0  0  0  0  0  0  0  0  0  0  0
    8.1566   10.0536   16.0516 O   0  0  0  0  0  0  0  0  0  0  0  0
   12.4989    6.2074   20.1776 C   0  0  0  0  0  0  0  0  0  0  0  0
    6.9192    9.1053   20.9073 O   0  0  0  0  0  0  0  0  0  0  0  0
   14.3979    6.0729   18.7784 C   0  0  0  0  0  0  0  0  0  0  0  0
    8.6811    9.5354   16.9998 C   0  0  0  0  0  0  0  0  0  0  0  0
    9.2512    4.2713   13.7653 O   0  0  0  0  0  0  0  0  0  0  0  0
    9.6495    8.6317   16.8332 N   0  0  0  0  0  0  0  0  0  0  0  0
    6.2934    8.6988   23.1988 O   0  0  0  0  0  0  0  0  0  0  0  0
    7.9806    8.6543   20.5437 C   0  0  0  0  0  0  0  0  0  0  0  0
   13.7270    5.7144   19.8610 O   0  0  0  0  0  0  0  0  0  0  0  0
    8.3351    5.5235   15.4478 C   0  0  0  0  0  0  0  0  0  0  0  0
    8.7700    7.8434   21.3915 C   0  0  0  0  0  0  0  0  0  0  0  0
   11.7856    6.8851   19.2401 C   0  0  0  0  0  0  0  0  0  0  0  0
   10.5281    7.4276   19.5649 C   0  0  0  0  0  0  0  0  0  0  0  0
   10.0256    7.2907   20.8484 C   0  0  0  0  0  0  0  0  0  0  0  0
    9.3113    5.3049   14.4911 C   0  0  0  0  0  0  0  0  0  0  0  0
    9.4607    7.5646   16.0139 C   0  0  0  0  0  0  0  0  0  0  0  0
   10.4192    7.3157   15.0955 C   0  0  0  0  0  0  0  0  0  0  0  0
   10.2489    6.4227   23.0218 N   0  0  0  0  0  0  0  0  0  0  0  0
    7.2472    8.0746   23.5050 C   0  0  0  0  0  0  0  0  0  0  0  0
    9.2051    6.9101   23.4604 C   0  0  0  0  0  0  0  0  0  0  0  0
   11.9646    6.0299   21.4251 C   0  0  0  0  0  0  0  0  0  0  0  0
  1  5  1  0
  1 13  1  0
  2 20  2  0
  2 28  1  0
  2 29  1  0
  3 19  4  0
  3 25  4  0
  4 23  4  0
  4 27  1  0
  4 30  4  0
  5 17  1  0
  6  8  1  0
  6 29  1  0
  7 24  4  0
  7 26  4  0
  8 28  1  0
  9 13  2  0
 10 18  1  0
 10 21  4  0
 10 30  4  0
 11 17  2  0
 12 18  1  0
 13 15  1  0
 14 24  1  0
 15 25  1  0
 16 28  2  0
 17 20  1  0
 19 24  4  0
 20 23  1  0
 21 22  4  0
 22 23  4  0
 25 26  4  0
 27 29  2  0
M  END
$$$$

 Created by Python create_sdf_string function

 30 33  0  0  0  0  0  0  0  0999 V2000
    8.3036    9.8571   18.4133 C   0  0  0  0  0  0  0  0  0  0  0  0
    8.3694    7.6612   22.6703 C   0  0  0  0  0  0  0  0  0  0  0  0
    8.4143    6.6863   16.2273 C   0  0  0  0  0  0  0  0  0  0  0  0
   10.7581    6.5674   21.7636 C   0  0  0  0  0  0  0  0  0  0  0  0
    8.4452    8.7960   19.2958 O   0  0  0  0  0  0  0  0  0  0  0  0
    8.7122    6.7842   24.8569 C   0  0  0  0  0  0  0  0  0  0  0  0
   10.3400    6.1726   14.3081 C   0  0  0  0  0  0  0  0  0  0  0  0
    7.4297    7.5873   24.8962 C   0  0  0  0  0  0  0  0  0  0  0  0
    8.1566   10.0536   16.0516 O   0  0  0  0  0  0  0  0  0  0  0  0
   12.4989    6.2074   20.1776 C   0  0  0  0  0  0  0  0  0  0  0  0
    6.9192    9.1053   20.9073 O   0  0  0  0  0  0  0  0  0  0  0  0
   14.3979    6.0729   18.7784 C   0  0  0  0  0  0  0  0  0  0  0  0
    8.6811    9.5354   16.9998 C   0  0  0  0  0  0  0  0  0  0  0  0
    9.2512    4.2713   13.7653 O   0  0  0  0  0  0  0  0  0  0  0  0
    9.6495    8.6317   16.8332 N   0  0  0  0  0  0  0  0  0  0  0  0
    6.2934    8.6988   23.1988 O   0  0  0  0  0  0  0  0  0  0  0  0
    7.9806    8.6543   20.5437 C   0  0  0  0  0  0  0  0  0  0  0  0
   13.7270    5.7144   19.8610 O   0  0  0  0  0  0  0  0  0  0  0  0
    8.3351    5.5235   15.4478 C   0  0  0  0  0  0  0  0  0  0  0  0
    8.7700    7.8434   21.3915 C   0  0  0  0  0  0  0  0  0  0  0  0
   11.7856    6.8851   19.2401 C   0  0  0  0  0  0  0  0  0  0  0  0
   10.5281    7.4276   19.5649 C   0  0  0  0  0  0  0  0  0  0  0  0
   10.0256    7.2907   20.8484 C   0  0  0  0  0  0  0  0  0  0  0  0
    9.3113    5.3049   14.4911 C   0  0  0  0  0  0  0  0  0  0  0  0
    9.4607    7.5646   16.0139 C   0  0  0  0  0  0  0  0  0  0  0  0
   10.4192    7.3157   15.0955 C   0  0  0  0  0  0  0  0  0  0  0  0
   10.2489    6.4227   23.0218 N   0  0  0  0  0  0  0  0  0  0  0  0
    7.2472    8.0746   23.5050 C   0  0  0  0  0  0  0  0  0  0  0  0
    9.2051    6.9101   23.4604 C   0  0  0  0  0  0  0  0  0  0  0  0
   11.9646    6.0299   21.4251 C   0  0  0  0  0  0  0  0  0  0  0  0
  1  5  1  0
  1 13  1  0
  2 20  2  0
  2 28  1  0
  2 29  1  0
  3 19  4  0
  3 25  4  0
  4 23  4  0
  4 27  1  0
  4 30  4  0
  5 17  1  0
  6  8  1  0
  6 29  1  0
  7 24  4  0
  7 26  4  0
  8 28  1  0
  9 13  2  0
 10 18  1  0
 10 21  4  0
 10 30  4  0
 11 17  2  0
 12 18  1  0
 13 15  1  0
 14 24  1  0
 15 25  1  0
 16 28  2  0
 17 20  1  0
 19 24  4  0
 20 23  1  0
 21 22  4  0
 22 23  4  0
 25 26  4  0
 27 29  2  0
M  END
$$$$

 Created by Python create_sdf_string function

 30 33  0  0  0  0  0  0  0  0999 V2000
    8.3036    9.8571   18.4133 C   0  0  0  0  0  0  0  0  0  0  0  0
    8.3694    7.6612   22.6703 C   0  0  0  0  0  0  0  0  0  0  0  0
    8.4143    6.6863   16.2273 C   0  0  0  0  0  0  0  0  0  0  0  0
   10.7581    6.5674   21.7636 C   0  0  0  0  0  0  0  0  0  0  0  0
    8.4452    8.7960   19.2958 O   0  0  0  0  0  0  0  0  0  0  0  0
    8.7122    6.7842   24.8569 C   0  0  0  0  0  0  0  0  0  0  0  0
   10.3400    6.1726   14.3081 C   0  0  0  0  0  0  0  0  0  0  0  0
    7.4297    7.5873   24.8962 C   0  0  0  0  0  0  0  0  0  0  0  0
    8.1566   10.0536   16.0516 O   0  0  0  0  0  0  0  0  0  0  0  0
   12.4989    6.2074   20.1776 C   0  0  0  0  0  0  0  0  0  0  0  0
    6.9192    9.1053   20.9073 O   0  0  0  0  0  0  0  0  0  0  0  0
   14.3979    6.0729   18.7784 C   0  0  0  0  0  0  0  0  0  0  0  0
    8.6811    9.5354   16.9998 C   0  0  0  0  0  0  0  0  0  0  0  0
    9.2512    4.2713   13.7653 O   0  0  0  0  0  0  0  0  0  0  0  0
    9.6495    8.6317   16.8332 N   0  0  0  0  0  0  0  0  0  0  0  0
    6.2934    8.6988   23.1988 O   0  0  0  0  0  0  0  0  0  0  0  0
    7.9806    8.6543   20.5437 C   0  0  0  0  0  0  0  0  0  0  0  0
   13.7270    5.7144   19.8610 O   0  0  0  0  0  0  0  0  0  0  0  0
    8.3351    5.5235   15.4478 C   0  0  0  0  0  0  0  0  0  0  0  0
    8.7700    7.8434   21.3915 C   0  0  0  0  0  0  0  0  0  0  0  0
   11.7856    6.8851   19.2401 C   0  0  0  0  0  0  0  0  0  0  0  0
   10.5281    7.4276   19.5649 C   0  0  0  0  0  0  0  0  0  0  0  0
   10.0256    7.2907   20.8484 C   0  0  0  0  0  0  0  0  0  0  0  0
    9.3113    5.3049   14.4911 C   0  0  0  0  0  0  0  0  0  0  0  0
    9.4607    7.5646   16.0139 C   0  0  0  0  0  0  0  0  0  0  0  0
   10.4192    7.3157   15.0955 C   0  0  0  0  0  0  0  0  0  0  0  0
   10.2489    6.4227   23.0218 N   0  0  0  0  0  0  0  0  0  0  0  0
    7.2472    8.0746   23.5050 C   0  0  0  0  0  0  0  0  0  0  0  0
    9.2051    6.9101   23.4604 C   0  0  0  0  0  0  0  0  0  0  0  0
   11.9646    6.0299   21.4251 C   0  0  0  0  0  0  0  0  0  0  0  0
  1  5  1  0
  1 13  1  0
  2 20  2  0
  2 28  1  0
  2 29  1  0
  3 19  4  0
  3 25  4  0
  4 23  4  0
  4 27  1  0
  4 30  4  0
  5 17  1  0
  6  8  1  0
  6 29  1  0
  7 24  4  0
  7 26  4  0
  8 28  1  0
  9 13  2  0
 10 18  1  0
 10 21  4  0
 10 30  4  0
 11 17  2  0
 12 18  1  0
 13 15  1  0
 14 24  1  0
 15 25  1  0
 16 28  2  0
 17 20  1  0
 19 24  4  0
 20 23  1  0
 21 22  4  0
 22 23  4  0
 25 26  4  0
 27 29  2  0
M  END
$$$$

 Created by Python create_sdf_string function

 30 33  0  0  0  0  0  0  0  0999 V2000
    8.3036    9.8571   18.4133 C   0  0  0  0  0  0  0  0  0  0  0  0
    8.3694    7.6612   22.6703 C   0  0  0  0  0  0  0  0  0  0  0  0
    8.4143    6.6863   16.2273 C   0  0  0  0  0  0  0  0  0  0  0  0
   10.7581    6.5674   21.7636 C   0  0  0  0  0  0  0  0  0  0  0  0
    8.4452    8.7960   19.2958 O   0  0  0  0  0  0  0  0  0  0  0  0
    8.7122    6.7842   24.8569 C   0  0  0  0  0  0  0  0  0  0  0  0
   10.3400    6.1726   14.3081 C   0  0  0  0  0  0  0  0  0  0  0  0
    7.4297    7.5873   24.8962 C   0  0  0  0  0  0  0  0  0  0  0  0
    8.1566   10.0536   16.0516 O   0  0  0  0  0  0  0  0  0  0  0  0
   12.4989    6.2074   20.1776 C   0  0  0  0  0  0  0  0  0  0  0  0
    6.9192    9.1053   20.9073 O   0  0  0  0  0  0  0  0  0  0  0  0
   14.3979    6.0729   18.7784 C   0  0  0  0  0  0  0  0  0  0  0  0
    8.6811    9.5354   16.9998 C   0  0  0  0  0  0  0  0  0  0  0  0
    9.2512    4.2713   13.7653 O   0  0  0  0  0  0  0  0  0  0  0  0
    9.6495    8.6317   16.8332 N   0  0  0  0  0  0  0  0  0  0  0  0
    6.2934    8.6988   23.1988 O   0  0  0  0  0  0  0  0  0  0  0  0
    7.9806    8.6543   20.5437 C   0  0  0  0  0  0  0  0  0  0  0  0
   13.7270    5.7144   19.8610 O   0  0  0  0  0  0  0  0  0  0  0  0
    8.3351    5.5235   15.4478 C   0  0  0  0  0  0  0  0  0  0  0  0
    8.7700    7.8434   21.3915 C   0  0  0  0  0  0  0  0  0  0  0  0
   11.7856    6.8851   19.2401 C   0  0  0  0  0  0  0  0  0  0  0  0
   10.5281    7.4276   19.5649 C   0  0  0  0  0  0  0  0  0  0  0  0
   10.0256    7.2907   20.8484 C   0  0  0  0  0  0  0  0  0  0  0  0
    9.3113    5.3049   14.4911 C   0  0  0  0  0  0  0  0  0  0  0  0
    9.4607    7.5646   16.0139 C   0  0  0  0  0  0  0  0  0  0  0  0
   10.4192    7.3157   15.0955 C   0  0  0  0  0  0  0  0  0  0  0  0
   10.2489    6.4227   23.0218 N   0  0  0  0  0  0  0  0  0  0  0  0
    7.2472    8.0746   23.5050 C   0  0  0  0  0  0  0  0  0  0  0  0
    9.2051    6.9101   23.4604 C   0  0  0  0  0  0  0  0  0  0  0  0
   11.9646    6.0299   21.4251 C   0  0  0  0  0  0  0  0  0  0  0  0
  1  5  1  0
  1 13  1  0
  2 20  2  0
  2 28  1  0
  2 29  1  0
  3 19  4  0
  3 25  4  0
  4 23  4  0
  4 27  1  0
  4 30  4  0
  5 17  1  0
  6  8  1  0
  6 29  1  0
  7 24  4  0
  7 26  4  0
  8 28  1  0
  9 13  2  0
 10 18  1  0
 10 21  4  0
 10 30  4  0
 11 17  2  0
 12 18  1  0
 13 15  1  0
 14 24  1  0
 15 25  1  0
 16 28  2  0
 17 20  1  0
 19 24  4  0
 20 23  1  0
 21 22  4  0
 22 23  4  0
 25 26  4  0
 27 29  2  0
M  END
$$$$

 Created by Python create_sdf_string function

 30 33  0  0  0  0  0  0  0  0999 V2000
    8.3036    9.8571   18.4133 C   0  0  0  0  0  0  0  0  0  0  0  0
    8.3694    7.6612   22.6703 C   0  0  0  0  0  0  0  0  0  0  0  0
    8.4143    6.6863   16.2273 C   0  0  0  0  0  0  0  0  0  0  0  0
   10.7581    6.5674   21.7636 C   0  0  0  0  0  0  0  0  0  0  0  0
    8.4452    8.7960   19.2958 O   0  0  0  0  0  0  0  0  0  0  0  0
    8.7122    6.7842   24.8569 C   0  0  0  0  0  0  0  0  0  0  0  0
   10.3400    6.1726   14.3081 C   0  0  0  0  0  0  0  0  0  0  0  0
    7.4297    7.5873   24.8962 C   0  0  0  0  0  0  0  0  0  0  0  0
    8.1566   10.0536   16.0516 O   0  0  0  0  0  0  0  0  0  0  0  0
   12.4989    6.2074   20.1776 C   0  0  0  0  0  0  0  0  0  0  0  0
    6.9192    9.1053   20.9073 O   0  0  0  0  0  0  0  0  0  0  0  0
   14.3979    6.0729   18.7784 C   0  0  0  0  0  0  0  0  0  0  0  0
    8.6811    9.5354   16.9998 C   0  0  0  0  0  0  0  0  0  0  0  0
    9.2512    4.2713   13.7653 O   0  0  0  0  0  0  0  0  0  0  0  0
    9.6495    8.6317   16.8332 N   0  0  0  0  0  0  0  0  0  0  0  0
    6.2934    8.6988   23.1988 O   0  0  0  0  0  0  0  0  0  0  0  0
    7.9806    8.6543   20.5437 C   0  0  0  0  0  0  0  0  0  0  0  0
   13.7270    5.7144   19.8610 O   0  0  0  0  0  0  0  0  0  0  0  0
    8.3351    5.5235   15.4478 C   0  0  0  0  0  0  0  0  0  0  0  0
    8.7700    7.8434   21.3915 C   0  0  0  0  0  0  0  0  0  0  0  0
   11.7856    6.8851   19.2401 C   0  0  0  0  0  0  0  0  0  0  0  0
   10.5281    7.4276   19.5649 C   0  0  0  0  0  0  0  0  0  0  0  0
   10.0256    7.2907   20.8484 C   0  0  0  0  0  0  0  0  0  0  0  0
    9.3113    5.3049   14.4911 C   0  0  0  0  0  0  0  0  0  0  0  0
    9.4607    7.5646   16.0139 C   0  0  0  0  0  0  0  0  0  0  0  0
   10.4192    7.3157   15.0955 C   0  0  0  0  0  0  0  0  0  0  0  0
   10.2489    6.4227   23.0218 N   0  0  0  0  0  0  0  0  0  0  0  0
    7.2472    8.0746   23.5050 C   0  0  0  0  0  0  0  0  0  0  0  0
    9.2051    6.9101   23.4604 C   0  0  0  0  0  0  0  0  0  0  0  0
   11.9646    6.0299   21.4251 C   0  0  0  0  0  0  0  0  0  0  0  0
  1  5  1  0
  1 13  1  0
  2 20  2  0
  2 28  1  0
  2 29  1  0
  3 19  4  0
  3 25  4  0
  4 23  4  0
  4 27  1  0
  4 30  4  0
  5 17  1  0
  6  8  1  0
  6 29  1  0
  7 24  4  0
  7 26  4  0
  8 28  1  0
  9 13  2  0
 10 18  1  0
 10 21  4  0
 10 30  4  0
 11 17  2  0
 12 18  1  0
 13 15  1  0
 14 24  1  0
 15 25  1  0
 16 28  2  0
 17 20  1  0
 19 24  4  0
 20 23  1  0
 21 22  4  0
 22 23  4  0
 25 26  4  0
 27 29  2  0
M  END
$$$$

 Created by Python create_sdf_string function

 30 33  0  0  0  0  0  0  0  0999 V2000
    8.3036    9.8571   18.4133 C   0  0  0  0  0  0  0  0  0  0  0  0
    8.3694    7.6612   22.6703 C   0  0  0  0  0  0  0  0  0  0  0  0
    8.4143    6.6863   16.2273 C   0  0  0  0  0  0  0  0  0  0  0  0
   10.7581    6.5674   21.7636 C   0  0  0  0  0  0  0  0  0  0  0  0
    8.4452    8.7960   19.2958 O   0  0  0  0  0  0  0  0  0  0  0  0
    8.7122    6.7842   24.8569 C   0  0  0  0  0  0  0  0  0  0  0  0
   10.3400    6.1726   14.3081 C   0  0  0  0  0  0  0  0  0  0  0  0
    7.4297    7.5873   24.8962 C   0  0  0  0  0  0  0  0  0  0  0  0
    8.1566   10.0536   16.0516 O   0  0  0  0  0  0  0  0  0  0  0  0
   12.4989    6.2074   20.1776 C   0  0  0  0  0  0  0  0  0  0  0  0
    6.9192    9.1053   20.9073 O   0  0  0  0  0  0  0  0  0  0  0  0
   14.3979    6.0729   18.7784 C   0  0  0  0  0  0  0  0  0  0  0  0
    8.6811    9.5354   16.9998 C   0  0  0  0  0  0  0  0  0  0  0  0
    9.2512    4.2713   13.7653 O   0  0  0  0  0  0  0  0  0  0  0  0
    9.6495    8.6317   16.8332 N   0  0  0  0  0  0  0  0  0  0  0  0
    6.2934    8.6988   23.1988 O   0  0  0  0  0  0  0  0  0  0  0  0
    7.9806    8.6543   20.5437 C   0  0  0  0  0  0  0  0  0  0  0  0
   13.7270    5.7144   19.8610 O   0  0  0  0  0  0  0  0  0  0  0  0
    8.3351    5.5235   15.4478 C   0  0  0  0  0  0  0  0  0  0  0  0
    8.7700    7.8434   21.3915 C   0  0  0  0  0  0  0  0  0  0  0  0
   11.7856    6.8851   19.2401 C   0  0  0  0  0  0  0  0  0  0  0  0
   10.5281    7.4276   19.5649 C   0  0  0  0  0  0  0  0  0  0  0  0
   10.0256    7.2907   20.8484 C   0  0  0  0  0  0  0  0  0  0  0  0
    9.3113    5.3049   14.4911 C   0  0  0  0  0  0  0  0  0  0  0  0
    9.4607    7.5646   16.0139 C   0  0  0  0  0  0  0  0  0  0  0  0
   10.4192    7.3157   15.0955 C   0  0  0  0  0  0  0  0  0  0  0  0
   10.2489    6.4227   23.0218 N   0  0  0  0  0  0  0  0  0  0  0  0
    7.2472    8.0746   23.5050 C   0  0  0  0  0  0  0  0  0  0  0  0
    9.2051    6.9101   23.4604 C   0  0  0  0  0  0  0  0  0  0  0  0
   11.9646    6.0299   21.4251 C   0  0  0  0  0  0  0  0  0  0  0  0
  1  5  1  0
  1 13  1  0
  2 20  2  0
  2 28  1  0
  2 29  1  0
  3 19  4  0
  3 25  4  0
  4 23  4  0
  4 27  1  0
  4 30  4  0
  5 17  1  0
  6  8  1  0
  6 29  1  0
  7 24  4  0
  7 26  4  0
  8 28  1  0
  9 13  2  0
 10 18  1  0
 10 21  4  0
 10 30  4  0
 11 17  2  0
 12 18  1  0
 13 15  1  0
 14 24  1  0
 15 25  1  0
 16 28  2  0
 17 20  1  0
 19 24  4  0
 20 23  1  0
 21 22  4  0
 22 23  4  0
 25 26  4  0
 27 29  2  0
M  END
$$$$

 Created by Python create_sdf_string function

 30 33  0  0  0  0  0  0  0  0999 V2000
    8.3036    9.8571   18.4133 C   0  0  0  0  0  0  0  0  0  0  0  0
    8.3694    7.6612   22.6703 C   0  0  0  0  0  0  0  0  0  0  0  0
    8.4143    6.6863   16.2273 C   0  0  0  0  0  0  0  0  0  0  0  0
   10.7581    6.5674   21.7636 C   0  0  0  0  0  0  0  0  0  0  0  0
    8.4452    8.7960   19.2958 O   0  0  0  0  0  0  0  0  0  0  0  0
    8.7122    6.7842   24.8569 C   0  0  0  0  0  0  0  0  0  0  0  0
   10.3400    6.1726   14.3081 C   0  0  0  0  0  0  0  0  0  0  0  0
    7.4297    7.5873   24.8962 C   0  0  0  0  0  0  0  0  0  0  0  0
    8.1566   10.0536   16.0516 O   0  0  0  0  0  0  0  0  0  0  0  0
   12.4989    6.2074   20.1776 C   0  0  0  0  0  0  0  0  0  0  0  0
    6.9192    9.1053   20.9073 O   0  0  0  0  0  0  0  0  0  0  0  0
   14.3979    6.0729   18.7784 C   0  0  0  0  0  0  0  0  0  0  0  0
    8.6811    9.5354   16.9998 C   0  0  0  0  0  0  0  0  0  0  0  0
    9.2512    4.2713   13.7653 O   0  0  0  0  0  0  0  0  0  0  0  0
    9.6495    8.6317   16.8332 N   0  0  0  0  0  0  0  0  0  0  0  0
    6.2934    8.6988   23.1988 O   0  0  0  0  0  0  0  0  0  0  0  0
    7.9806    8.6543   20.5437 C   0  0  0  0  0  0  0  0  0  0  0  0
   13.7270    5.7144   19.8610 O   0  0  0  0  0  0  0  0  0  0  0  0
    8.3351    5.5235   15.4478 C   0  0  0  0  0  0  0  0  0  0  0  0
    8.7700    7.8434   21.3915 C   0  0  0  0  0  0  0  0  0  0  0  0
   11.7856    6.8851   19.2401 C   0  0  0  0  0  0  0  0  0  0  0  0
   10.5281    7.4276   19.5649 C   0  0  0  0  0  0  0  0  0  0  0  0
   10.0256    7.2907   20.8484 C   0  0  0  0  0  0  0  0  0  0  0  0
    9.3113    5.3049   14.4911 C   0  0  0  0  0  0  0  0  0  0  0  0
    9.4607    7.5646   16.0139 C   0  0  0  0  0  0  0  0  0  0  0  0
   10.4192    7.3157   15.0955 C   0  0  0  0  0  0  0  0  0  0  0  0
   10.2489    6.4227   23.0218 N   0  0  0  0  0  0  0  0  0  0  0  0
    7.2472    8.0746   23.5050 C   0  0  0  0  0  0  0  0  0  0  0  0
    9.2051    6.9101   23.4604 C   0  0  0  0  0  0  0  0  0  0  0  0
   11.9646    6.0299   21.4251 C   0  0  0  0  0  0  0  0  0  0  0  0
  1  5  1  0
  1 13  1  0
  2 20  2  0
  2 28  1  0
  2 29  1  0
  3 19  4  0
  3 25  4  0
  4 23  4  0
  4 27  1  0
  4 30  4  0
  5 17  1  0
  6  8  1  0
  6 29  1  0
  7 24  4  0
  7 26  4  0
  8 28  1  0
  9 13  2  0
 10 18  1  0
 10 21  4  0
 10 30  4  0
 11 17  2  0
 12 18  1  0
 13 15  1  0
 14 24  1  0
 15 25  1  0
 16 28  2  0
 17 20  1  0
 19 24  4  0
 20 23  1  0
 21 22  4  0
 22 23  4  0
 25 26  4  0
 27 29  2  0
M  END
$$$$

 Created by Python create_sdf_string function

 30 33  0  0  0  0  0  0  0  0999 V2000
    8.3036    9.8571   18.4133 C   0  0  0  0  0  0  0  0  0  0  0  0
    8.3694    7.6612   22.6703 C   0  0  0  0  0  0  0  0  0  0  0  0
    8.4143    6.6863   16.2273 C   0  0  0  0  0  0  0  0  0  0  0  0
   10.7581    6.5674   21.7636 C   0  0  0  0  0  0  0  0  0  0  0  0
    8.4452    8.7960   19.2958 O   0  0  0  0  0  0  0  0  0  0  0  0
    8.7122    6.7842   24.8569 C   0  0  0  0  0  0  0  0  0  0  0  0
   10.3400    6.1726   14.3081 C   0  0  0  0  0  0  0  0  0  0  0  0
    7.4297    7.5873   24.8962 C   0  0  0  0  0  0  0  0  0  0  0  0
    8.1566   10.0536   16.0516 O   0  0  0  0  0  0  0  0  0  0  0  0
   12.4989    6.2074   20.1776 C   0  0  0  0  0  0  0  0  0  0  0  0
    6.9192    9.1053   20.9073 O   0  0  0  0  0  0  0  0  0  0  0  0
   14.3979    6.0729   18.7784 C   0  0  0  0  0  0  0  0  0  0  0  0
    8.6811    9.5354   16.9998 C   0  0  0  0  0  0  0  0  0  0  0  0
    9.2512    4.2713   13.7653 O   0  0  0  0  0  0  0  0  0  0  0  0
    9.6495    8.6317   16.8332 N   0  0  0  0  0  0  0  0  0  0  0  0
    6.2934    8.6988   23.1988 O   0  0  0  0  0  0  0  0  0  0  0  0
    7.9806    8.6543   20.5437 C   0  0  0  0  0  0  0  0  0  0  0  0
   13.7270    5.7144   19.8610 O   0  0  0  0  0  0  0  0  0  0  0  0
    8.3351    5.5235   15.4478 C   0  0  0  0  0  0  0  0  0  0  0  0
    8.7700    7.8434   21.3915 C   0  0  0  0  0  0  0  0  0  0  0  0
   11.7856    6.8851   19.2401 C   0  0  0  0  0  0  0  0  0  0  0  0
   10.5281    7.4276   19.5649 C   0  0  0  0  0  0  0  0  0  0  0  0
   10.0256    7.2907   20.8484 C   0  0  0  0  0  0  0  0  0  0  0  0
    9.3113    5.3049   14.4911 C   0  0  0  0  0  0  0  0  0  0  0  0
    9.4607    7.5646   16.0139 C   0  0  0  0  0  0  0  0  0  0  0  0
   10.4192    7.3157   15.0955 C   0  0  0  0  0  0  0  0  0  0  0  0
   10.2489    6.4227   23.0218 N   0  0  0  0  0  0  0  0  0  0  0  0
    7.2472    8.0746   23.5050 C   0  0  0  0  0  0  0  0  0  0  0  0
    9.2051    6.9101   23.4604 C   0  0  0  0  0  0  0  0  0  0  0  0
   11.9646    6.0299   21.4251 C   0  0  0  0  0  0  0  0  0  0  0  0
  1  5  1  0
  1 13  1  0
  2 20  2  0
  2 28  1  0
  2 29  1  0
  3 19  4  0
  3 25  4  0
  4 23  4  0
  4 27  1  0
  4 30  4  0
  5 17  1  0
  6  8  1  0
  6 29  1  0
  7 24  4  0
  7 26  4  0
  8 28  1  0
  9 13  2  0
 10 18  1  0
 10 21  4  0
 10 30  4  0
 11 17  2  0
 12 18  1  0
 13 15  1  0
 14 24  1  0
 15 25  1  0
 16 28  2  0
 17 20  1  0
 19 24  4  0
 20 23  1  0
 21 22  4  0
 22 23  4  0
 25 26  4  0
 27 29  2  0
M  END
$$$$

 Created by Python create_sdf_string function

 30 33  0  0  0  0  0  0  0  0999 V2000
    8.3036    9.8571   18.4133 C   0  0  0  0  0  0  0  0  0  0  0  0
    8.3694    7.6612   22.6703 C   0  0  0  0  0  0  0  0  0  0  0  0
    8.4143    6.6863   16.2273 C   0  0  0  0  0  0  0  0  0  0  0  0
   10.7581    6.5674   21.7636 C   0  0  0  0  0  0  0  0  0  0  0  0
    8.4452    8.7960   19.2958 O   0  0  0  0  0  0  0  0  0  0  0  0
    8.7122    6.7842   24.8569 C   0  0  0  0  0  0  0  0  0  0  0  0
   10.3400    6.1726   14.3081 C   0  0  0  0  0  0  0  0  0  0  0  0
    7.4297    7.5873   24.8962 C   0  0  0  0  0  0  0  0  0  0  0  0
    8.1566   10.0536   16.0516 O   0  0  0  0  0  0  0  0  0  0  0  0
   12.4989    6.2074   20.1776 C   0  0  0  0  0  0  0  0  0  0  0  0
    6.9192    9.1053   20.9073 O   0  0  0  0  0  0  0  0  0  0  0  0
   14.3979    6.0729   18.7784 C   0  0  0  0  0  0  0  0  0  0  0  0
    8.6811    9.5354   16.9998 C   0  0  0  0  0  0  0  0  0  0  0  0
    9.2512    4.2713   13.7653 O   0  0  0  0  0  0  0  0  0  0  0  0
    9.6495    8.6317   16.8332 N   0  0  0  0  0  0  0  0  0  0  0  0
    6.2934    8.6988   23.1988 O   0  0  0  0  0  0  0  0  0  0  0  0
    7.9806    8.6543   20.5437 C   0  0  0  0  0  0  0  0  0  0  0  0
   13.7270    5.7144   19.8610 O   0  0  0  0  0  0  0  0  0  0  0  0
    8.3351    5.5235   15.4478 C   0  0  0  0  0  0  0  0  0  0  0  0
    8.7700    7.8434   21.3915 C   0  0  0  0  0  0  0  0  0  0  0  0
   11.7856    6.8851   19.2401 C   0  0  0  0  0  0  0  0  0  0  0  0
   10.5281    7.4276   19.5649 C   0  0  0  0  0  0  0  0  0  0  0  0
   10.0256    7.2907   20.8484 C   0  0  0  0  0  0  0  0  0  0  0  0
    9.3113    5.3049   14.4911 C   0  0  0  0  0  0  0  0  0  0  0  0
    9.4607    7.5646   16.0139 C   0  0  0  0  0  0  0  0  0  0  0  0
   10.4192    7.3157   15.0955 C   0  0  0  0  0  0  0  0  0  0  0  0
   10.2489    6.4227   23.0218 N   0  0  0  0  0  0  0  0  0  0  0  0
    7.2472    8.0746   23.5050 C   0  0  0  0  0  0  0  0  0  0  0  0
    9.2051    6.9101   23.4604 C   0  0  0  0  0  0  0  0  0  0  0  0
   11.9646    6.0299   21.4251 C   0  0  0  0  0  0  0  0  0  0  0  0
  1  5  1  0
  1 13  1  0
  2 20  2  0
  2 28  1  0
  2 29  1  0
  3 19  4  0
  3 25  4  0
  4 23  4  0
  4 27  1  0
  4 30  4  0
  5 17  1  0
  6  8  1  0
  6 29  1  0
  7 24  4  0
  7 26  4  0
  8 28  1  0
  9 13  2  0
 10 18  1  0
 10 21  4  0
 10 30  4  0
 11 17  2  0
 12 18  1  0
 13 15  1  0
 14 24  1  0
 15 25  1  0
 16 28  2  0
 17 20  1  0
 19 24  4  0
 20 23  1  0
 21 22  4  0
 22 23  4  0
 25 26  4  0
 27 29  2  0
M  END
$$$$

 Created by Python create_sdf_string function

 30 33  0  0  0  0  0  0  0  0999 V2000
    8.3036    9.8571   18.4133 C   0  0  0  0  0  0  0  0  0  0  0  0
    8.3694    7.6612   22.6703 C   0  0  0  0  0  0  0  0  0  0  0  0
    8.4143    6.6863   16.2273 C   0  0  0  0  0  0  0  0  0  0  0  0
   10.7581    6.5674   21.7636 C   0  0  0  0  0  0  0  0  0  0  0  0
    8.4452    8.7960   19.2958 O   0  0  0  0  0  0  0  0  0  0  0  0
    8.7122    6.7842   24.8569 C   0  0  0  0  0  0  0  0  0  0  0  0
   10.3400    6.1726   14.3081 C   0  0  0  0  0  0  0  0  0  0  0  0
    7.4297    7.5873   24.8962 C   0  0  0  0  0  0  0  0  0  0  0  0
    8.1566   10.0536   16.0516 O   0  0  0  0  0  0  0  0  0  0  0  0
   12.4989    6.2074   20.1776 C   0  0  0  0  0  0  0  0  0  0  0  0
    6.9192    9.1053   20.9073 O   0  0  0  0  0  0  0  0  0  0  0  0
   14.3979    6.0729   18.7784 C   0  0  0  0  0  0  0  0  0  0  0  0
    8.6811    9.5354   16.9998 C   0  0  0  0  0  0  0  0  0  0  0  0
    9.2512    4.2713   13.7653 O   0  0  0  0  0  0  0  0  0  0  0  0
    9.6495    8.6317   16.8332 N   0  0  0  0  0  0  0  0  0  0  0  0
    6.2934    8.6988   23.1988 O   0  0  0  0  0  0  0  0  0  0  0  0
    7.9806    8.6543   20.5437 C   0  0  0  0  0  0  0  0  0  0  0  0
   13.7270    5.7144   19.8610 O   0  0  0  0  0  0  0  0  0  0  0  0
    8.3351    5.5235   15.4478 C   0  0  0  0  0  0  0  0  0  0  0  0
    8.7700    7.8434   21.3915 C   0  0  0  0  0  0  0  0  0  0  0  0
   11.7856    6.8851   19.2401 C   0  0  0  0  0  0  0  0  0  0  0  0
   10.5281    7.4276   19.5649 C   0  0  0  0  0  0  0  0  0  0  0  0
   10.0256    7.2907   20.8484 C   0  0  0  0  0  0  0  0  0  0  0  0
    9.3113    5.3049   14.4911 C   0  0  0  0  0  0  0  0  0  0  0  0
    9.4607    7.5646   16.0139 C   0  0  0  0  0  0  0  0  0  0  0  0
   10.4192    7.3157   15.0955 C   0  0  0  0  0  0  0  0  0  0  0  0
   10.2489    6.4227   23.0218 N   0  0  0  0  0  0  0  0  0  0  0  0
    7.2472    8.0746   23.5050 C   0  0  0  0  0  0  0  0  0  0  0  0
    9.2051    6.9101   23.4604 C   0  0  0  0  0  0  0  0  0  0  0  0
   11.9646    6.0299   21.4251 C   0  0  0  0  0  0  0  0  0  0  0  0
  1  5  1  0
  1 13  1  0
  2 20  2  0
  2 28  1  0
  2 29  1  0
  3 19  4  0
  3 25  4  0
  4 23  4  0
  4 27  1  0
  4 30  4  0
  5 17  1  0
  6  8  1  0
  6 29  1  0
  7 24  4  0
  7 26  4  0
  8 28  1  0
  9 13  2  0
 10 18  1  0
 10 21  4  0
 10 30  4  0
 11 17  2  0
 12 18  1  0
 13 15  1  0
 14 24  1  0
 15 25  1  0
 16 28  2  0
 17 20  1  0
 19 24  4  0
 20 23  1  0
 21 22  4  0
 22 23  4  0
 25 26  4  0
 27 29  2  0
M  END
$$$$

 Created by Python create_sdf_string function

 30 33  0  0  0  0  0  0  0  0999 V2000
    8.3036    9.8571   18.4133 C   0  0  0  0  0  0  0  0  0  0  0  0
    8.3694    7.6612   22.6703 C   0  0  0  0  0  0  0  0  0  0  0  0
    8.4143    6.6863   16.2273 C   0  0  0  0  0  0  0  0  0  0  0  0
   10.7581    6.5674   21.7636 C   0  0  0  0  0  0  0  0  0  0  0  0
    8.4452    8.7960   19.2958 O   0  0  0  0  0  0  0  0  0  0  0  0
    8.7122    6.7842   24.8569 C   0  0  0  0  0  0  0  0  0  0  0  0
   10.3400    6.1726   14.3081 C   0  0  0  0  0  0  0  0  0  0  0  0
    7.4297    7.5873   24.8962 C   0  0  0  0  0  0  0  0  0  0  0  0
    8.1566   10.0536   16.0516 O   0  0  0  0  0  0  0  0  0  0  0  0
   12.4989    6.2074   20.1776 C   0  0  0  0  0  0  0  0  0  0  0  0
    6.9192    9.1053   20.9073 O   0  0  0  0  0  0  0  0  0  0  0  0
   14.3979    6.0729   18.7784 C   0  0  0  0  0  0  0  0  0  0  0  0
    8.6811    9.5354   16.9998 C   0  0  0  0  0  0  0  0  0  0  0  0
    9.2512    4.2713   13.7653 O   0  0  0  0  0  0  0  0  0  0  0  0
    9.6495    8.6317   16.8332 N   0  0  0  0  0  0  0  0  0  0  0  0
    6.2934    8.6988   23.1988 O   0  0  0  0  0  0  0  0  0  0  0  0
    7.9806    8.6543   20.5437 C   0  0  0  0  0  0  0  0  0  0  0  0
   13.7270    5.7144   19.8610 O   0  0  0  0  0  0  0  0  0  0  0  0
    8.3351    5.5235   15.4478 C   0  0  0  0  0  0  0  0  0  0  0  0
    8.7700    7.8434   21.3915 C   0  0  0  0  0  0  0  0  0  0  0  0
   11.7856    6.8851   19.2401 C   0  0  0  0  0  0  0  0  0  0  0  0
   10.5281    7.4276   19.5649 C   0  0  0  0  0  0  0  0  0  0  0  0
   10.0256    7.2907   20.8484 C   0  0  0  0  0  0  0  0  0  0  0  0
    9.3113    5.3049   14.4911 C   0  0  0  0  0  0  0  0  0  0  0  0
    9.4607    7.5646   16.0139 C   0  0  0  0  0  0  0  0  0  0  0  0
   10.4192    7.3157   15.0955 C   0  0  0  0  0  0  0  0  0  0  0  0
   10.2489    6.4227   23.0218 N   0  0  0  0  0  0  0  0  0  0  0  0
    7.2472    8.0746   23.5050 C   0  0  0  0  0  0  0  0  0  0  0  0
    9.2051    6.9101   23.4604 C   0  0  0  0  0  0  0  0  0  0  0  0
   11.9646    6.0299   21.4251 C   0  0  0  0  0  0  0  0  0  0  0  0
  1  5  1  0
  1 13  1  0
  2 20  2  0
  2 28  1  0
  2 29  1  0
  3 19  4  0
  3 25  4  0
  4 23  4  0
  4 27  1  0
  4 30  4  0
  5 17  1  0
  6  8  1  0
  6 29  1  0
  7 24  4  0
  7 26  4  0
  8 28  1  0
  9 13  2  0
 10 18  1  0
 10 21  4  0
 10 30  4  0
 11 17  2  0
 12 18  1  0
 13 15  1  0
 14 24  1  0
 15 25  1  0
 16 28  2  0
 17 20  1  0
 19 24  4  0
 20 23  1  0
 21 22  4  0
 22 23  4  0
 25 26  4  0
 27 29  2  0
M  END
$$$$

 Created by Python create_sdf_string function

 30 33  0  0  0  0  0  0  0  0999 V2000
    8.3036    9.8571   18.4133 C   0  0  0  0  0  0  0  0  0  0  0  0
    8.3694    7.6612   22.6703 C   0  0  0  0  0  0  0  0  0  0  0  0
    8.4143    6.6863   16.2273 C   0  0  0  0  0  0  0  0  0  0  0  0
   10.7581    6.5674   21.7636 C   0  0  0  0  0  0  0  0  0  0  0  0
    8.4452    8.7960   19.2958 O   0  0  0  0  0  0  0  0  0  0  0  0
    8.7122    6.7842   24.8569 C   0  0  0  0  0  0  0  0  0  0  0  0
   10.3400    6.1726   14.3081 C   0  0  0  0  0  0  0  0  0  0  0  0
    7.4297    7.5873   24.8962 C   0  0  0  0  0  0  0  0  0  0  0  0
    8.1566   10.0536   16.0516 O   0  0  0  0  0  0  0  0  0  0  0  0
   12.4989    6.2074   20.1776 C   0  0  0  0  0  0  0  0  0  0  0  0
    6.9192    9.1053   20.9073 O   0  0  0  0  0  0  0  0  0  0  0  0
   14.3979    6.0729   18.7784 C   0  0  0  0  0  0  0  0  0  0  0  0
    8.6811    9.5354   16.9998 C   0  0  0  0  0  0  0  0  0  0  0  0
    9.2512    4.2713   13.7653 O   0  0  0  0  0  0  0  0  0  0  0  0
    9.6495    8.6317   16.8332 N   0  0  0  0  0  0  0  0  0  0  0  0
    6.2934    8.6988   23.1988 O   0  0  0  0  0  0  0  0  0  0  0  0
    7.9806    8.6543   20.5437 C   0  0  0  0  0  0  0  0  0  0  0  0
   13.7270    5.7144   19.8610 O   0  0  0  0  0  0  0  0  0  0  0  0
    8.3351    5.5235   15.4478 C   0  0  0  0  0  0  0  0  0  0  0  0
    8.7700    7.8434   21.3915 C   0  0  0  0  0  0  0  0  0  0  0  0
   11.7856    6.8851   19.2401 C   0  0  0  0  0  0  0  0  0  0  0  0
   10.5281    7.4276   19.5649 C   0  0  0  0  0  0  0  0  0  0  0  0
   10.0256    7.2907   20.8484 C   0  0  0  0  0  0  0  0  0  0  0  0
    9.3113    5.3049   14.4911 C   0  0  0  0  0  0  0  0  0  0  0  0
    9.4607    7.5646   16.0139 C   0  0  0  0  0  0  0  0  0  0  0  0
   10.4192    7.3157   15.0955 C   0  0  0  0  0  0  0  0  0  0  0  0
   10.2489    6.4227   23.0218 N   0  0  0  0  0  0  0  0  0  0  0  0
    7.2472    8.0746   23.5050 C   0  0  0  0  0  0  0  0  0  0  0  0
    9.2051    6.9101   23.4604 C   0  0  0  0  0  0  0  0  0  0  0  0
   11.9646    6.0299   21.4251 C   0  0  0  0  0  0  0  0  0  0  0  0
  1  5  1  0
  1 13  1  0
  2 20  2  0
  2 28  1  0
  2 29  1  0
  3 19  4  0
  3 25  4  0
  4 23  4  0
  4 27  1  0
  4 30  4  0
  5 17  1  0
  6  8  1  0
  6 29  1  0
  7 24  4  0
  7 26  4  0
  8 28  1  0
  9 13  2  0
 10 18  1  0
 10 21  4  0
 10 30  4  0
 11 17  2  0
 12 18  1  0
 13 15  1  0
 14 24  1  0
 15 25  1  0
 16 28  2  0
 17 20  1  0
 19 24  4  0
 20 23  1  0
 21 22  4  0
 22 23  4  0
 25 26  4  0
 27 29  2  0
M  END
$$$$

 Created by Python create_sdf_string function

 30 33  0  0  0  0  0  0  0  0999 V2000
    8.3036    9.8571   18.4133 C   0  0  0  0  0  0  0  0  0  0  0  0
    8.3694    7.6612   22.6703 C   0  0  0  0  0  0  0  0  0  0  0  0
    8.4143    6.6863   16.2273 C   0  0  0  0  0  0  0  0  0  0  0  0
   10.7581    6.5674   21.7636 C   0  0  0  0  0  0  0  0  0  0  0  0
    8.4452    8.7960   19.2958 O   0  0  0  0  0  0  0  0  0  0  0  0
    8.7122    6.7842   24.8569 C   0  0  0  0  0  0  0  0  0  0  0  0
   10.3400    6.1726   14.3081 C   0  0  0  0  0  0  0  0  0  0  0  0
    7.4297    7.5873   24.8962 C   0  0  0  0  0  0  0  0  0  0  0  0
    8.1566   10.0536   16.0516 O   0  0  0  0  0  0  0  0  0  0  0  0
   12.4989    6.2074   20.1776 C   0  0  0  0  0  0  0  0  0  0  0  0
    6.9192    9.1053   20.9073 O   0  0  0  0  0  0  0  0  0  0  0  0
   14.3979    6.0729   18.7784 C   0  0  0  0  0  0  0  0  0  0  0  0
    8.6811    9.5354   16.9998 C   0  0  0  0  0  0  0  0  0  0  0  0
    9.2512    4.2713   13.7653 O   0  0  0  0  0  0  0  0  0  0  0  0
    9.6495    8.6317   16.8332 N   0  0  0  0  0  0  0  0  0  0  0  0
    6.2934    8.6988   23.1988 O   0  0  0  0  0  0  0  0  0  0  0  0
    7.9806    8.6543   20.5437 C   0  0  0  0  0  0  0  0  0  0  0  0
   13.7270    5.7144   19.8610 O   0  0  0  0  0  0  0  0  0  0  0  0
    8.3351    5.5235   15.4478 C   0  0  0  0  0  0  0  0  0  0  0  0
    8.7700    7.8434   21.3915 C   0  0  0  0  0  0  0  0  0  0  0  0
   11.7856    6.8851   19.2401 C   0  0  0  0  0  0  0  0  0  0  0  0
   10.5281    7.4276   19.5649 C   0  0  0  0  0  0  0  0  0  0  0  0
   10.0256    7.2907   20.8484 C   0  0  0  0  0  0  0  0  0  0  0  0
    9.3113    5.3049   14.4911 C   0  0  0  0  0  0  0  0  0  0  0  0
    9.4607    7.5646   16.0139 C   0  0  0  0  0  0  0  0  0  0  0  0
   10.4192    7.3157   15.0955 C   0  0  0  0  0  0  0  0  0  0  0  0
   10.2489    6.4227   23.0218 N   0  0  0  0  0  0  0  0  0  0  0  0
    7.2472    8.0746   23.5050 C   0  0  0  0  0  0  0  0  0  0  0  0
    9.2051    6.9101   23.4604 C   0  0  0  0  0  0  0  0  0  0  0  0
   11.9646    6.0299   21.4251 C   0  0  0  0  0  0  0  0  0  0  0  0
  1  5  1  0
  1 13  1  0
  2 20  2  0
  2 28  1  0
  2 29  1  0
  3 19  4  0
  3 25  4  0
  4 23  4  0
  4 27  1  0
  4 30  4  0
  5 17  1  0
  6  8  1  0
  6 29  1  0
  7 24  4  0
  7 26  4  0
  8 28  1  0
  9 13  2  0
 10 18  1  0
 10 21  4  0
 10 30  4  0
 11 17  2  0
 12 18  1  0
 13 15  1  0
 14 24  1  0
 15 25  1  0
 16 28  2  0
 17 20  1  0
 19 24  4  0
 20 23  1  0
 21 22  4  0
 22 23  4  0
 25 26  4  0
 27 29  2  0
M  END
$$$$

 Created by Python create_sdf_string function

 30 33  0  0  0  0  0  0  0  0999 V2000
    8.3036    9.8571   18.4133 C   0  0  0  0  0  0  0  0  0  0  0  0
    8.3694    7.6612   22.6703 C   0  0  0  0  0  0  0  0  0  0  0  0
    8.4143    6.6863   16.2273 C   0  0  0  0  0  0  0  0  0  0  0  0
   10.7581    6.5674   21.7636 C   0  0  0  0  0  0  0  0  0  0  0  0
    8.4452    8.7960   19.2958 O   0  0  0  0  0  0  0  0  0  0  0  0
    8.7122    6.7842   24.8569 C   0  0  0  0  0  0  0  0  0  0  0  0
   10.3400    6.1726   14.3081 C   0  0  0  0  0  0  0  0  0  0  0  0
    7.4297    7.5873   24.8962 C   0  0  0  0  0  0  0  0  0  0  0  0
    8.1566   10.0536   16.0516 O   0  0  0  0  0  0  0  0  0  0  0  0
   12.4989    6.2074   20.1776 C   0  0  0  0  0  0  0  0  0  0  0  0
    6.9192    9.1053   20.9073 O   0  0  0  0  0  0  0  0  0  0  0  0
   14.3979    6.0729   18.7784 C   0  0  0  0  0  0  0  0  0  0  0  0
    8.6811    9.5354   16.9998 C   0  0  0  0  0  0  0  0  0  0  0  0
    9.2512    4.2713   13.7653 O   0  0  0  0  0  0  0  0  0  0  0  0
    9.6495    8.6317   16.8332 N   0  0  0  0  0  0  0  0  0  0  0  0
    6.2934    8.6988   23.1988 O   0  0  0  0  0  0  0  0  0  0  0  0
    7.9806    8.6543   20.5437 C   0  0  0  0  0  0  0  0  0  0  0  0
   13.7270    5.7144   19.8610 O   0  0  0  0  0  0  0  0  0  0  0  0
    8.3351    5.5235   15.4478 C   0  0  0  0  0  0  0  0  0  0  0  0
    8.7700    7.8434   21.3915 C   0  0  0  0  0  0  0  0  0  0  0  0
   11.7856    6.8851   19.2401 C   0  0  0  0  0  0  0  0  0  0  0  0
   10.5281    7.4276   19.5649 C   0  0  0  0  0  0  0  0  0  0  0  0
   10.0256    7.2907   20.8484 C   0  0  0  0  0  0  0  0  0  0  0  0
    9.3113    5.3049   14.4911 C   0  0  0  0  0  0  0  0  0  0  0  0
    9.4607    7.5646   16.0139 C   0  0  0  0  0  0  0  0  0  0  0  0
   10.4192    7.3157   15.0955 C   0  0  0  0  0  0  0  0  0  0  0  0
   10.2489    6.4227   23.0218 N   0  0  0  0  0  0  0  0  0  0  0  0
    7.2472    8.0746   23.5050 C   0  0  0  0  0  0  0  0  0  0  0  0
    9.2051    6.9101   23.4604 C   0  0  0  0  0  0  0  0  0  0  0  0
   11.9646    6.0299   21.4251 C   0  0  0  0  0  0  0  0  0  0  0  0
  1  5  1  0
  1 13  1  0
  2 20  2  0
  2 28  1  0
  2 29  1  0
  3 19  4  0
  3 25  4  0
  4 23  4  0
  4 27  1  0
  4 30  4  0
  5 17  1  0
  6  8  1  0
  6 29  1  0
  7 24  4  0
  7 26  4  0
  8 28  1  0
  9 13  2  0
 10 18  1  0
 10 21  4  0
 10 30  4  0
 11 17  2  0
 12 18  1  0
 13 15  1  0
 14 24  1  0
 15 25  1  0
 16 28  2  0
 17 20  1  0
 19 24  4  0
 20 23  1  0
 21 22  4  0
 22 23  4  0
 25 26  4  0
 27 29  2  0
M  END
$$$$

 Created by Python create_sdf_string function

 30 33  0  0  0  0  0  0  0  0999 V2000
    8.3036    9.8571   18.4133 C   0  0  0  0  0  0  0  0  0  0  0  0
    8.3694    7.6612   22.6703 C   0  0  0  0  0  0  0  0  0  0  0  0
    8.4143    6.6863   16.2273 C   0  0  0  0  0  0  0  0  0  0  0  0
   10.7581    6.5674   21.7636 C   0  0  0  0  0  0  0  0  0  0  0  0
    8.4452    8.7960   19.2958 O   0  0  0  0  0  0  0  0  0  0  0  0
    8.7122    6.7842   24.8569 C   0  0  0  0  0  0  0  0  0  0  0  0
   10.3400    6.1726   14.3081 C   0  0  0  0  0  0  0  0  0  0  0  0
    7.4297    7.5873   24.8962 C   0  0  0  0  0  0  0  0  0  0  0  0
    8.1566   10.0536   16.0516 O   0  0  0  0  0  0  0  0  0  0  0  0
   12.4989    6.2074   20.1776 C   0  0  0  0  0  0  0  0  0  0  0  0
    6.9192    9.1053   20.9073 O   0  0  0  0  0  0  0  0  0  0  0  0
   14.3979    6.0729   18.7784 C   0  0  0  0  0  0  0  0  0  0  0  0
    8.6811    9.5354   16.9998 C   0  0  0  0  0  0  0  0  0  0  0  0
    9.2512    4.2713   13.7653 O   0  0  0  0  0  0  0  0  0  0  0  0
    9.6495    8.6317   16.8332 N   0  0  0  0  0  0  0  0  0  0  0  0
    6.2934    8.6988   23.1988 O   0  0  0  0  0  0  0  0  0  0  0  0
    7.9806    8.6543   20.5437 C   0  0  0  0  0  0  0  0  0  0  0  0
   13.7270    5.7144   19.8610 O   0  0  0  0  0  0  0  0  0  0  0  0
    8.3351    5.5235   15.4478 C   0  0  0  0  0  0  0  0  0  0  0  0
    8.7700    7.8434   21.3915 C   0  0  0  0  0  0  0  0  0  0  0  0
   11.7856    6.8851   19.2401 C   0  0  0  0  0  0  0  0  0  0  0  0
   10.5281    7.4276   19.5649 C   0  0  0  0  0  0  0  0  0  0  0  0
   10.0256    7.2907   20.8484 C   0  0  0  0  0  0  0  0  0  0  0  0
    9.3113    5.3049   14.4911 C   0  0  0  0  0  0  0  0  0  0  0  0
    9.4607    7.5646   16.0139 C   0  0  0  0  0  0  0  0  0  0  0  0
   10.4192    7.3157   15.0955 C   0  0  0  0  0  0  0  0  0  0  0  0
   10.2489    6.4227   23.0218 N   0  0  0  0  0  0  0  0  0  0  0  0
    7.2472    8.0746   23.5050 C   0  0  0  0  0  0  0  0  0  0  0  0
    9.2051    6.9101   23.4604 C   0  0  0  0  0  0  0  0  0  0  0  0
   11.9646    6.0299   21.4251 C   0  0  0  0  0  0  0  0  0  0  0  0
  1  5  1  0
  1 13  1  0
  2 20  2  0
  2 28  1  0
  2 29  1  0
  3 19  4  0
  3 25  4  0
  4 23  4  0
  4 27  1  0
  4 30  4  0
  5 17  1  0
  6  8  1  0
  6 29  1  0
  7 24  4  0
  7 26  4  0
  8 28  1  0
  9 13  2  0
 10 18  1  0
 10 21  4  0
 10 30  4  0
 11 17  2  0
 12 18  1  0
 13 15  1  0
 14 24  1  0
 15 25  1  0
 16 28  2  0
 17 20  1  0
 19 24  4  0
 20 23  1  0
 21 22  4  0
 22 23  4  0
 25 26  4  0
 27 29  2  0
M  END
$$$$

 Created by Python create_sdf_string function

 30 33  0  0  0  0  0  0  0  0999 V2000
    8.3036    9.8571   18.4133 C   0  0  0  0  0  0  0  0  0  0  0  0
    8.3694    7.6612   22.6703 C   0  0  0  0  0  0  0  0  0  0  0  0
    8.4143    6.6863   16.2273 C   0  0  0  0  0  0  0  0  0  0  0  0
   10.7581    6.5674   21.7636 C   0  0  0  0  0  0  0  0  0  0  0  0
    8.4452    8.7960   19.2958 O   0  0  0  0  0  0  0  0  0  0  0  0
    8.7122    6.7842   24.8569 C   0  0  0  0  0  0  0  0  0  0  0  0
   10.3400    6.1726   14.3081 C   0  0  0  0  0  0  0  0  0  0  0  0
    7.4297    7.5873   24.8962 C   0  0  0  0  0  0  0  0  0  0  0  0
    8.1566   10.0536   16.0516 O   0  0  0  0  0  0  0  0  0  0  0  0
   12.4989    6.2074   20.1776 C   0  0  0  0  0  0  0  0  0  0  0  0
    6.9192    9.1053   20.9073 O   0  0  0  0  0  0  0  0  0  0  0  0
   14.3979    6.0729   18.7784 C   0  0  0  0  0  0  0  0  0  0  0  0
    8.6811    9.5354   16.9998 C   0  0  0  0  0  0  0  0  0  0  0  0
    9.2512    4.2713   13.7653 O   0  0  0  0  0  0  0  0  0  0  0  0
    9.6495    8.6317   16.8332 N   0  0  0  0  0  0  0  0  0  0  0  0
    6.2934    8.6988   23.1988 O   0  0  0  0  0  0  0  0  0  0  0  0
    7.9806    8.6543   20.5437 C   0  0  0  0  0  0  0  0  0  0  0  0
   13.7270    5.7144   19.8610 O   0  0  0  0  0  0  0  0  0  0  0  0
    8.3351    5.5235   15.4478 C   0  0  0  0  0  0  0  0  0  0  0  0
    8.7700    7.8434   21.3915 C   0  0  0  0  0  0  0  0  0  0  0  0
   11.7856    6.8851   19.2401 C   0  0  0  0  0  0  0  0  0  0  0  0
   10.5281    7.4276   19.5649 C   0  0  0  0  0  0  0  0  0  0  0  0
   10.0256    7.2907   20.8484 C   0  0  0  0  0  0  0  0  0  0  0  0
    9.3113    5.3049   14.4911 C   0  0  0  0  0  0  0  0  0  0  0  0
    9.4607    7.5646   16.0139 C   0  0  0  0  0  0  0  0  0  0  0  0
   10.4192    7.3157   15.0955 C   0  0  0  0  0  0  0  0  0  0  0  0
   10.2489    6.4227   23.0218 N   0  0  0  0  0  0  0  0  0  0  0  0
    7.2472    8.0746   23.5050 C   0  0  0  0  0  0  0  0  0  0  0  0
    9.2051    6.9101   23.4604 C   0  0  0  0  0  0  0  0  0  0  0  0
   11.9646    6.0299   21.4251 C   0  0  0  0  0  0  0  0  0  0  0  0
  1  5  1  0
  1 13  1  0
  2 20  2  0
  2 28  1  0
  2 29  1  0
  3 19  4  0
  3 25  4  0
  4 23  4  0
  4 27  1  0
  4 30  4  0
  5 17  1  0
  6  8  1  0
  6 29  1  0
  7 24  4  0
  7 26  4  0
  8 28  1  0
  9 13  2  0
 10 18  1  0
 10 21  4  0
 10 30  4  0
 11 17  2  0
 12 18  1  0
 13 15  1  0
 14 24  1  0
 15 25  1  0
 16 28  2  0
 17 20  1  0
 19 24  4  0
 20 23  1  0
 21 22  4  0
 22 23  4  0
 25 26  4  0
 27 29  2  0
M  END
$$$$

 Created by Python create_sdf_string function

 30 33  0  0  0  0  0  0  0  0999 V2000
    8.3036    9.8571   18.4133 C   0  0  0  0  0  0  0  0  0  0  0  0
    8.3694    7.6612   22.6703 C   0  0  0  0  0  0  0  0  0  0  0  0
    8.4143    6.6863   16.2273 C   0  0  0  0  0  0  0  0  0  0  0  0
   10.7581    6.5674   21.7636 C   0  0  0  0  0  0  0  0  0  0  0  0
    8.4452    8.7960   19.2958 O   0  0  0  0  0  0  0  0  0  0  0  0
    8.7122    6.7842   24.8569 C   0  0  0  0  0  0  0  0  0  0  0  0
   10.3400    6.1726   14.3081 C   0  0  0  0  0  0  0  0  0  0  0  0
    7.4297    7.5873   24.8962 C   0  0  0  0  0  0  0  0  0  0  0  0
    8.1566   10.0536   16.0516 O   0  0  0  0  0  0  0  0  0  0  0  0
   12.4989    6.2074   20.1776 C   0  0  0  0  0  0  0  0  0  0  0  0
    6.9192    9.1053   20.9073 O   0  0  0  0  0  0  0  0  0  0  0  0
   14.3979    6.0729   18.7784 C   0  0  0  0  0  0  0  0  0  0  0  0
    8.6811    9.5354   16.9998 C   0  0  0  0  0  0  0  0  0  0  0  0
    9.2512    4.2713   13.7653 O   0  0  0  0  0  0  0  0  0  0  0  0
    9.6495    8.6317   16.8332 N   0  0  0  0  0  0  0  0  0  0  0  0
    6.2934    8.6988   23.1988 O   0  0  0  0  0  0  0  0  0  0  0  0
    7.9806    8.6543   20.5437 C   0  0  0  0  0  0  0  0  0  0  0  0
   13.7270    5.7144   19.8610 O   0  0  0  0  0  0  0  0  0  0  0  0
    8.3351    5.5235   15.4478 C   0  0  0  0  0  0  0  0  0  0  0  0
    8.7700    7.8434   21.3915 C   0  0  0  0  0  0  0  0  0  0  0  0
   11.7856    6.8851   19.2401 C   0  0  0  0  0  0  0  0  0  0  0  0
   10.5281    7.4276   19.5649 C   0  0  0  0  0  0  0  0  0  0  0  0
   10.0256    7.2907   20.8484 C   0  0  0  0  0  0  0  0  0  0  0  0
    9.3113    5.3049   14.4911 C   0  0  0  0  0  0  0  0  0  0  0  0
    9.4607    7.5646   16.0139 C   0  0  0  0  0  0  0  0  0  0  0  0
   10.4192    7.3157   15.0955 C   0  0  0  0  0  0  0  0  0  0  0  0
   10.2489    6.4227   23.0218 N   0  0  0  0  0  0  0  0  0  0  0  0
    7.2472    8.0746   23.5050 C   0  0  0  0  0  0  0  0  0  0  0  0
    9.2051    6.9101   23.4604 C   0  0  0  0  0  0  0  0  0  0  0  0
   11.9646    6.0299   21.4251 C   0  0  0  0  0  0  0  0  0  0  0  0
  1  5  1  0
  1 13  1  0
  2 20  2  0
  2 28  1  0
  2 29  1  0
  3 19  4  0
  3 25  4  0
  4 23  4  0
  4 27  1  0
  4 30  4  0
  5 17  1  0
  6  8  1  0
  6 29  1  0
  7 24  4  0
  7 26  4  0
  8 28  1  0
  9 13  2  0
 10 18  1  0
 10 21  4  0
 10 30  4  0
 11 17  2  0
 12 18  1  0
 13 15  1  0
 14 24  1  0
 15 25  1  0
 16 28  2  0
 17 20  1  0
 19 24  4  0
 20 23  1  0
 21 22  4  0
 22 23  4  0
 25 26  4  0
 27 29  2  0
M  END
$$$$

 Created by Python create_sdf_string function

 30 33  0  0  0  0  0  0  0  0999 V2000
    8.3036    9.8571   18.4133 C   0  0  0  0  0  0  0  0  0  0  0  0
    8.3694    7.6612   22.6703 C   0  0  0  0  0  0  0  0  0  0  0  0
    8.4143    6.6863   16.2273 C   0  0  0  0  0  0  0  0  0  0  0  0
   10.7581    6.5674   21.7636 C   0  0  0  0  0  0  0  0  0  0  0  0
    8.4452    8.7960   19.2958 O   0  0  0  0  0  0  0  0  0  0  0  0
    8.7122    6.7842   24.8569 C   0  0  0  0  0  0  0  0  0  0  0  0
   10.3400    6.1726   14.3081 C   0  0  0  0  0  0  0  0  0  0  0  0
    7.4297    7.5873   24.8962 C   0  0  0  0  0  0  0  0  0  0  0  0
    8.1566   10.0536   16.0516 O   0  0  0  0  0  0  0  0  0  0  0  0
   12.4989    6.2074   20.1776 C   0  0  0  0  0  0  0  0  0  0  0  0
    6.9192    9.1053   20.9073 O   0  0  0  0  0  0  0  0  0  0  0  0
   14.3979    6.0729   18.7784 C   0  0  0  0  0  0  0  0  0  0  0  0
    8.6811    9.5354   16.9998 C   0  0  0  0  0  0  0  0  0  0  0  0
    9.2512    4.2713   13.7653 O   0  0  0  0  0  0  0  0  0  0  0  0
    9.6495    8.6317   16.8332 N   0  0  0  0  0  0  0  0  0  0  0  0
    6.2934    8.6988   23.1988 O   0  0  0  0  0  0  0  0  0  0  0  0
    7.9806    8.6543   20.5437 C   0  0  0  0  0  0  0  0  0  0  0  0
   13.7270    5.7144   19.8610 O   0  0  0  0  0  0  0  0  0  0  0  0
    8.3351    5.5235   15.4478 C   0  0  0  0  0  0  0  0  0  0  0  0
    8.7700    7.8434   21.3915 C   0  0  0  0  0  0  0  0  0  0  0  0
   11.7856    6.8851   19.2401 C   0  0  0  0  0  0  0  0  0  0  0  0
   10.5281    7.4276   19.5649 C   0  0  0  0  0  0  0  0  0  0  0  0
   10.0256    7.2907   20.8484 C   0  0  0  0  0  0  0  0  0  0  0  0
    9.3113    5.3049   14.4911 C   0  0  0  0  0  0  0  0  0  0  0  0
    9.4607    7.5646   16.0139 C   0  0  0  0  0  0  0  0  0  0  0  0
   10.4192    7.3157   15.0955 C   0  0  0  0  0  0  0  0  0  0  0  0
   10.2489    6.4227   23.0218 N   0  0  0  0  0  0  0  0  0  0  0  0
    7.2472    8.0746   23.5050 C   0  0  0  0  0  0  0  0  0  0  0  0
    9.2051    6.9101   23.4604 C   0  0  0  0  0  0  0  0  0  0  0  0
   11.9646    6.0299   21.4251 C   0  0  0  0  0  0  0  0  0  0  0  0
  1  5  1  0
  1 13  1  0
  2 20  2  0
  2 28  1  0
  2 29  1  0
  3 19  4  0
  3 25  4  0
  4 23  4  0
  4 27  1  0
  4 30  4  0
  5 17  1  0
  6  8  1  0
  6 29  1  0
  7 24  4  0
  7 26  4  0
  8 28  1  0
  9 13  2  0
 10 18  1  0
 10 21  4  0
 10 30  4  0
 11 17  2  0
 12 18  1  0
 13 15  1  0
 14 24  1  0
 15 25  1  0
 16 28  2  0
 17 20  1  0
 19 24  4  0
 20 23  1  0
 21 22  4  0
 22 23  4  0
 25 26  4  0
 27 29  2  0
M  END
$$$$

 Created by Python create_sdf_string function

 30 33  0  0  0  0  0  0  0  0999 V2000
    8.3036    9.8571   18.4133 C   0  0  0  0  0  0  0  0  0  0  0  0
    8.3694    7.6612   22.6703 C   0  0  0  0  0  0  0  0  0  0  0  0
    8.4143    6.6863   16.2273 C   0  0  0  0  0  0  0  0  0  0  0  0
   10.7581    6.5674   21.7636 C   0  0  0  0  0  0  0  0  0  0  0  0
    8.4452    8.7960   19.2958 O   0  0  0  0  0  0  0  0  0  0  0  0
    8.7122    6.7842   24.8569 C   0  0  0  0  0  0  0  0  0  0  0  0
   10.3400    6.1726   14.3081 C   0  0  0  0  0  0  0  0  0  0  0  0
    7.4297    7.5873   24.8962 C   0  0  0  0  0  0  0  0  0  0  0  0
    8.1566   10.0536   16.0516 O   0  0  0  0  0  0  0  0  0  0  0  0
   12.4989    6.2074   20.1776 C   0  0  0  0  0  0  0  0  0  0  0  0
    6.9192    9.1053   20.9073 O   0  0  0  0  0  0  0  0  0  0  0  0
   14.3979    6.0729   18.7784 C   0  0  0  0  0  0  0  0  0  0  0  0
    8.6811    9.5354   16.9998 C   0  0  0  0  0  0  0  0  0  0  0  0
    9.2512    4.2713   13.7653 O   0  0  0  0  0  0  0  0  0  0  0  0
    9.6495    8.6317   16.8332 N   0  0  0  0  0  0  0  0  0  0  0  0
    6.2934    8.6988   23.1988 O   0  0  0  0  0  0  0  0  0  0  0  0
    7.9806    8.6543   20.5437 C   0  0  0  0  0  0  0  0  0  0  0  0
   13.7270    5.7144   19.8610 O   0  0  0  0  0  0  0  0  0  0  0  0
    8.3351    5.5235   15.4478 C   0  0  0  0  0  0  0  0  0  0  0  0
    8.7700    7.8434   21.3915 C   0  0  0  0  0  0  0  0  0  0  0  0
   11.7856    6.8851   19.2401 C   0  0  0  0  0  0  0  0  0  0  0  0
   10.5281    7.4276   19.5649 C   0  0  0  0  0  0  0  0  0  0  0  0
   10.0256    7.2907   20.8484 C   0  0  0  0  0  0  0  0  0  0  0  0
    9.3113    5.3049   14.4911 C   0  0  0  0  0  0  0  0  0  0  0  0
    9.4607    7.5646   16.0139 C   0  0  0  0  0  0  0  0  0  0  0  0
   10.4192    7.3157   15.0955 C   0  0  0  0  0  0  0  0  0  0  0  0
   10.2489    6.4227   23.0218 N   0  0  0  0  0  0  0  0  0  0  0  0
    7.2472    8.0746   23.5050 C   0  0  0  0  0  0  0  0  0  0  0  0
    9.2051    6.9101   23.4604 C   0  0  0  0  0  0  0  0  0  0  0  0
   11.9646    6.0299   21.4251 C   0  0  0  0  0  0  0  0  0  0  0  0
  1  5  1  0
  1 13  1  0
  2 20  2  0
  2 28  1  0
  2 29  1  0
  3 19  4  0
  3 25  4  0
  4 23  4  0
  4 27  1  0
  4 30  4  0
  5 17  1  0
  6  8  1  0
  6 29  1  0
  7 24  4  0
  7 26  4  0
  8 28  1  0
  9 13  2  0
 10 18  1  0
 10 21  4  0
 10 30  4  0
 11 17  2  0
 12 18  1  0
 13 15  1  0
 14 24  1  0
 15 25  1  0
 16 28  2  0
 17 20  1  0
 19 24  4  0
 20 23  1  0
 21 22  4  0
 22 23  4  0
 25 26  4  0
 27 29  2  0
M  END
$$$$

 Created by Python create_sdf_string function

 30 33  0  0  0  0  0  0  0  0999 V2000
    8.3036    9.8571   18.4133 C   0  0  0  0  0  0  0  0  0  0  0  0
    8.3694    7.6612   22.6703 C   0  0  0  0  0  0  0  0  0  0  0  0
    8.4143    6.6863   16.2273 C   0  0  0  0  0  0  0  0  0  0  0  0
   10.7581    6.5674   21.7636 C   0  0  0  0  0  0  0  0  0  0  0  0
    8.4452    8.7960   19.2958 O   0  0  0  0  0  0  0  0  0  0  0  0
    8.7122    6.7842   24.8569 C   0  0  0  0  0  0  0  0  0  0  0  0
   10.3400    6.1726   14.3081 C   0  0  0  0  0  0  0  0  0  0  0  0
    7.4297    7.5873   24.8962 C   0  0  0  0  0  0  0  0  0  0  0  0
    8.1566   10.0536   16.0516 O   0  0  0  0  0  0  0  0  0  0  0  0
   12.4989    6.2074   20.1776 C   0  0  0  0  0  0  0  0  0  0  0  0
    6.9192    9.1053   20.9073 O   0  0  0  0  0  0  0  0  0  0  0  0
   14.3979    6.0729   18.7784 C   0  0  0  0  0  0  0  0  0  0  0  0
    8.6811    9.5354   16.9998 C   0  0  0  0  0  0  0  0  0  0  0  0
    9.2512    4.2713   13.7653 O   0  0  0  0  0  0  0  0  0  0  0  0
    9.6495    8.6317   16.8332 N   0  0  0  0  0  0  0  0  0  0  0  0
    6.2934    8.6988   23.1988 O   0  0  0  0  0  0  0  0  0  0  0  0
    7.9806    8.6543   20.5437 C   0  0  0  0  0  0  0  0  0  0  0  0
   13.7270    5.7144   19.8610 O   0  0  0  0  0  0  0  0  0  0  0  0
    8.3351    5.5235   15.4478 C   0  0  0  0  0  0  0  0  0  0  0  0
    8.7700    7.8434   21.3915 C   0  0  0  0  0  0  0  0  0  0  0  0
   11.7856    6.8851   19.2401 C   0  0  0  0  0  0  0  0  0  0  0  0
   10.5281    7.4276   19.5649 C   0  0  0  0  0  0  0  0  0  0  0  0
   10.0256    7.2907   20.8484 C   0  0  0  0  0  0  0  0  0  0  0  0
    9.3113    5.3049   14.4911 C   0  0  0  0  0  0  0  0  0  0  0  0
    9.4607    7.5646   16.0139 C   0  0  0  0  0  0  0  0  0  0  0  0
   10.4192    7.3157   15.0955 C   0  0  0  0  0  0  0  0  0  0  0  0
   10.2489    6.4227   23.0218 N   0  0  0  0  0  0  0  0  0  0  0  0
    7.2472    8.0746   23.5050 C   0  0  0  0  0  0  0  0  0  0  0  0
    9.2051    6.9101   23.4604 C   0  0  0  0  0  0  0  0  0  0  0  0
   11.9646    6.0299   21.4251 C   0  0  0  0  0  0  0  0  0  0  0  0
  1  5  1  0
  1 13  1  0
  2 20  2  0
  2 28  1  0
  2 29  1  0
  3 19  4  0
  3 25  4  0
  4 23  4  0
  4 27  1  0
  4 30  4  0
  5 17  1  0
  6  8  1  0
  6 29  1  0
  7 24  4  0
  7 26  4  0
  8 28  1  0
  9 13  2  0
 10 18  1  0
 10 21  4  0
 10 30  4  0
 11 17  2  0
 12 18  1  0
 13 15  1  0
 14 24  1  0
 15 25  1  0
 16 28  2  0
 17 20  1  0
 19 24  4  0
 20 23  1  0
 21 22  4  0
 22 23  4  0
 25 26  4  0
 27 29  2  0
M  END
$$$$

 Created by Python create_sdf_string function

 30 33  0  0  0  0  0  0  0  0999 V2000
    8.3036    9.8571   18.4133 C   0  0  0  0  0  0  0  0  0  0  0  0
    8.3694    7.6612   22.6703 C   0  0  0  0  0  0  0  0  0  0  0  0
    8.4143    6.6863   16.2273 C   0  0  0  0  0  0  0  0  0  0  0  0
   10.7581    6.5674   21.7636 C   0  0  0  0  0  0  0  0  0  0  0  0
    8.4452    8.7960   19.2958 O   0  0  0  0  0  0  0  0  0  0  0  0
    8.7122    6.7842   24.8569 C   0  0  0  0  0  0  0  0  0  0  0  0
   10.3400    6.1726   14.3081 C   0  0  0  0  0  0  0  0  0  0  0  0
    7.4297    7.5873   24.8962 C   0  0  0  0  0  0  0  0  0  0  0  0
    8.1566   10.0536   16.0516 O   0  0  0  0  0  0  0  0  0  0  0  0
   12.4989    6.2074   20.1776 C   0  0  0  0  0  0  0  0  0  0  0  0
    6.9192    9.1053   20.9073 O   0  0  0  0  0  0  0  0  0  0  0  0
   14.3979    6.0729   18.7784 C   0  0  0  0  0  0  0  0  0  0  0  0
    8.6811    9.5354   16.9998 C   0  0  0  0  0  0  0  0  0  0  0  0
    9.2512    4.2713   13.7653 O   0  0  0  0  0  0  0  0  0  0  0  0
    9.6495    8.6317   16.8332 N   0  0  0  0  0  0  0  0  0  0  0  0
    6.2934    8.6988   23.1988 O   0  0  0  0  0  0  0  0  0  0  0  0
    7.9806    8.6543   20.5437 C   0  0  0  0  0  0  0  0  0  0  0  0
   13.7270    5.7144   19.8610 O   0  0  0  0  0  0  0  0  0  0  0  0
    8.3351    5.5235   15.4478 C   0  0  0  0  0  0  0  0  0  0  0  0
    8.7700    7.8434   21.3915 C   0  0  0  0  0  0  0  0  0  0  0  0
   11.7856    6.8851   19.2401 C   0  0  0  0  0  0  0  0  0  0  0  0
   10.5281    7.4276   19.5649 C   0  0  0  0  0  0  0  0  0  0  0  0
   10.0256    7.2907   20.8484 C   0  0  0  0  0  0  0  0  0  0  0  0
    9.3113    5.3049   14.4911 C   0  0  0  0  0  0  0  0  0  0  0  0
    9.4607    7.5646   16.0139 C   0  0  0  0  0  0  0  0  0  0  0  0
   10.4192    7.3157   15.0955 C   0  0  0  0  0  0  0  0  0  0  0  0
   10.2489    6.4227   23.0218 N   0  0  0  0  0  0  0  0  0  0  0  0
    7.2472    8.0746   23.5050 C   0  0  0  0  0  0  0  0  0  0  0  0
    9.2051    6.9101   23.4604 C   0  0  0  0  0  0  0  0  0  0  0  0
   11.9646    6.0299   21.4251 C   0  0  0  0  0  0  0  0  0  0  0  0
  1  5  1  0
  1 13  1  0
  2 20  2  0
  2 28  1  0
  2 29  1  0
  3 19  4  0
  3 25  4  0
  4 23  4  0
  4 27  1  0
  4 30  4  0
  5 17  1  0
  6  8  1  0
  6 29  1  0
  7 24  4  0
  7 26  4  0
  8 28  1  0
  9 13  2  0
 10 18  1  0
 10 21  4  0
 10 30  4  0
 11 17  2  0
 12 18  1  0
 13 15  1  0
 14 24  1  0
 15 25  1  0
 16 28  2  0
 17 20  1  0
 19 24  4  0
 20 23  1  0
 21 22  4  0
 22 23  4  0
 25 26  4  0
 27 29  2  0
M  END
$$$$

 Created by Python create_sdf_string function

 30 33  0  0  0  0  0  0  0  0999 V2000
    8.3036    9.8571   18.4133 C   0  0  0  0  0  0  0  0  0  0  0  0
    8.3694    7.6612   22.6703 C   0  0  0  0  0  0  0  0  0  0  0  0
    8.4143    6.6863   16.2273 C   0  0  0  0  0  0  0  0  0  0  0  0
   10.7581    6.5674   21.7636 C   0  0  0  0  0  0  0  0  0  0  0  0
    8.4452    8.7960   19.2958 O   0  0  0  0  0  0  0  0  0  0  0  0
    8.7122    6.7842   24.8569 C   0  0  0  0  0  0  0  0  0  0  0  0
   10.3400    6.1726   14.3081 C   0  0  0  0  0  0  0  0  0  0  0  0
    7.4297    7.5873   24.8962 C   0  0  0  0  0  0  0  0  0  0  0  0
    8.1566   10.0536   16.0516 O   0  0  0  0  0  0  0  0  0  0  0  0
   12.4989    6.2074   20.1776 C   0  0  0  0  0  0  0  0  0  0  0  0
    6.9192    9.1053   20.9073 O   0  0  0  0  0  0  0  0  0  0  0  0
   14.3979    6.0729   18.7784 C   0  0  0  0  0  0  0  0  0  0  0  0
    8.6811    9.5354   16.9998 C   0  0  0  0  0  0  0  0  0  0  0  0
    9.2512    4.2713   13.7653 O   0  0  0  0  0  0  0  0  0  0  0  0
    9.6495    8.6317   16.8332 N   0  0  0  0  0  0  0  0  0  0  0  0
    6.2934    8.6988   23.1988 O   0  0  0  0  0  0  0  0  0  0  0  0
    7.9806    8.6543   20.5437 C   0  0  0  0  0  0  0  0  0  0  0  0
   13.7270    5.7144   19.8610 O   0  0  0  0  0  0  0  0  0  0  0  0
    8.3351    5.5235   15.4478 C   0  0  0  0  0  0  0  0  0  0  0  0
    8.7700    7.8434   21.3915 C   0  0  0  0  0  0  0  0  0  0  0  0
   11.7856    6.8851   19.2401 C   0  0  0  0  0  0  0  0  0  0  0  0
   10.5281    7.4276   19.5649 C   0  0  0  0  0  0  0  0  0  0  0  0
   10.0256    7.2907   20.8484 C   0  0  0  0  0  0  0  0  0  0  0  0
    9.3113    5.3049   14.4911 C   0  0  0  0  0  0  0  0  0  0  0  0
    9.4607    7.5646   16.0139 C   0  0  0  0  0  0  0  0  0  0  0  0
   10.4192    7.3157   15.0955 C   0  0  0  0  0  0  0  0  0  0  0  0
   10.2489    6.4227   23.0218 N   0  0  0  0  0  0  0  0  0  0  0  0
    7.2472    8.0746   23.5050 C   0  0  0  0  0  0  0  0  0  0  0  0
    9.2051    6.9101   23.4604 C   0  0  0  0  0  0  0  0  0  0  0  0
   11.9646    6.0299   21.4251 C   0  0  0  0  0  0  0  0  0  0  0  0
  1  5  1  0
  1 13  1  0
  2 20  2  0
  2 28  1  0
  2 29  1  0
  3 19  4  0
  3 25  4  0
  4 23  4  0
  4 27  1  0
  4 30  4  0
  5 17  1  0
  6  8  1  0
  6 29  1  0
  7 24  4  0
  7 26  4  0
  8 28  1  0
  9 13  2  0
 10 18  1  0
 10 21  4  0
 10 30  4  0
 11 17  2  0
 12 18  1  0
 13 15  1  0
 14 24  1  0
 15 25  1  0
 16 28  2  0
 17 20  1  0
 19 24  4  0
 20 23  1  0
 21 22  4  0
 22 23  4  0
 25 26  4  0
 27 29  2  0
M  END
$$$$

 Created by Python create_sdf_string function

 30 33  0  0  0  0  0  0  0  0999 V2000
    8.3036    9.8571   18.4133 C   0  0  0  0  0  0  0  0  0  0  0  0
    8.3694    7.6612   22.6703 C   0  0  0  0  0  0  0  0  0  0  0  0
    8.4143    6.6863   16.2273 C   0  0  0  0  0  0  0  0  0  0  0  0
   10.7581    6.5674   21.7636 C   0  0  0  0  0  0  0  0  0  0  0  0
    8.4452    8.7960   19.2958 O   0  0  0  0  0  0  0  0  0  0  0  0
    8.7122    6.7842   24.8569 C   0  0  0  0  0  0  0  0  0  0  0  0
   10.3400    6.1726   14.3081 C   0  0  0  0  0  0  0  0  0  0  0  0
    7.4297    7.5873   24.8962 C   0  0  0  0  0  0  0  0  0  0  0  0
    8.1566   10.0536   16.0516 O   0  0  0  0  0  0  0  0  0  0  0  0
   12.4989    6.2074   20.1776 C   0  0  0  0  0  0  0  0  0  0  0  0
    6.9192    9.1053   20.9073 O   0  0  0  0  0  0  0  0  0  0  0  0
   14.3979    6.0729   18.7784 C   0  0  0  0  0  0  0  0  0  0  0  0
    8.6811    9.5354   16.9998 C   0  0  0  0  0  0  0  0  0  0  0  0
    9.2512    4.2713   13.7653 O   0  0  0  0  0  0  0  0  0  0  0  0
    9.6495    8.6317   16.8332 N   0  0  0  0  0  0  0  0  0  0  0  0
    6.2934    8.6988   23.1988 O   0  0  0  0  0  0  0  0  0  0  0  0
    7.9806    8.6543   20.5437 C   0  0  0  0  0  0  0  0  0  0  0  0
   13.7270    5.7144   19.8610 O   0  0  0  0  0  0  0  0  0  0  0  0
    8.3351    5.5235   15.4478 C   0  0  0  0  0  0  0  0  0  0  0  0
    8.7700    7.8434   21.3915 C   0  0  0  0  0  0  0  0  0  0  0  0
   11.7856    6.8851   19.2401 C   0  0  0  0  0  0  0  0  0  0  0  0
   10.5281    7.4276   19.5649 C   0  0  0  0  0  0  0  0  0  0  0  0
   10.0256    7.2907   20.8484 C   0  0  0  0  0  0  0  0  0  0  0  0
    9.3113    5.3049   14.4911 C   0  0  0  0  0  0  0  0  0  0  0  0
    9.4607    7.5646   16.0139 C   0  0  0  0  0  0  0  0  0  0  0  0
   10.4192    7.3157   15.0955 C   0  0  0  0  0  0  0  0  0  0  0  0
   10.2489    6.4227   23.0218 N   0  0  0  0  0  0  0  0  0  0  0  0
    7.2472    8.0746   23.5050 C   0  0  0  0  0  0  0  0  0  0  0  0
    9.2051    6.9101   23.4604 C   0  0  0  0  0  0  0  0  0  0  0  0
   11.9646    6.0299   21.4251 C   0  0  0  0  0  0  0  0  0  0  0  0
  1  5  1  0
  1 13  1  0
  2 20  2  0
  2 28  1  0
  2 29  1  0
  3 19  4  0
  3 25  4  0
  4 23  4  0
  4 27  1  0
  4 30  4  0
  5 17  1  0
  6  8  1  0
  6 29  1  0
  7 24  4  0
  7 26  4  0
  8 28  1  0
  9 13  2  0
 10 18  1  0
 10 21  4  0
 10 30  4  0
 11 17  2  0
 12 18  1  0
 13 15  1  0
 14 24  1  0
 15 25  1  0
 16 28  2  0
 17 20  1  0
 19 24  4  0
 20 23  1  0
 21 22  4  0
 22 23  4  0
 25 26  4  0
 27 29  2  0
M  END
$$$$

 Created by Python create_sdf_string function

 30 33  0  0  0  0  0  0  0  0999 V2000
    8.3036    9.8571   18.4133 C   0  0  0  0  0  0  0  0  0  0  0  0
    8.3694    7.6612   22.6703 C   0  0  0  0  0  0  0  0  0  0  0  0
    8.4143    6.6863   16.2273 C   0  0  0  0  0  0  0  0  0  0  0  0
   10.7581    6.5674   21.7636 C   0  0  0  0  0  0  0  0  0  0  0  0
    8.4452    8.7960   19.2958 O   0  0  0  0  0  0  0  0  0  0  0  0
    8.7122    6.7842   24.8569 C   0  0  0  0  0  0  0  0  0  0  0  0
   10.3400    6.1726   14.3081 C   0  0  0  0  0  0  0  0  0  0  0  0
    7.4297    7.5873   24.8962 C   0  0  0  0  0  0  0  0  0  0  0  0
    8.1566   10.0536   16.0516 O   0  0  0  0  0  0  0  0  0  0  0  0
   12.4989    6.2074   20.1776 C   0  0  0  0  0  0  0  0  0  0  0  0
    6.9192    9.1053   20.9073 O   0  0  0  0  0  0  0  0  0  0  0  0
   14.3979    6.0729   18.7784 C   0  0  0  0  0  0  0  0  0  0  0  0
    8.6811    9.5354   16.9998 C   0  0  0  0  0  0  0  0  0  0  0  0
    9.2512    4.2713   13.7653 O   0  0  0  0  0  0  0  0  0  0  0  0
    9.6495    8.6317   16.8332 N   0  0  0  0  0  0  0  0  0  0  0  0
    6.2934    8.6988   23.1988 O   0  0  0  0  0  0  0  0  0  0  0  0
    7.9806    8.6543   20.5437 C   0  0  0  0  0  0  0  0  0  0  0  0
   13.7270    5.7144   19.8610 O   0  0  0  0  0  0  0  0  0  0  0  0
    8.3351    5.5235   15.4478 C   0  0  0  0  0  0  0  0  0  0  0  0
    8.7700    7.8434   21.3915 C   0  0  0  0  0  0  0  0  0  0  0  0
   11.7856    6.8851   19.2401 C   0  0  0  0  0  0  0  0  0  0  0  0
   10.5281    7.4276   19.5649 C   0  0  0  0  0  0  0  0  0  0  0  0
   10.0256    7.2907   20.8484 C   0  0  0  0  0  0  0  0  0  0  0  0
    9.3113    5.3049   14.4911 C   0  0  0  0  0  0  0  0  0  0  0  0
    9.4607    7.5646   16.0139 C   0  0  0  0  0  0  0  0  0  0  0  0
   10.4192    7.3157   15.0955 C   0  0  0  0  0  0  0  0  0  0  0  0
   10.2489    6.4227   23.0218 N   0  0  0  0  0  0  0  0  0  0  0  0
    7.2472    8.0746   23.5050 C   0  0  0  0  0  0  0  0  0  0  0  0
    9.2051    6.9101   23.4604 C   0  0  0  0  0  0  0  0  0  0  0  0
   11.9646    6.0299   21.4251 C   0  0  0  0  0  0  0  0  0  0  0  0
  1  5  1  0
  1 13  1  0
  2 20  2  0
  2 28  1  0
  2 29  1  0
  3 19  4  0
  3 25  4  0
  4 23  4  0
  4 27  1  0
  4 30  4  0
  5 17  1  0
  6  8  1  0
  6 29  1  0
  7 24  4  0
  7 26  4  0
  8 28  1  0
  9 13  2  0
 10 18  1  0
 10 21  4  0
 10 30  4  0
 11 17  2  0
 12 18  1  0
 13 15  1  0
 14 24  1  0
 15 25  1  0
 16 28  2  0
 17 20  1  0
 19 24  4  0
 20 23  1  0
 21 22  4  0
 22 23  4  0
 25 26  4  0
 27 29  2  0
M  END
$$$$

 Created by Python create_sdf_string function

 30 33  0  0  0  0  0  0  0  0999 V2000
    8.3036    9.8571   18.4133 C   0  0  0  0  0  0  0  0  0  0  0  0
    8.3694    7.6612   22.6703 C   0  0  0  0  0  0  0  0  0  0  0  0
    8.4143    6.6863   16.2273 C   0  0  0  0  0  0  0  0  0  0  0  0
   10.7581    6.5674   21.7636 C   0  0  0  0  0  0  0  0  0  0  0  0
    8.4452    8.7960   19.2958 O   0  0  0  0  0  0  0  0  0  0  0  0
    8.7122    6.7842   24.8569 C   0  0  0  0  0  0  0  0  0  0  0  0
   10.3400    6.1726   14.3081 C   0  0  0  0  0  0  0  0  0  0  0  0
    7.4297    7.5873   24.8962 C   0  0  0  0  0  0  0  0  0  0  0  0
    8.1566   10.0536   16.0516 O   0  0  0  0  0  0  0  0  0  0  0  0
   12.4989    6.2074   20.1776 C   0  0  0  0  0  0  0  0  0  0  0  0
    6.9192    9.1053   20.9073 O   0  0  0  0  0  0  0  0  0  0  0  0
   14.3979    6.0729   18.7784 C   0  0  0  0  0  0  0  0  0  0  0  0
    8.6811    9.5354   16.9998 C   0  0  0  0  0  0  0  0  0  0  0  0
    9.2512    4.2713   13.7653 O   0  0  0  0  0  0  0  0  0  0  0  0
    9.6495    8.6317   16.8332 N   0  0  0  0  0  0  0  0  0  0  0  0
    6.2934    8.6988   23.1988 O   0  0  0  0  0  0  0  0  0  0  0  0
    7.9806    8.6543   20.5437 C   0  0  0  0  0  0  0  0  0  0  0  0
   13.7270    5.7144   19.8610 O   0  0  0  0  0  0  0  0  0  0  0  0
    8.3351    5.5235   15.4478 C   0  0  0  0  0  0  0  0  0  0  0  0
    8.7700    7.8434   21.3915 C   0  0  0  0  0  0  0  0  0  0  0  0
   11.7856    6.8851   19.2401 C   0  0  0  0  0  0  0  0  0  0  0  0
   10.5281    7.4276   19.5649 C   0  0  0  0  0  0  0  0  0  0  0  0
   10.0256    7.2907   20.8484 C   0  0  0  0  0  0  0  0  0  0  0  0
    9.3113    5.3049   14.4911 C   0  0  0  0  0  0  0  0  0  0  0  0
    9.4607    7.5646   16.0139 C   0  0  0  0  0  0  0  0  0  0  0  0
   10.4192    7.3157   15.0955 C   0  0  0  0  0  0  0  0  0  0  0  0
   10.2489    6.4227   23.0218 N   0  0  0  0  0  0  0  0  0  0  0  0
    7.2472    8.0746   23.5050 C   0  0  0  0  0  0  0  0  0  0  0  0
    9.2051    6.9101   23.4604 C   0  0  0  0  0  0  0  0  0  0  0  0
   11.9646    6.0299   21.4251 C   0  0  0  0  0  0  0  0  0  0  0  0
  1  5  1  0
  1 13  1  0
  2 20  2  0
  2 28  1  0
  2 29  1  0
  3 19  4  0
  3 25  4  0
  4 23  4  0
  4 27  1  0
  4 30  4  0
  5 17  1  0
  6  8  1  0
  6 29  1  0
  7 24  4  0
  7 26  4  0
  8 28  1  0
  9 13  2  0
 10 18  1  0
 10 21  4  0
 10 30  4  0
 11 17  2  0
 12 18  1  0
 13 15  1  0
 14 24  1  0
 15 25  1  0
 16 28  2  0
 17 20  1  0
 19 24  4  0
 20 23  1  0
 21 22  4  0
 22 23  4  0
 25 26  4  0
 27 29  2  0
M  END
$$$$

 Created by Python create_sdf_string function

 30 33  0  0  0  0  0  0  0  0999 V2000
    8.3036    9.8571   18.4133 C   0  0  0  0  0  0  0  0  0  0  0  0
    8.3694    7.6612   22.6703 C   0  0  0  0  0  0  0  0  0  0  0  0
    8.4143    6.6863   16.2273 C   0  0  0  0  0  0  0  0  0  0  0  0
   10.7581    6.5674   21.7636 C   0  0  0  0  0  0  0  0  0  0  0  0
    8.4452    8.7960   19.2958 O   0  0  0  0  0  0  0  0  0  0  0  0
    8.7122    6.7842   24.8569 C   0  0  0  0  0  0  0  0  0  0  0  0
   10.3400    6.1726   14.3081 C   0  0  0  0  0  0  0  0  0  0  0  0
    7.4297    7.5873   24.8962 C   0  0  0  0  0  0  0  0  0  0  0  0
    8.1566   10.0536   16.0516 O   0  0  0  0  0  0  0  0  0  0  0  0
   12.4989    6.2074   20.1776 C   0  0  0  0  0  0  0  0  0  0  0  0
    6.9192    9.1053   20.9073 O   0  0  0  0  0  0  0  0  0  0  0  0
   14.3979    6.0729   18.7784 C   0  0  0  0  0  0  0  0  0  0  0  0
    8.6811    9.5354   16.9998 C   0  0  0  0  0  0  0  0  0  0  0  0
    9.2512    4.2713   13.7653 O   0  0  0  0  0  0  0  0  0  0  0  0
    9.6495    8.6317   16.8332 N   0  0  0  0  0  0  0  0  0  0  0  0
    6.2934    8.6988   23.1988 O   0  0  0  0  0  0  0  0  0  0  0  0
    7.9806    8.6543   20.5437 C   0  0  0  0  0  0  0  0  0  0  0  0
   13.7270    5.7144   19.8610 O   0  0  0  0  0  0  0  0  0  0  0  0
    8.3351    5.5235   15.4478 C   0  0  0  0  0  0  0  0  0  0  0  0
    8.7700    7.8434   21.3915 C   0  0  0  0  0  0  0  0  0  0  0  0
   11.7856    6.8851   19.2401 C   0  0  0  0  0  0  0  0  0  0  0  0
   10.5281    7.4276   19.5649 C   0  0  0  0  0  0  0  0  0  0  0  0
   10.0256    7.2907   20.8484 C   0  0  0  0  0  0  0  0  0  0  0  0
    9.3113    5.3049   14.4911 C   0  0  0  0  0  0  0  0  0  0  0  0
    9.4607    7.5646   16.0139 C   0  0  0  0  0  0  0  0  0  0  0  0
   10.4192    7.3157   15.0955 C   0  0  0  0  0  0  0  0  0  0  0  0
   10.2489    6.4227   23.0218 N   0  0  0  0  0  0  0  0  0  0  0  0
    7.2472    8.0746   23.5050 C   0  0  0  0  0  0  0  0  0  0  0  0
    9.2051    6.9101   23.4604 C   0  0  0  0  0  0  0  0  0  0  0  0
   11.9646    6.0299   21.4251 C   0  0  0  0  0  0  0  0  0  0  0  0
  1  5  1  0
  1 13  1  0
  2 20  2  0
  2 28  1  0
  2 29  1  0
  3 19  4  0
  3 25  4  0
  4 23  4  0
  4 27  1  0
  4 30  4  0
  5 17  1  0
  6  8  1  0
  6 29  1  0
  7 24  4  0
  7 26  4  0
  8 28  1  0
  9 13  2  0
 10 18  1  0
 10 21  4  0
 10 30  4  0
 11 17  2  0
 12 18  1  0
 13 15  1  0
 14 24  1  0
 15 25  1  0
 16 28  2  0
 17 20  1  0
 19 24  4  0
 20 23  1  0
 21 22  4  0
 22 23  4  0
 25 26  4  0
 27 29  2  0
M  END
$$$$

 Created by Python create_sdf_string function

 30 33  0  0  0  0  0  0  0  0999 V2000
    8.3036    9.8571   18.4133 C   0  0  0  0  0  0  0  0  0  0  0  0
    8.3694    7.6612   22.6703 C   0  0  0  0  0  0  0  0  0  0  0  0
    8.4143    6.6863   16.2273 C   0  0  0  0  0  0  0  0  0  0  0  0
   10.7581    6.5674   21.7636 C   0  0  0  0  0  0  0  0  0  0  0  0
    8.4452    8.7960   19.2958 O   0  0  0  0  0  0  0  0  0  0  0  0
    8.7122    6.7842   24.8569 C   0  0  0  0  0  0  0  0  0  0  0  0
   10.3400    6.1726   14.3081 C   0  0  0  0  0  0  0  0  0  0  0  0
    7.4297    7.5873   24.8962 C   0  0  0  0  0  0  0  0  0  0  0  0
    8.1566   10.0536   16.0516 O   0  0  0  0  0  0  0  0  0  0  0  0
   12.4989    6.2074   20.1776 C   0  0  0  0  0  0  0  0  0  0  0  0
    6.9192    9.1053   20.9073 O   0  0  0  0  0  0  0  0  0  0  0  0
   14.3979    6.0729   18.7784 C   0  0  0  0  0  0  0  0  0  0  0  0
    8.6811    9.5354   16.9998 C   0  0  0  0  0  0  0  0  0  0  0  0
    9.2512    4.2713   13.7653 O   0  0  0  0  0  0  0  0  0  0  0  0
    9.6495    8.6317   16.8332 N   0  0  0  0  0  0  0  0  0  0  0  0
    6.2934    8.6988   23.1988 O   0  0  0  0  0  0  0  0  0  0  0  0
    7.9806    8.6543   20.5437 C   0  0  0  0  0  0  0  0  0  0  0  0
   13.7270    5.7144   19.8610 O   0  0  0  0  0  0  0  0  0  0  0  0
    8.3351    5.5235   15.4478 C   0  0  0  0  0  0  0  0  0  0  0  0
    8.7700    7.8434   21.3915 C   0  0  0  0  0  0  0  0  0  0  0  0
   11.7856    6.8851   19.2401 C   0  0  0  0  0  0  0  0  0  0  0  0
   10.5281    7.4276   19.5649 C   0  0  0  0  0  0  0  0  0  0  0  0
   10.0256    7.2907   20.8484 C   0  0  0  0  0  0  0  0  0  0  0  0
    9.3113    5.3049   14.4911 C   0  0  0  0  0  0  0  0  0  0  0  0
    9.4607    7.5646   16.0139 C   0  0  0  0  0  0  0  0  0  0  0  0
   10.4192    7.3157   15.0955 C   0  0  0  0  0  0  0  0  0  0  0  0
   10.2489    6.4227   23.0218 N   0  0  0  0  0  0  0  0  0  0  0  0
    7.2472    8.0746   23.5050 C   0  0  0  0  0  0  0  0  0  0  0  0
    9.2051    6.9101   23.4604 C   0  0  0  0  0  0  0  0  0  0  0  0
   11.9646    6.0299   21.4251 C   0  0  0  0  0  0  0  0  0  0  0  0
  1  5  1  0
  1 13  1  0
  2 20  2  0
  2 28  1  0
  2 29  1  0
  3 19  4  0
  3 25  4  0
  4 23  4  0
  4 27  1  0
  4 30  4  0
  5 17  1  0
  6  8  1  0
  6 29  1  0
  7 24  4  0
  7 26  4  0
  8 28  1  0
  9 13  2  0
 10 18  1  0
 10 21  4  0
 10 30  4  0
 11 17  2  0
 12 18  1  0
 13 15  1  0
 14 24  1  0
 15 25  1  0
 16 28  2  0
 17 20  1  0
 19 24  4  0
 20 23  1  0
 21 22  4  0
 22 23  4  0
 25 26  4  0
 27 29  2  0
M  END
$$$$

 Created by Python create_sdf_string function

 30 33  0  0  0  0  0  0  0  0999 V2000
    8.3036    9.8571   18.4133 C   0  0  0  0  0  0  0  0  0  0  0  0
    8.3694    7.6612   22.6703 C   0  0  0  0  0  0  0  0  0  0  0  0
    8.4143    6.6863   16.2273 C   0  0  0  0  0  0  0  0  0  0  0  0
   10.7581    6.5674   21.7636 C   0  0  0  0  0  0  0  0  0  0  0  0
    8.4452    8.7960   19.2958 O   0  0  0  0  0  0  0  0  0  0  0  0
    8.7122    6.7842   24.8569 C   0  0  0  0  0  0  0  0  0  0  0  0
   10.3400    6.1726   14.3081 C   0  0  0  0  0  0  0  0  0  0  0  0
    7.4297    7.5873   24.8962 C   0  0  0  0  0  0  0  0  0  0  0  0
    8.1566   10.0536   16.0516 O   0  0  0  0  0  0  0  0  0  0  0  0
   12.4989    6.2074   20.1776 C   0  0  0  0  0  0  0  0  0  0  0  0
    6.9192    9.1053   20.9073 O   0  0  0  0  0  0  0  0  0  0  0  0
   14.3979    6.0729   18.7784 C   0  0  0  0  0  0  0  0  0  0  0  0
    8.6811    9.5354   16.9998 C   0  0  0  0  0  0  0  0  0  0  0  0
    9.2512    4.2713   13.7653 O   0  0  0  0  0  0  0  0  0  0  0  0
    9.6495    8.6317   16.8332 N   0  0  0  0  0  0  0  0  0  0  0  0
    6.2934    8.6988   23.1988 O   0  0  0  0  0  0  0  0  0  0  0  0
    7.9806    8.6543   20.5437 C   0  0  0  0  0  0  0  0  0  0  0  0
   13.7270    5.7144   19.8610 O   0  0  0  0  0  0  0  0  0  0  0  0
    8.3351    5.5235   15.4478 C   0  0  0  0  0  0  0  0  0  0  0  0
    8.7700    7.8434   21.3915 C   0  0  0  0  0  0  0  0  0  0  0  0
   11.7856    6.8851   19.2401 C   0  0  0  0  0  0  0  0  0  0  0  0
   10.5281    7.4276   19.5649 C   0  0  0  0  0  0  0  0  0  0  0  0
   10.0256    7.2907   20.8484 C   0  0  0  0  0  0  0  0  0  0  0  0
    9.3113    5.3049   14.4911 C   0  0  0  0  0  0  0  0  0  0  0  0
    9.4607    7.5646   16.0139 C   0  0  0  0  0  0  0  0  0  0  0  0
   10.4192    7.3157   15.0955 C   0  0  0  0  0  0  0  0  0  0  0  0
   10.2489    6.4227   23.0218 N   0  0  0  0  0  0  0  0  0  0  0  0
    7.2472    8.0746   23.5050 C   0  0  0  0  0  0  0  0  0  0  0  0
    9.2051    6.9101   23.4604 C   0  0  0  0  0  0  0  0  0  0  0  0
   11.9646    6.0299   21.4251 C   0  0  0  0  0  0  0  0  0  0  0  0
  1  5  1  0
  1 13  1  0
  2 20  2  0
  2 28  1  0
  2 29  1  0
  3 19  4  0
  3 25  4  0
  4 23  4  0
  4 27  1  0
  4 30  4  0
  5 17  1  0
  6  8  1  0
  6 29  1  0
  7 24  4  0
  7 26  4  0
  8 28  1  0
  9 13  2  0
 10 18  1  0
 10 21  4  0
 10 30  4  0
 11 17  2  0
 12 18  1  0
 13 15  1  0
 14 24  1  0
 15 25  1  0
 16 28  2  0
 17 20  1  0
 19 24  4  0
 20 23  1  0
 21 22  4  0
 22 23  4  0
 25 26  4  0
 27 29  2  0
M  END
$$$$

 Created by Python create_sdf_string function

 30 33  0  0  0  0  0  0  0  0999 V2000
    8.3036    9.8571   18.4133 C   0  0  0  0  0  0  0  0  0  0  0  0
    8.3694    7.6612   22.6703 C   0  0  0  0  0  0  0  0  0  0  0  0
    8.4143    6.6863   16.2273 C   0  0  0  0  0  0  0  0  0  0  0  0
   10.7581    6.5674   21.7636 C   0  0  0  0  0  0  0  0  0  0  0  0
    8.4452    8.7960   19.2958 O   0  0  0  0  0  0  0  0  0  0  0  0
    8.7122    6.7842   24.8569 C   0  0  0  0  0  0  0  0  0  0  0  0
   10.3400    6.1726   14.3081 C   0  0  0  0  0  0  0  0  0  0  0  0
    7.4297    7.5873   24.8962 C   0  0  0  0  0  0  0  0  0  0  0  0
    8.1566   10.0536   16.0516 O   0  0  0  0  0  0  0  0  0  0  0  0
   12.4989    6.2074   20.1776 C   0  0  0  0  0  0  0  0  0  0  0  0
    6.9192    9.1053   20.9073 O   0  0  0  0  0  0  0  0  0  0  0  0
   14.3979    6.0729   18.7784 C   0  0  0  0  0  0  0  0  0  0  0  0
    8.6811    9.5354   16.9998 C   0  0  0  0  0  0  0  0  0  0  0  0
    9.2512    4.2713   13.7653 O   0  0  0  0  0  0  0  0  0  0  0  0
    9.6495    8.6317   16.8332 N   0  0  0  0  0  0  0  0  0  0  0  0
    6.2934    8.6988   23.1988 O   0  0  0  0  0  0  0  0  0  0  0  0
    7.9806    8.6543   20.5437 C   0  0  0  0  0  0  0  0  0  0  0  0
   13.7270    5.7144   19.8610 O   0  0  0  0  0  0  0  0  0  0  0  0
    8.3351    5.5235   15.4478 C   0  0  0  0  0  0  0  0  0  0  0  0
    8.7700    7.8434   21.3915 C   0  0  0  0  0  0  0  0  0  0  0  0
   11.7856    6.8851   19.2401 C   0  0  0  0  0  0  0  0  0  0  0  0
   10.5281    7.4276   19.5649 C   0  0  0  0  0  0  0  0  0  0  0  0
   10.0256    7.2907   20.8484 C   0  0  0  0  0  0  0  0  0  0  0  0
    9.3113    5.3049   14.4911 C   0  0  0  0  0  0  0  0  0  0  0  0
    9.4607    7.5646   16.0139 C   0  0  0  0  0  0  0  0  0  0  0  0
   10.4192    7.3157   15.0955 C   0  0  0  0  0  0  0  0  0  0  0  0
   10.2489    6.4227   23.0218 N   0  0  0  0  0  0  0  0  0  0  0  0
    7.2472    8.0746   23.5050 C   0  0  0  0  0  0  0  0  0  0  0  0
    9.2051    6.9101   23.4604 C   0  0  0  0  0  0  0  0  0  0  0  0
   11.9646    6.0299   21.4251 C   0  0  0  0  0  0  0  0  0  0  0  0
  1  5  1  0
  1 13  1  0
  2 20  2  0
  2 28  1  0
  2 29  1  0
  3 19  4  0
  3 25  4  0
  4 23  4  0
  4 27  1  0
  4 30  4  0
  5 17  1  0
  6  8  1  0
  6 29  1  0
  7 24  4  0
  7 26  4  0
  8 28  1  0
  9 13  2  0
 10 18  1  0
 10 21  4  0
 10 30  4  0
 11 17  2  0
 12 18  1  0
 13 15  1  0
 14 24  1  0
 15 25  1  0
 16 28  2  0
 17 20  1  0
 19 24  4  0
 20 23  1  0
 21 22  4  0
 22 23  4  0
 25 26  4  0
 27 29  2  0
M  END
$$$$

 Created by Python create_sdf_string function

 30 33  0  0  0  0  0  0  0  0999 V2000
    8.3036    9.8571   18.4133 C   0  0  0  0  0  0  0  0  0  0  0  0
    8.3694    7.6612   22.6703 C   0  0  0  0  0  0  0  0  0  0  0  0
    8.4143    6.6863   16.2273 C   0  0  0  0  0  0  0  0  0  0  0  0
   10.7581    6.5674   21.7636 C   0  0  0  0  0  0  0  0  0  0  0  0
    8.4452    8.7960   19.2958 O   0  0  0  0  0  0  0  0  0  0  0  0
    8.7122    6.7842   24.8569 C   0  0  0  0  0  0  0  0  0  0  0  0
   10.3400    6.1726   14.3081 C   0  0  0  0  0  0  0  0  0  0  0  0
    7.4297    7.5873   24.8962 C   0  0  0  0  0  0  0  0  0  0  0  0
    8.1566   10.0536   16.0516 O   0  0  0  0  0  0  0  0  0  0  0  0
   12.4989    6.2074   20.1776 C   0  0  0  0  0  0  0  0  0  0  0  0
    6.9192    9.1053   20.9073 O   0  0  0  0  0  0  0  0  0  0  0  0
   14.3979    6.0729   18.7784 C   0  0  0  0  0  0  0  0  0  0  0  0
    8.6811    9.5354   16.9998 C   0  0  0  0  0  0  0  0  0  0  0  0
    9.2512    4.2713   13.7653 O   0  0  0  0  0  0  0  0  0  0  0  0
    9.6495    8.6317   16.8332 N   0  0  0  0  0  0  0  0  0  0  0  0
    6.2934    8.6988   23.1988 O   0  0  0  0  0  0  0  0  0  0  0  0
    7.9806    8.6543   20.5437 C   0  0  0  0  0  0  0  0  0  0  0  0
   13.7270    5.7144   19.8610 O   0  0  0  0  0  0  0  0  0  0  0  0
    8.3351    5.5235   15.4478 C   0  0  0  0  0  0  0  0  0  0  0  0
    8.7700    7.8434   21.3915 C   0  0  0  0  0  0  0  0  0  0  0  0
   11.7856    6.8851   19.2401 C   0  0  0  0  0  0  0  0  0  0  0  0
   10.5281    7.4276   19.5649 C   0  0  0  0  0  0  0  0  0  0  0  0
   10.0256    7.2907   20.8484 C   0  0  0  0  0  0  0  0  0  0  0  0
    9.3113    5.3049   14.4911 C   0  0  0  0  0  0  0  0  0  0  0  0
    9.4607    7.5646   16.0139 C   0  0  0  0  0  0  0  0  0  0  0  0
   10.4192    7.3157   15.0955 C   0  0  0  0  0  0  0  0  0  0  0  0
   10.2489    6.4227   23.0218 N   0  0  0  0  0  0  0  0  0  0  0  0
    7.2472    8.0746   23.5050 C   0  0  0  0  0  0  0  0  0  0  0  0
    9.2051    6.9101   23.4604 C   0  0  0  0  0  0  0  0  0  0  0  0
   11.9646    6.0299   21.4251 C   0  0  0  0  0  0  0  0  0  0  0  0
  1  5  1  0
  1 13  1  0
  2 20  2  0
  2 28  1  0
  2 29  1  0
  3 19  4  0
  3 25  4  0
  4 23  4  0
  4 27  1  0
  4 30  4  0
  5 17  1  0
  6  8  1  0
  6 29  1  0
  7 24  4  0
  7 26  4  0
  8 28  1  0
  9 13  2  0
 10 18  1  0
 10 21  4  0
 10 30  4  0
 11 17  2  0
 12 18  1  0
 13 15  1  0
 14 24  1  0
 15 25  1  0
 16 28  2  0
 17 20  1  0
 19 24  4  0
 20 23  1  0
 21 22  4  0
 22 23  4  0
 25 26  4  0
 27 29  2  0
M  END
$$$$

 Created by Python create_sdf_string function

 30 33  0  0  0  0  0  0  0  0999 V2000
    8.3036    9.8571   18.4133 C   0  0  0  0  0  0  0  0  0  0  0  0
    8.3694    7.6612   22.6703 C   0  0  0  0  0  0  0  0  0  0  0  0
    8.4143    6.6863   16.2273 C   0  0  0  0  0  0  0  0  0  0  0  0
   10.7581    6.5674   21.7636 C   0  0  0  0  0  0  0  0  0  0  0  0
    8.4452    8.7960   19.2958 O   0  0  0  0  0  0  0  0  0  0  0  0
    8.7122    6.7842   24.8569 C   0  0  0  0  0  0  0  0  0  0  0  0
   10.3400    6.1726   14.3081 C   0  0  0  0  0  0  0  0  0  0  0  0
    7.4297    7.5873   24.8962 C   0  0  0  0  0  0  0  0  0  0  0  0
    8.1566   10.0536   16.0516 O   0  0  0  0  0  0  0  0  0  0  0  0
   12.4989    6.2074   20.1776 C   0  0  0  0  0  0  0  0  0  0  0  0
    6.9192    9.1053   20.9073 O   0  0  0  0  0  0  0  0  0  0  0  0
   14.3979    6.0729   18.7784 C   0  0  0  0  0  0  0  0  0  0  0  0
    8.6811    9.5354   16.9998 C   0  0  0  0  0  0  0  0  0  0  0  0
    9.2512    4.2713   13.7653 O   0  0  0  0  0  0  0  0  0  0  0  0
    9.6495    8.6317   16.8332 N   0  0  0  0  0  0  0  0  0  0  0  0
    6.2934    8.6988   23.1988 O   0  0  0  0  0  0  0  0  0  0  0  0
    7.9806    8.6543   20.5437 C   0  0  0  0  0  0  0  0  0  0  0  0
   13.7270    5.7144   19.8610 O   0  0  0  0  0  0  0  0  0  0  0  0
    8.3351    5.5235   15.4478 C   0  0  0  0  0  0  0  0  0  0  0  0
    8.7700    7.8434   21.3915 C   0  0  0  0  0  0  0  0  0  0  0  0
   11.7856    6.8851   19.2401 C   0  0  0  0  0  0  0  0  0  0  0  0
   10.5281    7.4276   19.5649 C   0  0  0  0  0  0  0  0  0  0  0  0
   10.0256    7.2907   20.8484 C   0  0  0  0  0  0  0  0  0  0  0  0
    9.3113    5.3049   14.4911 C   0  0  0  0  0  0  0  0  0  0  0  0
    9.4607    7.5646   16.0139 C   0  0  0  0  0  0  0  0  0  0  0  0
   10.4192    7.3157   15.0955 C   0  0  0  0  0  0  0  0  0  0  0  0
   10.2489    6.4227   23.0218 N   0  0  0  0  0  0  0  0  0  0  0  0
    7.2472    8.0746   23.5050 C   0  0  0  0  0  0  0  0  0  0  0  0
    9.2051    6.9101   23.4604 C   0  0  0  0  0  0  0  0  0  0  0  0
   11.9646    6.0299   21.4251 C   0  0  0  0  0  0  0  0  0  0  0  0
  1  5  1  0
  1 13  1  0
  2 20  2  0
  2 28  1  0
  2 29  1  0
  3 19  4  0
  3 25  4  0
  4 23  4  0
  4 27  1  0
  4 30  4  0
  5 17  1  0
  6  8  1  0
  6 29  1  0
  7 24  4  0
  7 26  4  0
  8 28  1  0
  9 13  2  0
 10 18  1  0
 10 21  4  0
 10 30  4  0
 11 17  2  0
 12 18  1  0
 13 15  1  0
 14 24  1  0
 15 25  1  0
 16 28  2  0
 17 20  1  0
 19 24  4  0
 20 23  1  0
 21 22  4  0
 22 23  4  0
 25 26  4  0
 27 29  2  0
M  END
$$$$

 Created by Python create_sdf_string function

 30 33  0  0  0  0  0  0  0  0999 V2000
    8.3036    9.8571   18.4133 C   0  0  0  0  0  0  0  0  0  0  0  0
    8.3694    7.6612   22.6703 C   0  0  0  0  0  0  0  0  0  0  0  0
    8.4143    6.6863   16.2273 C   0  0  0  0  0  0  0  0  0  0  0  0
   10.7581    6.5674   21.7636 C   0  0  0  0  0  0  0  0  0  0  0  0
    8.4452    8.7960   19.2958 O   0  0  0  0  0  0  0  0  0  0  0  0
    8.7122    6.7842   24.8569 C   0  0  0  0  0  0  0  0  0  0  0  0
   10.3400    6.1726   14.3081 C   0  0  0  0  0  0  0  0  0  0  0  0
    7.4297    7.5873   24.8962 C   0  0  0  0  0  0  0  0  0  0  0  0
    8.1566   10.0536   16.0516 O   0  0  0  0  0  0  0  0  0  0  0  0
   12.4989    6.2074   20.1776 C   0  0  0  0  0  0  0  0  0  0  0  0
    6.9192    9.1053   20.9073 O   0  0  0  0  0  0  0  0  0  0  0  0
   14.3979    6.0729   18.7784 C   0  0  0  0  0  0  0  0  0  0  0  0
    8.6811    9.5354   16.9998 C   0  0  0  0  0  0  0  0  0  0  0  0
    9.2512    4.2713   13.7653 O   0  0  0  0  0  0  0  0  0  0  0  0
    9.6495    8.6317   16.8332 N   0  0  0  0  0  0  0  0  0  0  0  0
    6.2934    8.6988   23.1988 O   0  0  0  0  0  0  0  0  0  0  0  0
    7.9806    8.6543   20.5437 C   0  0  0  0  0  0  0  0  0  0  0  0
   13.7270    5.7144   19.8610 O   0  0  0  0  0  0  0  0  0  0  0  0
    8.3351    5.5235   15.4478 C   0  0  0  0  0  0  0  0  0  0  0  0
    8.7700    7.8434   21.3915 C   0  0  0  0  0  0  0  0  0  0  0  0
   11.7856    6.8851   19.2401 C   0  0  0  0  0  0  0  0  0  0  0  0
   10.5281    7.4276   19.5649 C   0  0  0  0  0  0  0  0  0  0  0  0
   10.0256    7.2907   20.8484 C   0  0  0  0  0  0  0  0  0  0  0  0
    9.3113    5.3049   14.4911 C   0  0  0  0  0  0  0  0  0  0  0  0
    9.4607    7.5646   16.0139 C   0  0  0  0  0  0  0  0  0  0  0  0
   10.4192    7.3157   15.0955 C   0  0  0  0  0  0  0  0  0  0  0  0
   10.2489    6.4227   23.0218 N   0  0  0  0  0  0  0  0  0  0  0  0
    7.2472    8.0746   23.5050 C   0  0  0  0  0  0  0  0  0  0  0  0
    9.2051    6.9101   23.4604 C   0  0  0  0  0  0  0  0  0  0  0  0
   11.9646    6.0299   21.4251 C   0  0  0  0  0  0  0  0  0  0  0  0
  1  5  1  0
  1 13  1  0
  2 20  2  0
  2 28  1  0
  2 29  1  0
  3 19  4  0
  3 25  4  0
  4 23  4  0
  4 27  1  0
  4 30  4  0
  5 17  1  0
  6  8  1  0
  6 29  1  0
  7 24  4  0
  7 26  4  0
  8 28  1  0
  9 13  2  0
 10 18  1  0
 10 21  4  0
 10 30  4  0
 11 17  2  0
 12 18  1  0
 13 15  1  0
 14 24  1  0
 15 25  1  0
 16 28  2  0
 17 20  1  0
 19 24  4  0
 20 23  1  0
 21 22  4  0
 22 23  4  0
 25 26  4  0
 27 29  2  0
M  END
$$$$

 Created by Python create_sdf_string function

 30 33  0  0  0  0  0  0  0  0999 V2000
    8.3036    9.8571   18.4133 C   0  0  0  0  0  0  0  0  0  0  0  0
    8.3694    7.6612   22.6703 C   0  0  0  0  0  0  0  0  0  0  0  0
    8.4143    6.6863   16.2273 C   0  0  0  0  0  0  0  0  0  0  0  0
   10.7581    6.5674   21.7636 C   0  0  0  0  0  0  0  0  0  0  0  0
    8.4452    8.7960   19.2958 O   0  0  0  0  0  0  0  0  0  0  0  0
    8.7122    6.7842   24.8569 C   0  0  0  0  0  0  0  0  0  0  0  0
   10.3400    6.1726   14.3081 C   0  0  0  0  0  0  0  0  0  0  0  0
    7.4297    7.5873   24.8962 C   0  0  0  0  0  0  0  0  0  0  0  0
    8.1566   10.0536   16.0516 O   0  0  0  0  0  0  0  0  0  0  0  0
   12.4989    6.2074   20.1776 C   0  0  0  0  0  0  0  0  0  0  0  0
    6.9192    9.1053   20.9073 O   0  0  0  0  0  0  0  0  0  0  0  0
   14.3979    6.0729   18.7784 C   0  0  0  0  0  0  0  0  0  0  0  0
    8.6811    9.5354   16.9998 C   0  0  0  0  0  0  0  0  0  0  0  0
    9.2512    4.2713   13.7653 O   0  0  0  0  0  0  0  0  0  0  0  0
    9.6495    8.6317   16.8332 N   0  0  0  0  0  0  0  0  0  0  0  0
    6.2934    8.6988   23.1988 O   0  0  0  0  0  0  0  0  0  0  0  0
    7.9806    8.6543   20.5437 C   0  0  0  0  0  0  0  0  0  0  0  0
   13.7270    5.7144   19.8610 O   0  0  0  0  0  0  0  0  0  0  0  0
    8.3351    5.5235   15.4478 C   0  0  0  0  0  0  0  0  0  0  0  0
    8.7700    7.8434   21.3915 C   0  0  0  0  0  0  0  0  0  0  0  0
   11.7856    6.8851   19.2401 C   0  0  0  0  0  0  0  0  0  0  0  0
   10.5281    7.4276   19.5649 C   0  0  0  0  0  0  0  0  0  0  0  0
   10.0256    7.2907   20.8484 C   0  0  0  0  0  0  0  0  0  0  0  0
    9.3113    5.3049   14.4911 C   0  0  0  0  0  0  0  0  0  0  0  0
    9.4607    7.5646   16.0139 C   0  0  0  0  0  0  0  0  0  0  0  0
   10.4192    7.3157   15.0955 C   0  0  0  0  0  0  0  0  0  0  0  0
   10.2489    6.4227   23.0218 N   0  0  0  0  0  0  0  0  0  0  0  0
    7.2472    8.0746   23.5050 C   0  0  0  0  0  0  0  0  0  0  0  0
    9.2051    6.9101   23.4604 C   0  0  0  0  0  0  0  0  0  0  0  0
   11.9646    6.0299   21.4251 C   0  0  0  0  0  0  0  0  0  0  0  0
  1  5  1  0
  1 13  1  0
  2 20  2  0
  2 28  1  0
  2 29  1  0
  3 19  4  0
  3 25  4  0
  4 23  4  0
  4 27  1  0
  4 30  4  0
  5 17  1  0
  6  8  1  0
  6 29  1  0
  7 24  4  0
  7 26  4  0
  8 28  1  0
  9 13  2  0
 10 18  1  0
 10 21  4  0
 10 30  4  0
 11 17  2  0
 12 18  1  0
 13 15  1  0
 14 24  1  0
 15 25  1  0
 16 28  2  0
 17 20  1  0
 19 24  4  0
 20 23  1  0
 21 22  4  0
 22 23  4  0
 25 26  4  0
 27 29  2  0
M  END
$$$$

 Created by Python create_sdf_string function

 30 33  0  0  0  0  0  0  0  0999 V2000
    8.3036    9.8571   18.4133 C   0  0  0  0  0  0  0  0  0  0  0  0
    8.3694    7.6612   22.6703 C   0  0  0  0  0  0  0  0  0  0  0  0
    8.4143    6.6863   16.2273 C   0  0  0  0  0  0  0  0  0  0  0  0
   10.7581    6.5674   21.7636 C   0  0  0  0  0  0  0  0  0  0  0  0
    8.4452    8.7960   19.2958 O   0  0  0  0  0  0  0  0  0  0  0  0
    8.7122    6.7842   24.8569 C   0  0  0  0  0  0  0  0  0  0  0  0
   10.3400    6.1726   14.3081 C   0  0  0  0  0  0  0  0  0  0  0  0
    7.4297    7.5873   24.8962 C   0  0  0  0  0  0  0  0  0  0  0  0
    8.1566   10.0536   16.0516 O   0  0  0  0  0  0  0  0  0  0  0  0
   12.4989    6.2074   20.1776 C   0  0  0  0  0  0  0  0  0  0  0  0
    6.9192    9.1053   20.9073 O   0  0  0  0  0  0  0  0  0  0  0  0
   14.3979    6.0729   18.7784 C   0  0  0  0  0  0  0  0  0  0  0  0
    8.6811    9.5354   16.9998 C   0  0  0  0  0  0  0  0  0  0  0  0
    9.2512    4.2713   13.7653 O   0  0  0  0  0  0  0  0  0  0  0  0
    9.6495    8.6317   16.8332 N   0  0  0  0  0  0  0  0  0  0  0  0
    6.2934    8.6988   23.1988 O   0  0  0  0  0  0  0  0  0  0  0  0
    7.9806    8.6543   20.5437 C   0  0  0  0  0  0  0  0  0  0  0  0
   13.7270    5.7144   19.8610 O   0  0  0  0  0  0  0  0  0  0  0  0
    8.3351    5.5235   15.4478 C   0  0  0  0  0  0  0  0  0  0  0  0
    8.7700    7.8434   21.3915 C   0  0  0  0  0  0  0  0  0  0  0  0
   11.7856    6.8851   19.2401 C   0  0  0  0  0  0  0  0  0  0  0  0
   10.5281    7.4276   19.5649 C   0  0  0  0  0  0  0  0  0  0  0  0
   10.0256    7.2907   20.8484 C   0  0  0  0  0  0  0  0  0  0  0  0
    9.3113    5.3049   14.4911 C   0  0  0  0  0  0  0  0  0  0  0  0
    9.4607    7.5646   16.0139 C   0  0  0  0  0  0  0  0  0  0  0  0
   10.4192    7.3157   15.0955 C   0  0  0  0  0  0  0  0  0  0  0  0
   10.2489    6.4227   23.0218 N   0  0  0  0  0  0  0  0  0  0  0  0
    7.2472    8.0746   23.5050 C   0  0  0  0  0  0  0  0  0  0  0  0
    9.2051    6.9101   23.4604 C   0  0  0  0  0  0  0  0  0  0  0  0
   11.9646    6.0299   21.4251 C   0  0  0  0  0  0  0  0  0  0  0  0
  1  5  1  0
  1 13  1  0
  2 20  2  0
  2 28  1  0
  2 29  1  0
  3 19  4  0
  3 25  4  0
  4 23  4  0
  4 27  1  0
  4 30  4  0
  5 17  1  0
  6  8  1  0
  6 29  1  0
  7 24  4  0
  7 26  4  0
  8 28  1  0
  9 13  2  0
 10 18  1  0
 10 21  4  0
 10 30  4  0
 11 17  2  0
 12 18  1  0
 13 15  1  0
 14 24  1  0
 15 25  1  0
 16 28  2  0
 17 20  1  0
 19 24  4  0
 20 23  1  0
 21 22  4  0
 22 23  4  0
 25 26  4  0
 27 29  2  0
M  END
$$$$

 Created by Python create_sdf_string function

 30 33  0  0  0  0  0  0  0  0999 V2000
    8.3036    9.8571   18.4133 C   0  0  0  0  0  0  0  0  0  0  0  0
    8.3694    7.6612   22.6703 C   0  0  0  0  0  0  0  0  0  0  0  0
    8.4143    6.6863   16.2273 C   0  0  0  0  0  0  0  0  0  0  0  0
   10.7581    6.5674   21.7636 C   0  0  0  0  0  0  0  0  0  0  0  0
    8.4452    8.7960   19.2958 O   0  0  0  0  0  0  0  0  0  0  0  0
    8.7122    6.7842   24.8569 C   0  0  0  0  0  0  0  0  0  0  0  0
   10.3400    6.1726   14.3081 C   0  0  0  0  0  0  0  0  0  0  0  0
    7.4297    7.5873   24.8962 C   0  0  0  0  0  0  0  0  0  0  0  0
    8.1566   10.0536   16.0516 O   0  0  0  0  0  0  0  0  0  0  0  0
   12.4989    6.2074   20.1776 C   0  0  0  0  0  0  0  0  0  0  0  0
    6.9192    9.1053   20.9073 O   0  0  0  0  0  0  0  0  0  0  0  0
   14.3979    6.0729   18.7784 C   0  0  0  0  0  0  0  0  0  0  0  0
    8.6811    9.5354   16.9998 C   0  0  0  0  0  0  0  0  0  0  0  0
    9.2512    4.2713   13.7653 O   0  0  0  0  0  0  0  0  0  0  0  0
    9.6495    8.6317   16.8332 N   0  0  0  0  0  0  0  0  0  0  0  0
    6.2934    8.6988   23.1988 O   0  0  0  0  0  0  0  0  0  0  0  0
    7.9806    8.6543   20.5437 C   0  0  0  0  0  0  0  0  0  0  0  0
   13.7270    5.7144   19.8610 O   0  0  0  0  0  0  0  0  0  0  0  0
    8.3351    5.5235   15.4478 C   0  0  0  0  0  0  0  0  0  0  0  0
    8.7700    7.8434   21.3915 C   0  0  0  0  0  0  0  0  0  0  0  0
   11.7856    6.8851   19.2401 C   0  0  0  0  0  0  0  0  0  0  0  0
   10.5281    7.4276   19.5649 C   0  0  0  0  0  0  0  0  0  0  0  0
   10.0256    7.2907   20.8484 C   0  0  0  0  0  0  0  0  0  0  0  0
    9.3113    5.3049   14.4911 C   0  0  0  0  0  0  0  0  0  0  0  0
    9.4607    7.5646   16.0139 C   0  0  0  0  0  0  0  0  0  0  0  0
   10.4192    7.3157   15.0955 C   0  0  0  0  0  0  0  0  0  0  0  0
   10.2489    6.4227   23.0218 N   0  0  0  0  0  0  0  0  0  0  0  0
    7.2472    8.0746   23.5050 C   0  0  0  0  0  0  0  0  0  0  0  0
    9.2051    6.9101   23.4604 C   0  0  0  0  0  0  0  0  0  0  0  0
   11.9646    6.0299   21.4251 C   0  0  0  0  0  0  0  0  0  0  0  0
  1  5  1  0
  1 13  1  0
  2 20  2  0
  2 28  1  0
  2 29  1  0
  3 19  4  0
  3 25  4  0
  4 23  4  0
  4 27  1  0
  4 30  4  0
  5 17  1  0
  6  8  1  0
  6 29  1  0
  7 24  4  0
  7 26  4  0
  8 28  1  0
  9 13  2  0
 10 18  1  0
 10 21  4  0
 10 30  4  0
 11 17  2  0
 12 18  1  0
 13 15  1  0
 14 24  1  0
 15 25  1  0
 16 28  2  0
 17 20  1  0
 19 24  4  0
 20 23  1  0
 21 22  4  0
 22 23  4  0
 25 26  4  0
 27 29  2  0
M  END
$$$$

 Created by Python create_sdf_string function

 30 33  0  0  0  0  0  0  0  0999 V2000
    8.3036    9.8571   18.4133 C   0  0  0  0  0  0  0  0  0  0  0  0
    8.3694    7.6612   22.6703 C   0  0  0  0  0  0  0  0  0  0  0  0
    8.4143    6.6863   16.2273 C   0  0  0  0  0  0  0  0  0  0  0  0
   10.7581    6.5674   21.7636 C   0  0  0  0  0  0  0  0  0  0  0  0
    8.4452    8.7960   19.2958 O   0  0  0  0  0  0  0  0  0  0  0  0
    8.7122    6.7842   24.8569 C   0  0  0  0  0  0  0  0  0  0  0  0
   10.3400    6.1726   14.3081 C   0  0  0  0  0  0  0  0  0  0  0  0
    7.4297    7.5873   24.8962 C   0  0  0  0  0  0  0  0  0  0  0  0
    8.1566   10.0536   16.0516 O   0  0  0  0  0  0  0  0  0  0  0  0
   12.4989    6.2074   20.1776 C   0  0  0  0  0  0  0  0  0  0  0  0
    6.9192    9.1053   20.9073 O   0  0  0  0  0  0  0  0  0  0  0  0
   14.3979    6.0729   18.7784 C   0  0  0  0  0  0  0  0  0  0  0  0
    8.6811    9.5354   16.9998 C   0  0  0  0  0  0  0  0  0  0  0  0
    9.2512    4.2713   13.7653 O   0  0  0  0  0  0  0  0  0  0  0  0
    9.6495    8.6317   16.8332 N   0  0  0  0  0  0  0  0  0  0  0  0
    6.2934    8.6988   23.1988 O   0  0  0  0  0  0  0  0  0  0  0  0
    7.9806    8.6543   20.5437 C   0  0  0  0  0  0  0  0  0  0  0  0
   13.7270    5.7144   19.8610 O   0  0  0  0  0  0  0  0  0  0  0  0
    8.3351    5.5235   15.4478 C   0  0  0  0  0  0  0  0  0  0  0  0
    8.7700    7.8434   21.3915 C   0  0  0  0  0  0  0  0  0  0  0  0
   11.7856    6.8851   19.2401 C   0  0  0  0  0  0  0  0  0  0  0  0
   10.5281    7.4276   19.5649 C   0  0  0  0  0  0  0  0  0  0  0  0
   10.0256    7.2907   20.8484 C   0  0  0  0  0  0  0  0  0  0  0  0
    9.3113    5.3049   14.4911 C   0  0  0  0  0  0  0  0  0  0  0  0
    9.4607    7.5646   16.0139 C   0  0  0  0  0  0  0  0  0  0  0  0
   10.4192    7.3157   15.0955 C   0  0  0  0  0  0  0  0  0  0  0  0
   10.2489    6.4227   23.0218 N   0  0  0  0  0  0  0  0  0  0  0  0
    7.2472    8.0746   23.5050 C   0  0  0  0  0  0  0  0  0  0  0  0
    9.2051    6.9101   23.4604 C   0  0  0  0  0  0  0  0  0  0  0  0
   11.9646    6.0299   21.4251 C   0  0  0  0  0  0  0  0  0  0  0  0
  1  5  1  0
  1 13  1  0
  2 20  2  0
  2 28  1  0
  2 29  1  0
  3 19  4  0
  3 25  4  0
  4 23  4  0
  4 27  1  0
  4 30  4  0
  5 17  1  0
  6  8  1  0
  6 29  1  0
  7 24  4  0
  7 26  4  0
  8 28  1  0
  9 13  2  0
 10 18  1  0
 10 21  4  0
 10 30  4  0
 11 17  2  0
 12 18  1  0
 13 15  1  0
 14 24  1  0
 15 25  1  0
 16 28  2  0
 17 20  1  0
 19 24  4  0
 20 23  1  0
 21 22  4  0
 22 23  4  0
 25 26  4  0
 27 29  2  0
M  END
$$$$

 Created by Python create_sdf_string function

 30 33  0  0  0  0  0  0  0  0999 V2000
    8.3036    9.8571   18.4133 C   0  0  0  0  0  0  0  0  0  0  0  0
    8.3694    7.6612   22.6703 C   0  0  0  0  0  0  0  0  0  0  0  0
    8.4143    6.6863   16.2273 C   0  0  0  0  0  0  0  0  0  0  0  0
   10.7581    6.5674   21.7636 C   0  0  0  0  0  0  0  0  0  0  0  0
    8.4452    8.7960   19.2958 O   0  0  0  0  0  0  0  0  0  0  0  0
    8.7122    6.7842   24.8569 C   0  0  0  0  0  0  0  0  0  0  0  0
   10.3400    6.1726   14.3081 C   0  0  0  0  0  0  0  0  0  0  0  0
    7.4297    7.5873   24.8962 C   0  0  0  0  0  0  0  0  0  0  0  0
    8.1566   10.0536   16.0516 O   0  0  0  0  0  0  0  0  0  0  0  0
   12.4989    6.2074   20.1776 C   0  0  0  0  0  0  0  0  0  0  0  0
    6.9192    9.1053   20.9073 O   0  0  0  0  0  0  0  0  0  0  0  0
   14.3979    6.0729   18.7784 C   0  0  0  0  0  0  0  0  0  0  0  0
    8.6811    9.5354   16.9998 C   0  0  0  0  0  0  0  0  0  0  0  0
    9.2512    4.2713   13.7653 O   0  0  0  0  0  0  0  0  0  0  0  0
    9.6495    8.6317   16.8332 N   0  0  0  0  0  0  0  0  0  0  0  0
    6.2934    8.6988   23.1988 O   0  0  0  0  0  0  0  0  0  0  0  0
    7.9806    8.6543   20.5437 C   0  0  0  0  0  0  0  0  0  0  0  0
   13.7270    5.7144   19.8610 O   0  0  0  0  0  0  0  0  0  0  0  0
    8.3351    5.5235   15.4478 C   0  0  0  0  0  0  0  0  0  0  0  0
    8.7700    7.8434   21.3915 C   0  0  0  0  0  0  0  0  0  0  0  0
   11.7856    6.8851   19.2401 C   0  0  0  0  0  0  0  0  0  0  0  0
   10.5281    7.4276   19.5649 C   0  0  0  0  0  0  0  0  0  0  0  0
   10.0256    7.2907   20.8484 C   0  0  0  0  0  0  0  0  0  0  0  0
    9.3113    5.3049   14.4911 C   0  0  0  0  0  0  0  0  0  0  0  0
    9.4607    7.5646   16.0139 C   0  0  0  0  0  0  0  0  0  0  0  0
   10.4192    7.3157   15.0955 C   0  0  0  0  0  0  0  0  0  0  0  0
   10.2489    6.4227   23.0218 N   0  0  0  0  0  0  0  0  0  0  0  0
    7.2472    8.0746   23.5050 C   0  0  0  0  0  0  0  0  0  0  0  0
    9.2051    6.9101   23.4604 C   0  0  0  0  0  0  0  0  0  0  0  0
   11.9646    6.0299   21.4251 C   0  0  0  0  0  0  0  0  0  0  0  0
  1  5  1  0
  1 13  1  0
  2 20  2  0
  2 28  1  0
  2 29  1  0
  3 19  4  0
  3 25  4  0
  4 23  4  0
  4 27  1  0
  4 30  4  0
  5 17  1  0
  6  8  1  0
  6 29  1  0
  7 24  4  0
  7 26  4  0
  8 28  1  0
  9 13  2  0
 10 18  1  0
 10 21  4  0
 10 30  4  0
 11 17  2  0
 12 18  1  0
 13 15  1  0
 14 24  1  0
 15 25  1  0
 16 28  2  0
 17 20  1  0
 19 24  4  0
 20 23  1  0
 21 22  4  0
 22 23  4  0
 25 26  4  0
 27 29  2  0
M  END
$$$$

 Created by Python create_sdf_string function

 30 33  0  0  0  0  0  0  0  0999 V2000
    8.3036    9.8571   18.4133 C   0  0  0  0  0  0  0  0  0  0  0  0
    8.3694    7.6612   22.6703 C   0  0  0  0  0  0  0  0  0  0  0  0
    8.4143    6.6863   16.2273 C   0  0  0  0  0  0  0  0  0  0  0  0
   10.7581    6.5674   21.7636 C   0  0  0  0  0  0  0  0  0  0  0  0
    8.4452    8.7960   19.2958 O   0  0  0  0  0  0  0  0  0  0  0  0
    8.7122    6.7842   24.8569 C   0  0  0  0  0  0  0  0  0  0  0  0
   10.3400    6.1726   14.3081 C   0  0  0  0  0  0  0  0  0  0  0  0
    7.4297    7.5873   24.8962 C   0  0  0  0  0  0  0  0  0  0  0  0
    8.1566   10.0536   16.0516 O   0  0  0  0  0  0  0  0  0  0  0  0
   12.4989    6.2074   20.1776 C   0  0  0  0  0  0  0  0  0  0  0  0
    6.9192    9.1053   20.9073 O   0  0  0  0  0  0  0  0  0  0  0  0
   14.3979    6.0729   18.7784 C   0  0  0  0  0  0  0  0  0  0  0  0
    8.6811    9.5354   16.9998 C   0  0  0  0  0  0  0  0  0  0  0  0
    9.2512    4.2713   13.7653 O   0  0  0  0  0  0  0  0  0  0  0  0
    9.6495    8.6317   16.8332 N   0  0  0  0  0  0  0  0  0  0  0  0
    6.2934    8.6988   23.1988 O   0  0  0  0  0  0  0  0  0  0  0  0
    7.9806    8.6543   20.5437 C   0  0  0  0  0  0  0  0  0  0  0  0
   13.7270    5.7144   19.8610 O   0  0  0  0  0  0  0  0  0  0  0  0
    8.3351    5.5235   15.4478 C   0  0  0  0  0  0  0  0  0  0  0  0
    8.7700    7.8434   21.3915 C   0  0  0  0  0  0  0  0  0  0  0  0
   11.7856    6.8851   19.2401 C   0  0  0  0  0  0  0  0  0  0  0  0
   10.5281    7.4276   19.5649 C   0  0  0  0  0  0  0  0  0  0  0  0
   10.0256    7.2907   20.8484 C   0  0  0  0  0  0  0  0  0  0  0  0
    9.3113    5.3049   14.4911 C   0  0  0  0  0  0  0  0  0  0  0  0
    9.4607    7.5646   16.0139 C   0  0  0  0  0  0  0  0  0  0  0  0
   10.4192    7.3157   15.0955 C   0  0  0  0  0  0  0  0  0  0  0  0
   10.2489    6.4227   23.0218 N   0  0  0  0  0  0  0  0  0  0  0  0
    7.2472    8.0746   23.5050 C   0  0  0  0  0  0  0  0  0  0  0  0
    9.2051    6.9101   23.4604 C   0  0  0  0  0  0  0  0  0  0  0  0
   11.9646    6.0299   21.4251 C   0  0  0  0  0  0  0  0  0  0  0  0
  1  5  1  0
  1 13  1  0
  2 20  2  0
  2 28  1  0
  2 29  1  0
  3 19  4  0
  3 25  4  0
  4 23  4  0
  4 27  1  0
  4 30  4  0
  5 17  1  0
  6  8  1  0
  6 29  1  0
  7 24  4  0
  7 26  4  0
  8 28  1  0
  9 13  2  0
 10 18  1  0
 10 21  4  0
 10 30  4  0
 11 17  2  0
 12 18  1  0
 13 15  1  0
 14 24  1  0
 15 25  1  0
 16 28  2  0
 17 20  1  0
 19 24  4  0
 20 23  1  0
 21 22  4  0
 22 23  4  0
 25 26  4  0
 27 29  2  0
M  END
$$$$

 Created by Python create_sdf_string function

 30 33  0  0  0  0  0  0  0  0999 V2000
    8.3036    9.8571   18.4133 C   0  0  0  0  0  0  0  0  0  0  0  0
    8.3694    7.6612   22.6703 C   0  0  0  0  0  0  0  0  0  0  0  0
    8.4143    6.6863   16.2273 C   0  0  0  0  0  0  0  0  0  0  0  0
   10.7581    6.5674   21.7636 C   0  0  0  0  0  0  0  0  0  0  0  0
    8.4452    8.7960   19.2958 O   0  0  0  0  0  0  0  0  0  0  0  0
    8.7122    6.7842   24.8569 C   0  0  0  0  0  0  0  0  0  0  0  0
   10.3400    6.1726   14.3081 C   0  0  0  0  0  0  0  0  0  0  0  0
    7.4297    7.5873   24.8962 C   0  0  0  0  0  0  0  0  0  0  0  0
    8.1566   10.0536   16.0516 O   0  0  0  0  0  0  0  0  0  0  0  0
   12.4989    6.2074   20.1776 C   0  0  0  0  0  0  0  0  0  0  0  0
    6.9192    9.1053   20.9073 O   0  0  0  0  0  0  0  0  0  0  0  0
   14.3979    6.0729   18.7784 C   0  0  0  0  0  0  0  0  0  0  0  0
    8.6811    9.5354   16.9998 C   0  0  0  0  0  0  0  0  0  0  0  0
    9.2512    4.2713   13.7653 O   0  0  0  0  0  0  0  0  0  0  0  0
    9.6495    8.6317   16.8332 N   0  0  0  0  0  0  0  0  0  0  0  0
    6.2934    8.6988   23.1988 O   0  0  0  0  0  0  0  0  0  0  0  0
    7.9806    8.6543   20.5437 C   0  0  0  0  0  0  0  0  0  0  0  0
   13.7270    5.7144   19.8610 O   0  0  0  0  0  0  0  0  0  0  0  0
    8.3351    5.5235   15.4478 C   0  0  0  0  0  0  0  0  0  0  0  0
    8.7700    7.8434   21.3915 C   0  0  0  0  0  0  0  0  0  0  0  0
   11.7856    6.8851   19.2401 C   0  0  0  0  0  0  0  0  0  0  0  0
   10.5281    7.4276   19.5649 C   0  0  0  0  0  0  0  0  0  0  0  0
   10.0256    7.2907   20.8484 C   0  0  0  0  0  0  0  0  0  0  0  0
    9.3113    5.3049   14.4911 C   0  0  0  0  0  0  0  0  0  0  0  0
    9.4607    7.5646   16.0139 C   0  0  0  0  0  0  0  0  0  0  0  0
   10.4192    7.3157   15.0955 C   0  0  0  0  0  0  0  0  0  0  0  0
   10.2489    6.4227   23.0218 N   0  0  0  0  0  0  0  0  0  0  0  0
    7.2472    8.0746   23.5050 C   0  0  0  0  0  0  0  0  0  0  0  0
    9.2051    6.9101   23.4604 C   0  0  0  0  0  0  0  0  0  0  0  0
   11.9646    6.0299   21.4251 C   0  0  0  0  0  0  0  0  0  0  0  0
  1  5  1  0
  1 13  1  0
  2 20  2  0
  2 28  1  0
  2 29  1  0
  3 19  4  0
  3 25  4  0
  4 23  4  0
  4 27  1  0
  4 30  4  0
  5 17  1  0
  6  8  1  0
  6 29  1  0
  7 24  4  0
  7 26  4  0
  8 28  1  0
  9 13  2  0
 10 18  1  0
 10 21  4  0
 10 30  4  0
 11 17  2  0
 12 18  1  0
 13 15  1  0
 14 24  1  0
 15 25  1  0
 16 28  2  0
 17 20  1  0
 19 24  4  0
 20 23  1  0
 21 22  4  0
 22 23  4  0
 25 26  4  0
 27 29  2  0
M  END
$$$$

 Created by Python create_sdf_string function

 30 33  0  0  0  0  0  0  0  0999 V2000
    8.3036    9.8571   18.4133 C   0  0  0  0  0  0  0  0  0  0  0  0
    8.3694    7.6612   22.6703 C   0  0  0  0  0  0  0  0  0  0  0  0
    8.4143    6.6863   16.2273 C   0  0  0  0  0  0  0  0  0  0  0  0
   10.7581    6.5674   21.7636 C   0  0  0  0  0  0  0  0  0  0  0  0
    8.4452    8.7960   19.2958 O   0  0  0  0  0  0  0  0  0  0  0  0
    8.7122    6.7842   24.8569 C   0  0  0  0  0  0  0  0  0  0  0  0
   10.3400    6.1726   14.3081 C   0  0  0  0  0  0  0  0  0  0  0  0
    7.4297    7.5873   24.8962 C   0  0  0  0  0  0  0  0  0  0  0  0
    8.1566   10.0536   16.0516 O   0  0  0  0  0  0  0  0  0  0  0  0
   12.4989    6.2074   20.1776 C   0  0  0  0  0  0  0  0  0  0  0  0
    6.9192    9.1053   20.9073 O   0  0  0  0  0  0  0  0  0  0  0  0
   14.3979    6.0729   18.7784 C   0  0  0  0  0  0  0  0  0  0  0  0
    8.6811    9.5354   16.9998 C   0  0  0  0  0  0  0  0  0  0  0  0
    9.2512    4.2713   13.7653 O   0  0  0  0  0  0  0  0  0  0  0  0
    9.6495    8.6317   16.8332 N   0  0  0  0  0  0  0  0  0  0  0  0
    6.2934    8.6988   23.1988 O   0  0  0  0  0  0  0  0  0  0  0  0
    7.9806    8.6543   20.5437 C   0  0  0  0  0  0  0  0  0  0  0  0
   13.7270    5.7144   19.8610 O   0  0  0  0  0  0  0  0  0  0  0  0
    8.3351    5.5235   15.4478 C   0  0  0  0  0  0  0  0  0  0  0  0
    8.7700    7.8434   21.3915 C   0  0  0  0  0  0  0  0  0  0  0  0
   11.7856    6.8851   19.2401 C   0  0  0  0  0  0  0  0  0  0  0  0
   10.5281    7.4276   19.5649 C   0  0  0  0  0  0  0  0  0  0  0  0
   10.0256    7.2907   20.8484 C   0  0  0  0  0  0  0  0  0  0  0  0
    9.3113    5.3049   14.4911 C   0  0  0  0  0  0  0  0  0  0  0  0
    9.4607    7.5646   16.0139 C   0  0  0  0  0  0  0  0  0  0  0  0
   10.4192    7.3157   15.0955 C   0  0  0  0  0  0  0  0  0  0  0  0
   10.2489    6.4227   23.0218 N   0  0  0  0  0  0  0  0  0  0  0  0
    7.2472    8.0746   23.5050 C   0  0  0  0  0  0  0  0  0  0  0  0
    9.2051    6.9101   23.4604 C   0  0  0  0  0  0  0  0  0  0  0  0
   11.9646    6.0299   21.4251 C   0  0  0  0  0  0  0  0  0  0  0  0
  1  5  1  0
  1 13  1  0
  2 20  2  0
  2 28  1  0
  2 29  1  0
  3 19  4  0
  3 25  4  0
  4 23  4  0
  4 27  1  0
  4 30  4  0
  5 17  1  0
  6  8  1  0
  6 29  1  0
  7 24  4  0
  7 26  4  0
  8 28  1  0
  9 13  2  0
 10 18  1  0
 10 21  4  0
 10 30  4  0
 11 17  2  0
 12 18  1  0
 13 15  1  0
 14 24  1  0
 15 25  1  0
 16 28  2  0
 17 20  1  0
 19 24  4  0
 20 23  1  0
 21 22  4  0
 22 23  4  0
 25 26  4  0
 27 29  2  0
M  END
$$$$

 Created by Python create_sdf_string function

 30 33  0  0  0  0  0  0  0  0999 V2000
    8.3036    9.8571   18.4133 C   0  0  0  0  0  0  0  0  0  0  0  0
    8.3694    7.6612   22.6703 C   0  0  0  0  0  0  0  0  0  0  0  0
    8.4143    6.6863   16.2273 C   0  0  0  0  0  0  0  0  0  0  0  0
   10.7581    6.5674   21.7636 C   0  0  0  0  0  0  0  0  0  0  0  0
    8.4452    8.7960   19.2958 O   0  0  0  0  0  0  0  0  0  0  0  0
    8.7122    6.7842   24.8569 C   0  0  0  0  0  0  0  0  0  0  0  0
   10.3400    6.1726   14.3081 C   0  0  0  0  0  0  0  0  0  0  0  0
    7.4297    7.5873   24.8962 C   0  0  0  0  0  0  0  0  0  0  0  0
    8.1566   10.0536   16.0516 O   0  0  0  0  0  0  0  0  0  0  0  0
   12.4989    6.2074   20.1776 C   0  0  0  0  0  0  0  0  0  0  0  0
    6.9192    9.1053   20.9073 O   0  0  0  0  0  0  0  0  0  0  0  0
   14.3979    6.0729   18.7784 C   0  0  0  0  0  0  0  0  0  0  0  0
    8.6811    9.5354   16.9998 C   0  0  0  0  0  0  0  0  0  0  0  0
    9.2512    4.2713   13.7653 O   0  0  0  0  0  0  0  0  0  0  0  0
    9.6495    8.6317   16.8332 N   0  0  0  0  0  0  0  0  0  0  0  0
    6.2934    8.6988   23.1988 O   0  0  0  0  0  0  0  0  0  0  0  0
    7.9806    8.6543   20.5437 C   0  0  0  0  0  0  0  0  0  0  0  0
   13.7270    5.7144   19.8610 O   0  0  0  0  0  0  0  0  0  0  0  0
    8.3351    5.5235   15.4478 C   0  0  0  0  0  0  0  0  0  0  0  0
    8.7700    7.8434   21.3915 C   0  0  0  0  0  0  0  0  0  0  0  0
   11.7856    6.8851   19.2401 C   0  0  0  0  0  0  0  0  0  0  0  0
   10.5281    7.4276   19.5649 C   0  0  0  0  0  0  0  0  0  0  0  0
   10.0256    7.2907   20.8484 C   0  0  0  0  0  0  0  0  0  0  0  0
    9.3113    5.3049   14.4911 C   0  0  0  0  0  0  0  0  0  0  0  0
    9.4607    7.5646   16.0139 C   0  0  0  0  0  0  0  0  0  0  0  0
   10.4192    7.3157   15.0955 C   0  0  0  0  0  0  0  0  0  0  0  0
   10.2489    6.4227   23.0218 N   0  0  0  0  0  0  0  0  0  0  0  0
    7.2472    8.0746   23.5050 C   0  0  0  0  0  0  0  0  0  0  0  0
    9.2051    6.9101   23.4604 C   0  0  0  0  0  0  0  0  0  0  0  0
   11.9646    6.0299   21.4251 C   0  0  0  0  0  0  0  0  0  0  0  0
  1  5  1  0
  1 13  1  0
  2 20  2  0
  2 28  1  0
  2 29  1  0
  3 19  4  0
  3 25  4  0
  4 23  4  0
  4 27  1  0
  4 30  4  0
  5 17  1  0
  6  8  1  0
  6 29  1  0
  7 24  4  0
  7 26  4  0
  8 28  1  0
  9 13  2  0
 10 18  1  0
 10 21  4  0
 10 30  4  0
 11 17  2  0
 12 18  1  0
 13 15  1  0
 14 24  1  0
 15 25  1  0
 16 28  2  0
 17 20  1  0
 19 24  4  0
 20 23  1  0
 21 22  4  0
 22 23  4  0
 25 26  4  0
 27 29  2  0
M  END
$$$$

 Created by Python create_sdf_string function

 30 33  0  0  0  0  0  0  0  0999 V2000
    8.3036    9.8571   18.4133 C   0  0  0  0  0  0  0  0  0  0  0  0
    8.3694    7.6612   22.6703 C   0  0  0  0  0  0  0  0  0  0  0  0
    8.4143    6.6863   16.2273 C   0  0  0  0  0  0  0  0  0  0  0  0
   10.7581    6.5674   21.7636 C   0  0  0  0  0  0  0  0  0  0  0  0
    8.4452    8.7960   19.2958 O   0  0  0  0  0  0  0  0  0  0  0  0
    8.7122    6.7842   24.8569 C   0  0  0  0  0  0  0  0  0  0  0  0
   10.3400    6.1726   14.3081 C   0  0  0  0  0  0  0  0  0  0  0  0
    7.4297    7.5873   24.8962 C   0  0  0  0  0  0  0  0  0  0  0  0
    8.1566   10.0536   16.0516 O   0  0  0  0  0  0  0  0  0  0  0  0
   12.4989    6.2074   20.1776 C   0  0  0  0  0  0  0  0  0  0  0  0
    6.9192    9.1053   20.9073 O   0  0  0  0  0  0  0  0  0  0  0  0
   14.3979    6.0729   18.7784 C   0  0  0  0  0  0  0  0  0  0  0  0
    8.6811    9.5354   16.9998 C   0  0  0  0  0  0  0  0  0  0  0  0
    9.2512    4.2713   13.7653 O   0  0  0  0  0  0  0  0  0  0  0  0
    9.6495    8.6317   16.8332 N   0  0  0  0  0  0  0  0  0  0  0  0
    6.2934    8.6988   23.1988 O   0  0  0  0  0  0  0  0  0  0  0  0
    7.9806    8.6543   20.5437 C   0  0  0  0  0  0  0  0  0  0  0  0
   13.7270    5.7144   19.8610 O   0  0  0  0  0  0  0  0  0  0  0  0
    8.3351    5.5235   15.4478 C   0  0  0  0  0  0  0  0  0  0  0  0
    8.7700    7.8434   21.3915 C   0  0  0  0  0  0  0  0  0  0  0  0
   11.7856    6.8851   19.2401 C   0  0  0  0  0  0  0  0  0  0  0  0
   10.5281    7.4276   19.5649 C   0  0  0  0  0  0  0  0  0  0  0  0
   10.0256    7.2907   20.8484 C   0  0  0  0  0  0  0  0  0  0  0  0
    9.3113    5.3049   14.4911 C   0  0  0  0  0  0  0  0  0  0  0  0
    9.4607    7.5646   16.0139 C   0  0  0  0  0  0  0  0  0  0  0  0
   10.4192    7.3157   15.0955 C   0  0  0  0  0  0  0  0  0  0  0  0
   10.2489    6.4227   23.0218 N   0  0  0  0  0  0  0  0  0  0  0  0
    7.2472    8.0746   23.5050 C   0  0  0  0  0  0  0  0  0  0  0  0
    9.2051    6.9101   23.4604 C   0  0  0  0  0  0  0  0  0  0  0  0
   11.9646    6.0299   21.4251 C   0  0  0  0  0  0  0  0  0  0  0  0
  1  5  1  0
  1 13  1  0
  2 20  2  0
  2 28  1  0
  2 29  1  0
  3 19  4  0
  3 25  4  0
  4 23  4  0
  4 27  1  0
  4 30  4  0
  5 17  1  0
  6  8  1  0
  6 29  1  0
  7 24  4  0
  7 26  4  0
  8 28  1  0
  9 13  2  0
 10 18  1  0
 10 21  4  0
 10 30  4  0
 11 17  2  0
 12 18  1  0
 13 15  1  0
 14 24  1  0
 15 25  1  0
 16 28  2  0
 17 20  1  0
 19 24  4  0
 20 23  1  0
 21 22  4  0
 22 23  4  0
 25 26  4  0
 27 29  2  0
M  END
$$$$

 Created by Python create_sdf_string function

 30 33  0  0  0  0  0  0  0  0999 V2000
    8.3036    9.8571   18.4133 C   0  0  0  0  0  0  0  0  0  0  0  0
    8.3694    7.6612   22.6703 C   0  0  0  0  0  0  0  0  0  0  0  0
    8.4143    6.6863   16.2273 C   0  0  0  0  0  0  0  0  0  0  0  0
   10.7581    6.5674   21.7636 C   0  0  0  0  0  0  0  0  0  0  0  0
    8.4452    8.7960   19.2958 O   0  0  0  0  0  0  0  0  0  0  0  0
    8.7122    6.7842   24.8569 C   0  0  0  0  0  0  0  0  0  0  0  0
   10.3400    6.1726   14.3081 C   0  0  0  0  0  0  0  0  0  0  0  0
    7.4297    7.5873   24.8962 C   0  0  0  0  0  0  0  0  0  0  0  0
    8.1566   10.0536   16.0516 O   0  0  0  0  0  0  0  0  0  0  0  0
   12.4989    6.2074   20.1776 C   0  0  0  0  0  0  0  0  0  0  0  0
    6.9192    9.1053   20.9073 O   0  0  0  0  0  0  0  0  0  0  0  0
   14.3979    6.0729   18.7784 C   0  0  0  0  0  0  0  0  0  0  0  0
    8.6811    9.5354   16.9998 C   0  0  0  0  0  0  0  0  0  0  0  0
    9.2512    4.2713   13.7653 O   0  0  0  0  0  0  0  0  0  0  0  0
    9.6495    8.6317   16.8332 N   0  0  0  0  0  0  0  0  0  0  0  0
    6.2934    8.6988   23.1988 O   0  0  0  0  0  0  0  0  0  0  0  0
    7.9806    8.6543   20.5437 C   0  0  0  0  0  0  0  0  0  0  0  0
   13.7270    5.7144   19.8610 O   0  0  0  0  0  0  0  0  0  0  0  0
    8.3351    5.5235   15.4478 C   0  0  0  0  0  0  0  0  0  0  0  0
    8.7700    7.8434   21.3915 C   0  0  0  0  0  0  0  0  0  0  0  0
   11.7856    6.8851   19.2401 C   0  0  0  0  0  0  0  0  0  0  0  0
   10.5281    7.4276   19.5649 C   0  0  0  0  0  0  0  0  0  0  0  0
   10.0256    7.2907   20.8484 C   0  0  0  0  0  0  0  0  0  0  0  0
    9.3113    5.3049   14.4911 C   0  0  0  0  0  0  0  0  0  0  0  0
    9.4607    7.5646   16.0139 C   0  0  0  0  0  0  0  0  0  0  0  0
   10.4192    7.3157   15.0955 C   0  0  0  0  0  0  0  0  0  0  0  0
   10.2489    6.4227   23.0218 N   0  0  0  0  0  0  0  0  0  0  0  0
    7.2472    8.0746   23.5050 C   0  0  0  0  0  0  0  0  0  0  0  0
    9.2051    6.9101   23.4604 C   0  0  0  0  0  0  0  0  0  0  0  0
   11.9646    6.0299   21.4251 C   0  0  0  0  0  0  0  0  0  0  0  0
  1  5  1  0
  1 13  1  0
  2 20  2  0
  2 28  1  0
  2 29  1  0
  3 19  4  0
  3 25  4  0
  4 23  4  0
  4 27  1  0
  4 30  4  0
  5 17  1  0
  6  8  1  0
  6 29  1  0
  7 24  4  0
  7 26  4  0
  8 28  1  0
  9 13  2  0
 10 18  1  0
 10 21  4  0
 10 30  4  0
 11 17  2  0
 12 18  1  0
 13 15  1  0
 14 24  1  0
 15 25  1  0
 16 28  2  0
 17 20  1  0
 19 24  4  0
 20 23  1  0
 21 22  4  0
 22 23  4  0
 25 26  4  0
 27 29  2  0
M  END
$$$$

 Created by Python create_sdf_string function

 30 33  0  0  0  0  0  0  0  0999 V2000
    8.3036    9.8571   18.4133 C   0  0  0  0  0  0  0  0  0  0  0  0
    8.3694    7.6612   22.6703 C   0  0  0  0  0  0  0  0  0  0  0  0
    8.4143    6.6863   16.2273 C   0  0  0  0  0  0  0  0  0  0  0  0
   10.7581    6.5674   21.7636 C   0  0  0  0  0  0  0  0  0  0  0  0
    8.4452    8.7960   19.2958 O   0  0  0  0  0  0  0  0  0  0  0  0
    8.7122    6.7842   24.8569 C   0  0  0  0  0  0  0  0  0  0  0  0
   10.3400    6.1726   14.3081 C   0  0  0  0  0  0  0  0  0  0  0  0
    7.4297    7.5873   24.8962 C   0  0  0  0  0  0  0  0  0  0  0  0
    8.1566   10.0536   16.0516 O   0  0  0  0  0  0  0  0  0  0  0  0
   12.4989    6.2074   20.1776 C   0  0  0  0  0  0  0  0  0  0  0  0
    6.9192    9.1053   20.9073 O   0  0  0  0  0  0  0  0  0  0  0  0
   14.3979    6.0729   18.7784 C   0  0  0  0  0  0  0  0  0  0  0  0
    8.6811    9.5354   16.9998 C   0  0  0  0  0  0  0  0  0  0  0  0
    9.2512    4.2713   13.7653 O   0  0  0  0  0  0  0  0  0  0  0  0
    9.6495    8.6317   16.8332 N   0  0  0  0  0  0  0  0  0  0  0  0
    6.2934    8.6988   23.1988 O   0  0  0  0  0  0  0  0  0  0  0  0
    7.9806    8.6543   20.5437 C   0  0  0  0  0  0  0  0  0  0  0  0
   13.7270    5.7144   19.8610 O   0  0  0  0  0  0  0  0  0  0  0  0
    8.3351    5.5235   15.4478 C   0  0  0  0  0  0  0  0  0  0  0  0
    8.7700    7.8434   21.3915 C   0  0  0  0  0  0  0  0  0  0  0  0
   11.7856    6.8851   19.2401 C   0  0  0  0  0  0  0  0  0  0  0  0
   10.5281    7.4276   19.5649 C   0  0  0  0  0  0  0  0  0  0  0  0
   10.0256    7.2907   20.8484 C   0  0  0  0  0  0  0  0  0  0  0  0
    9.3113    5.3049   14.4911 C   0  0  0  0  0  0  0  0  0  0  0  0
    9.4607    7.5646   16.0139 C   0  0  0  0  0  0  0  0  0  0  0  0
   10.4192    7.3157   15.0955 C   0  0  0  0  0  0  0  0  0  0  0  0
   10.2489    6.4227   23.0218 N   0  0  0  0  0  0  0  0  0  0  0  0
    7.2472    8.0746   23.5050 C   0  0  0  0  0  0  0  0  0  0  0  0
    9.2051    6.9101   23.4604 C   0  0  0  0  0  0  0  0  0  0  0  0
   11.9646    6.0299   21.4251 C   0  0  0  0  0  0  0  0  0  0  0  0
  1  5  1  0
  1 13  1  0
  2 20  2  0
  2 28  1  0
  2 29  1  0
  3 19  4  0
  3 25  4  0
  4 23  4  0
  4 27  1  0
  4 30  4  0
  5 17  1  0
  6  8  1  0
  6 29  1  0
  7 24  4  0
  7 26  4  0
  8 28  1  0
  9 13  2  0
 10 18  1  0
 10 21  4  0
 10 30  4  0
 11 17  2  0
 12 18  1  0
 13 15  1  0
 14 24  1  0
 15 25  1  0
 16 28  2  0
 17 20  1  0
 19 24  4  0
 20 23  1  0
 21 22  4  0
 22 23  4  0
 25 26  4  0
 27 29  2  0
M  END
$$$$

 Created by Python create_sdf_string function

 30 33  0  0  0  0  0  0  0  0999 V2000
    8.3036    9.8571   18.4133 C   0  0  0  0  0  0  0  0  0  0  0  0
    8.3694    7.6612   22.6703 C   0  0  0  0  0  0  0  0  0  0  0  0
    8.4143    6.6863   16.2273 C   0  0  0  0  0  0  0  0  0  0  0  0
   10.7581    6.5674   21.7636 C   0  0  0  0  0  0  0  0  0  0  0  0
    8.4452    8.7960   19.2958 O   0  0  0  0  0  0  0  0  0  0  0  0
    8.7122    6.7842   24.8569 C   0  0  0  0  0  0  0  0  0  0  0  0
   10.3400    6.1726   14.3081 C   0  0  0  0  0  0  0  0  0  0  0  0
    7.4297    7.5873   24.8962 C   0  0  0  0  0  0  0  0  0  0  0  0
    8.1566   10.0536   16.0516 O   0  0  0  0  0  0  0  0  0  0  0  0
   12.4989    6.2074   20.1776 C   0  0  0  0  0  0  0  0  0  0  0  0
    6.9192    9.1053   20.9073 O   0  0  0  0  0  0  0  0  0  0  0  0
   14.3979    6.0729   18.7784 C   0  0  0  0  0  0  0  0  0  0  0  0
    8.6811    9.5354   16.9998 C   0  0  0  0  0  0  0  0  0  0  0  0
    9.2512    4.2713   13.7653 O   0  0  0  0  0  0  0  0  0  0  0  0
    9.6495    8.6317   16.8332 N   0  0  0  0  0  0  0  0  0  0  0  0
    6.2934    8.6988   23.1988 O   0  0  0  0  0  0  0  0  0  0  0  0
    7.9806    8.6543   20.5437 C   0  0  0  0  0  0  0  0  0  0  0  0
   13.7270    5.7144   19.8610 O   0  0  0  0  0  0  0  0  0  0  0  0
    8.3351    5.5235   15.4478 C   0  0  0  0  0  0  0  0  0  0  0  0
    8.7700    7.8434   21.3915 C   0  0  0  0  0  0  0  0  0  0  0  0
   11.7856    6.8851   19.2401 C   0  0  0  0  0  0  0  0  0  0  0  0
   10.5281    7.4276   19.5649 C   0  0  0  0  0  0  0  0  0  0  0  0
   10.0256    7.2907   20.8484 C   0  0  0  0  0  0  0  0  0  0  0  0
    9.3113    5.3049   14.4911 C   0  0  0  0  0  0  0  0  0  0  0  0
    9.4607    7.5646   16.0139 C   0  0  0  0  0  0  0  0  0  0  0  0
   10.4192    7.3157   15.0955 C   0  0  0  0  0  0  0  0  0  0  0  0
   10.2489    6.4227   23.0218 N   0  0  0  0  0  0  0  0  0  0  0  0
    7.2472    8.0746   23.5050 C   0  0  0  0  0  0  0  0  0  0  0  0
    9.2051    6.9101   23.4604 C   0  0  0  0  0  0  0  0  0  0  0  0
   11.9646    6.0299   21.4251 C   0  0  0  0  0  0  0  0  0  0  0  0
  1  5  1  0
  1 13  1  0
  2 20  2  0
  2 28  1  0
  2 29  1  0
  3 19  4  0
  3 25  4  0
  4 23  4  0
  4 27  1  0
  4 30  4  0
  5 17  1  0
  6  8  1  0
  6 29  1  0
  7 24  4  0
  7 26  4  0
  8 28  1  0
  9 13  2  0
 10 18  1  0
 10 21  4  0
 10 30  4  0
 11 17  2  0
 12 18  1  0
 13 15  1  0
 14 24  1  0
 15 25  1  0
 16 28  2  0
 17 20  1  0
 19 24  4  0
 20 23  1  0
 21 22  4  0
 22 23  4  0
 25 26  4  0
 27 29  2  0
M  END
$$$$

 Created by Python create_sdf_string function

 30 33  0  0  0  0  0  0  0  0999 V2000
    8.3036    9.8571   18.4133 C   0  0  0  0  0  0  0  0  0  0  0  0
    8.3694    7.6612   22.6703 C   0  0  0  0  0  0  0  0  0  0  0  0
    8.4143    6.6863   16.2273 C   0  0  0  0  0  0  0  0  0  0  0  0
   10.7581    6.5674   21.7636 C   0  0  0  0  0  0  0  0  0  0  0  0
    8.4452    8.7960   19.2958 O   0  0  0  0  0  0  0  0  0  0  0  0
    8.7122    6.7842   24.8569 C   0  0  0  0  0  0  0  0  0  0  0  0
   10.3400    6.1726   14.3081 C   0  0  0  0  0  0  0  0  0  0  0  0
    7.4297    7.5873   24.8962 C   0  0  0  0  0  0  0  0  0  0  0  0
    8.1566   10.0536   16.0516 O   0  0  0  0  0  0  0  0  0  0  0  0
   12.4989    6.2074   20.1776 C   0  0  0  0  0  0  0  0  0  0  0  0
    6.9192    9.1053   20.9073 O   0  0  0  0  0  0  0  0  0  0  0  0
   14.3979    6.0729   18.7784 C   0  0  0  0  0  0  0  0  0  0  0  0
    8.6811    9.5354   16.9998 C   0  0  0  0  0  0  0  0  0  0  0  0
    9.2512    4.2713   13.7653 O   0  0  0  0  0  0  0  0  0  0  0  0
    9.6495    8.6317   16.8332 N   0  0  0  0  0  0  0  0  0  0  0  0
    6.2934    8.6988   23.1988 O   0  0  0  0  0  0  0  0  0  0  0  0
    7.9806    8.6543   20.5437 C   0  0  0  0  0  0  0  0  0  0  0  0
   13.7270    5.7144   19.8610 O   0  0  0  0  0  0  0  0  0  0  0  0
    8.3351    5.5235   15.4478 C   0  0  0  0  0  0  0  0  0  0  0  0
    8.7700    7.8434   21.3915 C   0  0  0  0  0  0  0  0  0  0  0  0
   11.7856    6.8851   19.2401 C   0  0  0  0  0  0  0  0  0  0  0  0
   10.5281    7.4276   19.5649 C   0  0  0  0  0  0  0  0  0  0  0  0
   10.0256    7.2907   20.8484 C   0  0  0  0  0  0  0  0  0  0  0  0
    9.3113    5.3049   14.4911 C   0  0  0  0  0  0  0  0  0  0  0  0
    9.4607    7.5646   16.0139 C   0  0  0  0  0  0  0  0  0  0  0  0
   10.4192    7.3157   15.0955 C   0  0  0  0  0  0  0  0  0  0  0  0
   10.2489    6.4227   23.0218 N   0  0  0  0  0  0  0  0  0  0  0  0
    7.2472    8.0746   23.5050 C   0  0  0  0  0  0  0  0  0  0  0  0
    9.2051    6.9101   23.4604 C   0  0  0  0  0  0  0  0  0  0  0  0
   11.9646    6.0299   21.4251 C   0  0  0  0  0  0  0  0  0  0  0  0
  1  5  1  0
  1 13  1  0
  2 20  2  0
  2 28  1  0
  2 29  1  0
  3 19  4  0
  3 25  4  0
  4 23  4  0
  4 27  1  0
  4 30  4  0
  5 17  1  0
  6  8  1  0
  6 29  1  0
  7 24  4  0
  7 26  4  0
  8 28  1  0
  9 13  2  0
 10 18  1  0
 10 21  4  0
 10 30  4  0
 11 17  2  0
 12 18  1  0
 13 15  1  0
 14 24  1  0
 15 25  1  0
 16 28  2  0
 17 20  1  0
 19 24  4  0
 20 23  1  0
 21 22  4  0
 22 23  4  0
 25 26  4  0
 27 29  2  0
M  END
$$$$

 Created by Python create_sdf_string function

 30 33  0  0  0  0  0  0  0  0999 V2000
    8.3036    9.8571   18.4133 C   0  0  0  0  0  0  0  0  0  0  0  0
    8.3694    7.6612   22.6703 C   0  0  0  0  0  0  0  0  0  0  0  0
    8.4143    6.6863   16.2273 C   0  0  0  0  0  0  0  0  0  0  0  0
   10.7581    6.5674   21.7636 C   0  0  0  0  0  0  0  0  0  0  0  0
    8.4452    8.7960   19.2958 O   0  0  0  0  0  0  0  0  0  0  0  0
    8.7122    6.7842   24.8569 C   0  0  0  0  0  0  0  0  0  0  0  0
   10.3400    6.1726   14.3081 C   0  0  0  0  0  0  0  0  0  0  0  0
    7.4297    7.5873   24.8962 C   0  0  0  0  0  0  0  0  0  0  0  0
    8.1566   10.0536   16.0516 O   0  0  0  0  0  0  0  0  0  0  0  0
   12.4989    6.2074   20.1776 C   0  0  0  0  0  0  0  0  0  0  0  0
    6.9192    9.1053   20.9073 O   0  0  0  0  0  0  0  0  0  0  0  0
   14.3979    6.0729   18.7784 C   0  0  0  0  0  0  0  0  0  0  0  0
    8.6811    9.5354   16.9998 C   0  0  0  0  0  0  0  0  0  0  0  0
    9.2512    4.2713   13.7653 O   0  0  0  0  0  0  0  0  0  0  0  0
    9.6495    8.6317   16.8332 N   0  0  0  0  0  0  0  0  0  0  0  0
    6.2934    8.6988   23.1988 O   0  0  0  0  0  0  0  0  0  0  0  0
    7.9806    8.6543   20.5437 C   0  0  0  0  0  0  0  0  0  0  0  0
   13.7270    5.7144   19.8610 O   0  0  0  0  0  0  0  0  0  0  0  0
    8.3351    5.5235   15.4478 C   0  0  0  0  0  0  0  0  0  0  0  0
    8.7700    7.8434   21.3915 C   0  0  0  0  0  0  0  0  0  0  0  0
   11.7856    6.8851   19.2401 C   0  0  0  0  0  0  0  0  0  0  0  0
   10.5281    7.4276   19.5649 C   0  0  0  0  0  0  0  0  0  0  0  0
   10.0256    7.2907   20.8484 C   0  0  0  0  0  0  0  0  0  0  0  0
    9.3113    5.3049   14.4911 C   0  0  0  0  0  0  0  0  0  0  0  0
    9.4607    7.5646   16.0139 C   0  0  0  0  0  0  0  0  0  0  0  0
   10.4192    7.3157   15.0955 C   0  0  0  0  0  0  0  0  0  0  0  0
   10.2489    6.4227   23.0218 N   0  0  0  0  0  0  0  0  0  0  0  0
    7.2472    8.0746   23.5050 C   0  0  0  0  0  0  0  0  0  0  0  0
    9.2051    6.9101   23.4604 C   0  0  0  0  0  0  0  0  0  0  0  0
   11.9646    6.0299   21.4251 C   0  0  0  0  0  0  0  0  0  0  0  0
  1  5  1  0
  1 13  1  0
  2 20  2  0
  2 28  1  0
  2 29  1  0
  3 19  4  0
  3 25  4  0
  4 23  4  0
  4 27  1  0
  4 30  4  0
  5 17  1  0
  6  8  1  0
  6 29  1  0
  7 24  4  0
  7 26  4  0
  8 28  1  0
  9 13  2  0
 10 18  1  0
 10 21  4  0
 10 30  4  0
 11 17  2  0
 12 18  1  0
 13 15  1  0
 14 24  1  0
 15 25  1  0
 16 28  2  0
 17 20  1  0
 19 24  4  0
 20 23  1  0
 21 22  4  0
 22 23  4  0
 25 26  4  0
 27 29  2  0
M  END
$$$$

 Created by Python create_sdf_string function

 30 33  0  0  0  0  0  0  0  0999 V2000
    8.3036    9.8571   18.4133 C   0  0  0  0  0  0  0  0  0  0  0  0
    8.3694    7.6612   22.6703 C   0  0  0  0  0  0  0  0  0  0  0  0
    8.4143    6.6863   16.2273 C   0  0  0  0  0  0  0  0  0  0  0  0
   10.7581    6.5674   21.7636 C   0  0  0  0  0  0  0  0  0  0  0  0
    8.4452    8.7960   19.2958 O   0  0  0  0  0  0  0  0  0  0  0  0
    8.7122    6.7842   24.8569 C   0  0  0  0  0  0  0  0  0  0  0  0
   10.3400    6.1726   14.3081 C   0  0  0  0  0  0  0  0  0  0  0  0
    7.4297    7.5873   24.8962 C   0  0  0  0  0  0  0  0  0  0  0  0
    8.1566   10.0536   16.0516 O   0  0  0  0  0  0  0  0  0  0  0  0
   12.4989    6.2074   20.1776 C   0  0  0  0  0  0  0  0  0  0  0  0
    6.9192    9.1053   20.9073 O   0  0  0  0  0  0  0  0  0  0  0  0
   14.3979    6.0729   18.7784 C   0  0  0  0  0  0  0  0  0  0  0  0
    8.6811    9.5354   16.9998 C   0  0  0  0  0  0  0  0  0  0  0  0
    9.2512    4.2713   13.7653 O   0  0  0  0  0  0  0  0  0  0  0  0
    9.6495    8.6317   16.8332 N   0  0  0  0  0  0  0  0  0  0  0  0
    6.2934    8.6988   23.1988 O   0  0  0  0  0  0  0  0  0  0  0  0
    7.9806    8.6543   20.5437 C   0  0  0  0  0  0  0  0  0  0  0  0
   13.7270    5.7144   19.8610 O   0  0  0  0  0  0  0  0  0  0  0  0
    8.3351    5.5235   15.4478 C   0  0  0  0  0  0  0  0  0  0  0  0
    8.7700    7.8434   21.3915 C   0  0  0  0  0  0  0  0  0  0  0  0
   11.7856    6.8851   19.2401 C   0  0  0  0  0  0  0  0  0  0  0  0
   10.5281    7.4276   19.5649 C   0  0  0  0  0  0  0  0  0  0  0  0
   10.0256    7.2907   20.8484 C   0  0  0  0  0  0  0  0  0  0  0  0
    9.3113    5.3049   14.4911 C   0  0  0  0  0  0  0  0  0  0  0  0
    9.4607    7.5646   16.0139 C   0  0  0  0  0  0  0  0  0  0  0  0
   10.4192    7.3157   15.0955 C   0  0  0  0  0  0  0  0  0  0  0  0
   10.2489    6.4227   23.0218 N   0  0  0  0  0  0  0  0  0  0  0  0
    7.2472    8.0746   23.5050 C   0  0  0  0  0  0  0  0  0  0  0  0
    9.2051    6.9101   23.4604 C   0  0  0  0  0  0  0  0  0  0  0  0
   11.9646    6.0299   21.4251 C   0  0  0  0  0  0  0  0  0  0  0  0
  1  5  1  0
  1 13  1  0
  2 20  2  0
  2 28  1  0
  2 29  1  0
  3 19  4  0
  3 25  4  0
  4 23  4  0
  4 27  1  0
  4 30  4  0
  5 17  1  0
  6  8  1  0
  6 29  1  0
  7 24  4  0
  7 26  4  0
  8 28  1  0
  9 13  2  0
 10 18  1  0
 10 21  4  0
 10 30  4  0
 11 17  2  0
 12 18  1  0
 13 15  1  0
 14 24  1  0
 15 25  1  0
 16 28  2  0
 17 20  1  0
 19 24  4  0
 20 23  1  0
 21 22  4  0
 22 23  4  0
 25 26  4  0
 27 29  2  0
M  END
$$$$

 Created by Python create_sdf_string function

 30 33  0  0  0  0  0  0  0  0999 V2000
    8.3036    9.8571   18.4133 C   0  0  0  0  0  0  0  0  0  0  0  0
    8.3694    7.6612   22.6703 C   0  0  0  0  0  0  0  0  0  0  0  0
    8.4143    6.6863   16.2273 C   0  0  0  0  0  0  0  0  0  0  0  0
   10.7581    6.5674   21.7636 C   0  0  0  0  0  0  0  0  0  0  0  0
    8.4452    8.7960   19.2958 O   0  0  0  0  0  0  0  0  0  0  0  0
    8.7122    6.7842   24.8569 C   0  0  0  0  0  0  0  0  0  0  0  0
   10.3400    6.1726   14.3081 C   0  0  0  0  0  0  0  0  0  0  0  0
    7.4297    7.5873   24.8962 C   0  0  0  0  0  0  0  0  0  0  0  0
    8.1566   10.0536   16.0516 O   0  0  0  0  0  0  0  0  0  0  0  0
   12.4989    6.2074   20.1776 C   0  0  0  0  0  0  0  0  0  0  0  0
    6.9192    9.1053   20.9073 O   0  0  0  0  0  0  0  0  0  0  0  0
   14.3979    6.0729   18.7784 C   0  0  0  0  0  0  0  0  0  0  0  0
    8.6811    9.5354   16.9998 C   0  0  0  0  0  0  0  0  0  0  0  0
    9.2512    4.2713   13.7653 O   0  0  0  0  0  0  0  0  0  0  0  0
    9.6495    8.6317   16.8332 N   0  0  0  0  0  0  0  0  0  0  0  0
    6.2934    8.6988   23.1988 O   0  0  0  0  0  0  0  0  0  0  0  0
    7.9806    8.6543   20.5437 C   0  0  0  0  0  0  0  0  0  0  0  0
   13.7270    5.7144   19.8610 O   0  0  0  0  0  0  0  0  0  0  0  0
    8.3351    5.5235   15.4478 C   0  0  0  0  0  0  0  0  0  0  0  0
    8.7700    7.8434   21.3915 C   0  0  0  0  0  0  0  0  0  0  0  0
   11.7856    6.8851   19.2401 C   0  0  0  0  0  0  0  0  0  0  0  0
   10.5281    7.4276   19.5649 C   0  0  0  0  0  0  0  0  0  0  0  0
   10.0256    7.2907   20.8484 C   0  0  0  0  0  0  0  0  0  0  0  0
    9.3113    5.3049   14.4911 C   0  0  0  0  0  0  0  0  0  0  0  0
    9.4607    7.5646   16.0139 C   0  0  0  0  0  0  0  0  0  0  0  0
   10.4192    7.3157   15.0955 C   0  0  0  0  0  0  0  0  0  0  0  0
   10.2489    6.4227   23.0218 N   0  0  0  0  0  0  0  0  0  0  0  0
    7.2472    8.0746   23.5050 C   0  0  0  0  0  0  0  0  0  0  0  0
    9.2051    6.9101   23.4604 C   0  0  0  0  0  0  0  0  0  0  0  0
   11.9646    6.0299   21.4251 C   0  0  0  0  0  0  0  0  0  0  0  0
  1  5  1  0
  1 13  1  0
  2 20  2  0
  2 28  1  0
  2 29  1  0
  3 19  4  0
  3 25  4  0
  4 23  4  0
  4 27  1  0
  4 30  4  0
  5 17  1  0
  6  8  1  0
  6 29  1  0
  7 24  4  0
  7 26  4  0
  8 28  1  0
  9 13  2  0
 10 18  1  0
 10 21  4  0
 10 30  4  0
 11 17  2  0
 12 18  1  0
 13 15  1  0
 14 24  1  0
 15 25  1  0
 16 28  2  0
 17 20  1  0
 19 24  4  0
 20 23  1  0
 21 22  4  0
 22 23  4  0
 25 26  4  0
 27 29  2  0
M  END
$$$$

 Created by Python create_sdf_string function

 30 33  0  0  0  0  0  0  0  0999 V2000
    8.3036    9.8571   18.4133 C   0  0  0  0  0  0  0  0  0  0  0  0
    8.3694    7.6612   22.6703 C   0  0  0  0  0  0  0  0  0  0  0  0
    8.4143    6.6863   16.2273 C   0  0  0  0  0  0  0  0  0  0  0  0
   10.7581    6.5674   21.7636 C   0  0  0  0  0  0  0  0  0  0  0  0
    8.4452    8.7960   19.2958 O   0  0  0  0  0  0  0  0  0  0  0  0
    8.7122    6.7842   24.8569 C   0  0  0  0  0  0  0  0  0  0  0  0
   10.3400    6.1726   14.3081 C   0  0  0  0  0  0  0  0  0  0  0  0
    7.4297    7.5873   24.8962 C   0  0  0  0  0  0  0  0  0  0  0  0
    8.1566   10.0536   16.0516 O   0  0  0  0  0  0  0  0  0  0  0  0
   12.4989    6.2074   20.1776 C   0  0  0  0  0  0  0  0  0  0  0  0
    6.9192    9.1053   20.9073 O   0  0  0  0  0  0  0  0  0  0  0  0
   14.3979    6.0729   18.7784 C   0  0  0  0  0  0  0  0  0  0  0  0
    8.6811    9.5354   16.9998 C   0  0  0  0  0  0  0  0  0  0  0  0
    9.2512    4.2713   13.7653 O   0  0  0  0  0  0  0  0  0  0  0  0
    9.6495    8.6317   16.8332 N   0  0  0  0  0  0  0  0  0  0  0  0
    6.2934    8.6988   23.1988 O   0  0  0  0  0  0  0  0  0  0  0  0
    7.9806    8.6543   20.5437 C   0  0  0  0  0  0  0  0  0  0  0  0
   13.7270    5.7144   19.8610 O   0  0  0  0  0  0  0  0  0  0  0  0
    8.3351    5.5235   15.4478 C   0  0  0  0  0  0  0  0  0  0  0  0
    8.7700    7.8434   21.3915 C   0  0  0  0  0  0  0  0  0  0  0  0
   11.7856    6.8851   19.2401 C   0  0  0  0  0  0  0  0  0  0  0  0
   10.5281    7.4276   19.5649 C   0  0  0  0  0  0  0  0  0  0  0  0
   10.0256    7.2907   20.8484 C   0  0  0  0  0  0  0  0  0  0  0  0
    9.3113    5.3049   14.4911 C   0  0  0  0  0  0  0  0  0  0  0  0
    9.4607    7.5646   16.0139 C   0  0  0  0  0  0  0  0  0  0  0  0
   10.4192    7.3157   15.0955 C   0  0  0  0  0  0  0  0  0  0  0  0
   10.2489    6.4227   23.0218 N   0  0  0  0  0  0  0  0  0  0  0  0
    7.2472    8.0746   23.5050 C   0  0  0  0  0  0  0  0  0  0  0  0
    9.2051    6.9101   23.4604 C   0  0  0  0  0  0  0  0  0  0  0  0
   11.9646    6.0299   21.4251 C   0  0  0  0  0  0  0  0  0  0  0  0
  1  5  1  0
  1 13  1  0
  2 20  2  0
  2 28  1  0
  2 29  1  0
  3 19  4  0
  3 25  4  0
  4 23  4  0
  4 27  1  0
  4 30  4  0
  5 17  1  0
  6  8  1  0
  6 29  1  0
  7 24  4  0
  7 26  4  0
  8 28  1  0
  9 13  2  0
 10 18  1  0
 10 21  4  0
 10 30  4  0
 11 17  2  0
 12 18  1  0
 13 15  1  0
 14 24  1  0
 15 25  1  0
 16 28  2  0
 17 20  1  0
 19 24  4  0
 20 23  1  0
 21 22  4  0
 22 23  4  0
 25 26  4  0
 27 29  2  0
M  END
$$$$

 Created by Python create_sdf_string function

 30 33  0  0  0  0  0  0  0  0999 V2000
    8.3036    9.8571   18.4133 C   0  0  0  0  0  0  0  0  0  0  0  0
    8.3694    7.6612   22.6703 C   0  0  0  0  0  0  0  0  0  0  0  0
    8.4143    6.6863   16.2273 C   0  0  0  0  0  0  0  0  0  0  0  0
   10.7581    6.5674   21.7636 C   0  0  0  0  0  0  0  0  0  0  0  0
    8.4452    8.7960   19.2958 O   0  0  0  0  0  0  0  0  0  0  0  0
    8.7122    6.7842   24.8569 C   0  0  0  0  0  0  0  0  0  0  0  0
   10.3400    6.1726   14.3081 C   0  0  0  0  0  0  0  0  0  0  0  0
    7.4297    7.5873   24.8962 C   0  0  0  0  0  0  0  0  0  0  0  0
    8.1566   10.0536   16.0516 O   0  0  0  0  0  0  0  0  0  0  0  0
   12.4989    6.2074   20.1776 C   0  0  0  0  0  0  0  0  0  0  0  0
    6.9192    9.1053   20.9073 O   0  0  0  0  0  0  0  0  0  0  0  0
   14.3979    6.0729   18.7784 C   0  0  0  0  0  0  0  0  0  0  0  0
    8.6811    9.5354   16.9998 C   0  0  0  0  0  0  0  0  0  0  0  0
    9.2512    4.2713   13.7653 O   0  0  0  0  0  0  0  0  0  0  0  0
    9.6495    8.6317   16.8332 N   0  0  0  0  0  0  0  0  0  0  0  0
    6.2934    8.6988   23.1988 O   0  0  0  0  0  0  0  0  0  0  0  0
    7.9806    8.6543   20.5437 C   0  0  0  0  0  0  0  0  0  0  0  0
   13.7270    5.7144   19.8610 O   0  0  0  0  0  0  0  0  0  0  0  0
    8.3351    5.5235   15.4478 C   0  0  0  0  0  0  0  0  0  0  0  0
    8.7700    7.8434   21.3915 C   0  0  0  0  0  0  0  0  0  0  0  0
   11.7856    6.8851   19.2401 C   0  0  0  0  0  0  0  0  0  0  0  0
   10.5281    7.4276   19.5649 C   0  0  0  0  0  0  0  0  0  0  0  0
   10.0256    7.2907   20.8484 C   0  0  0  0  0  0  0  0  0  0  0  0
    9.3113    5.3049   14.4911 C   0  0  0  0  0  0  0  0  0  0  0  0
    9.4607    7.5646   16.0139 C   0  0  0  0  0  0  0  0  0  0  0  0
   10.4192    7.3157   15.0955 C   0  0  0  0  0  0  0  0  0  0  0  0
   10.2489    6.4227   23.0218 N   0  0  0  0  0  0  0  0  0  0  0  0
    7.2472    8.0746   23.5050 C   0  0  0  0  0  0  0  0  0  0  0  0
    9.2051    6.9101   23.4604 C   0  0  0  0  0  0  0  0  0  0  0  0
   11.9646    6.0299   21.4251 C   0  0  0  0  0  0  0  0  0  0  0  0
  1  5  1  0
  1 13  1  0
  2 20  2  0
  2 28  1  0
  2 29  1  0
  3 19  4  0
  3 25  4  0
  4 23  4  0
  4 27  1  0
  4 30  4  0
  5 17  1  0
  6  8  1  0
  6 29  1  0
  7 24  4  0
  7 26  4  0
  8 28  1  0
  9 13  2  0
 10 18  1  0
 10 21  4  0
 10 30  4  0
 11 17  2  0
 12 18  1  0
 13 15  1  0
 14 24  1  0
 15 25  1  0
 16 28  2  0
 17 20  1  0
 19 24  4  0
 20 23  1  0
 21 22  4  0
 22 23  4  0
 25 26  4  0
 27 29  2  0
M  END
$$$$

 Created by Python create_sdf_string function

 30 33  0  0  0  0  0  0  0  0999 V2000
    8.3036    9.8571   18.4133 C   0  0  0  0  0  0  0  0  0  0  0  0
    8.3694    7.6612   22.6703 C   0  0  0  0  0  0  0  0  0  0  0  0
    8.4143    6.6863   16.2273 C   0  0  0  0  0  0  0  0  0  0  0  0
   10.7581    6.5674   21.7636 C   0  0  0  0  0  0  0  0  0  0  0  0
    8.4452    8.7960   19.2958 O   0  0  0  0  0  0  0  0  0  0  0  0
    8.7122    6.7842   24.8569 C   0  0  0  0  0  0  0  0  0  0  0  0
   10.3400    6.1726   14.3081 C   0  0  0  0  0  0  0  0  0  0  0  0
    7.4297    7.5873   24.8962 C   0  0  0  0  0  0  0  0  0  0  0  0
    8.1566   10.0536   16.0516 O   0  0  0  0  0  0  0  0  0  0  0  0
   12.4989    6.2074   20.1776 C   0  0  0  0  0  0  0  0  0  0  0  0
    6.9192    9.1053   20.9073 O   0  0  0  0  0  0  0  0  0  0  0  0
   14.3979    6.0729   18.7784 C   0  0  0  0  0  0  0  0  0  0  0  0
    8.6811    9.5354   16.9998 C   0  0  0  0  0  0  0  0  0  0  0  0
    9.2512    4.2713   13.7653 O   0  0  0  0  0  0  0  0  0  0  0  0
    9.6495    8.6317   16.8332 N   0  0  0  0  0  0  0  0  0  0  0  0
    6.2934    8.6988   23.1988 O   0  0  0  0  0  0  0  0  0  0  0  0
    7.9806    8.6543   20.5437 C   0  0  0  0  0  0  0  0  0  0  0  0
   13.7270    5.7144   19.8610 O   0  0  0  0  0  0  0  0  0  0  0  0
    8.3351    5.5235   15.4478 C   0  0  0  0  0  0  0  0  0  0  0  0
    8.7700    7.8434   21.3915 C   0  0  0  0  0  0  0  0  0  0  0  0
   11.7856    6.8851   19.2401 C   0  0  0  0  0  0  0  0  0  0  0  0
   10.5281    7.4276   19.5649 C   0  0  0  0  0  0  0  0  0  0  0  0
   10.0256    7.2907   20.8484 C   0  0  0  0  0  0  0  0  0  0  0  0
    9.3113    5.3049   14.4911 C   0  0  0  0  0  0  0  0  0  0  0  0
    9.4607    7.5646   16.0139 C   0  0  0  0  0  0  0  0  0  0  0  0
   10.4192    7.3157   15.0955 C   0  0  0  0  0  0  0  0  0  0  0  0
   10.2489    6.4227   23.0218 N   0  0  0  0  0  0  0  0  0  0  0  0
    7.2472    8.0746   23.5050 C   0  0  0  0  0  0  0  0  0  0  0  0
    9.2051    6.9101   23.4604 C   0  0  0  0  0  0  0  0  0  0  0  0
   11.9646    6.0299   21.4251 C   0  0  0  0  0  0  0  0  0  0  0  0
  1  5  1  0
  1 13  1  0
  2 20  2  0
  2 28  1  0
  2 29  1  0
  3 19  4  0
  3 25  4  0
  4 23  4  0
  4 27  1  0
  4 30  4  0
  5 17  1  0
  6  8  1  0
  6 29  1  0
  7 24  4  0
  7 26  4  0
  8 28  1  0
  9 13  2  0
 10 18  1  0
 10 21  4  0
 10 30  4  0
 11 17  2  0
 12 18  1  0
 13 15  1  0
 14 24  1  0
 15 25  1  0
 16 28  2  0
 17 20  1  0
 19 24  4  0
 20 23  1  0
 21 22  4  0
 22 23  4  0
 25 26  4  0
 27 29  2  0
M  END
$$$$

 Created by Python create_sdf_string function

 30 33  0  0  0  0  0  0  0  0999 V2000
    8.3036    9.8571   18.4133 C   0  0  0  0  0  0  0  0  0  0  0  0
    8.3694    7.6612   22.6703 C   0  0  0  0  0  0  0  0  0  0  0  0
    8.4143    6.6863   16.2273 C   0  0  0  0  0  0  0  0  0  0  0  0
   10.7581    6.5674   21.7636 C   0  0  0  0  0  0  0  0  0  0  0  0
    8.4452    8.7960   19.2958 O   0  0  0  0  0  0  0  0  0  0  0  0
    8.7122    6.7842   24.8569 C   0  0  0  0  0  0  0  0  0  0  0  0
   10.3400    6.1726   14.3081 C   0  0  0  0  0  0  0  0  0  0  0  0
    7.4297    7.5873   24.8962 C   0  0  0  0  0  0  0  0  0  0  0  0
    8.1566   10.0536   16.0516 O   0  0  0  0  0  0  0  0  0  0  0  0
   12.4989    6.2074   20.1776 C   0  0  0  0  0  0  0  0  0  0  0  0
    6.9192    9.1053   20.9073 O   0  0  0  0  0  0  0  0  0  0  0  0
   14.3979    6.0729   18.7784 C   0  0  0  0  0  0  0  0  0  0  0  0
    8.6811    9.5354   16.9998 C   0  0  0  0  0  0  0  0  0  0  0  0
    9.2512    4.2713   13.7653 O   0  0  0  0  0  0  0  0  0  0  0  0
    9.6495    8.6317   16.8332 N   0  0  0  0  0  0  0  0  0  0  0  0
    6.2934    8.6988   23.1988 O   0  0  0  0  0  0  0  0  0  0  0  0
    7.9806    8.6543   20.5437 C   0  0  0  0  0  0  0  0  0  0  0  0
   13.7270    5.7144   19.8610 O   0  0  0  0  0  0  0  0  0  0  0  0
    8.3351    5.5235   15.4478 C   0  0  0  0  0  0  0  0  0  0  0  0
    8.7700    7.8434   21.3915 C   0  0  0  0  0  0  0  0  0  0  0  0
   11.7856    6.8851   19.2401 C   0  0  0  0  0  0  0  0  0  0  0  0
   10.5281    7.4276   19.5649 C   0  0  0  0  0  0  0  0  0  0  0  0
   10.0256    7.2907   20.8484 C   0  0  0  0  0  0  0  0  0  0  0  0
    9.3113    5.3049   14.4911 C   0  0  0  0  0  0  0  0  0  0  0  0
    9.4607    7.5646   16.0139 C   0  0  0  0  0  0  0  0  0  0  0  0
   10.4192    7.3157   15.0955 C   0  0  0  0  0  0  0  0  0  0  0  0
   10.2489    6.4227   23.0218 N   0  0  0  0  0  0  0  0  0  0  0  0
    7.2472    8.0746   23.5050 C   0  0  0  0  0  0  0  0  0  0  0  0
    9.2051    6.9101   23.4604 C   0  0  0  0  0  0  0  0  0  0  0  0
   11.9646    6.0299   21.4251 C   0  0  0  0  0  0  0  0  0  0  0  0
  1  5  1  0
  1 13  1  0
  2 20  2  0
  2 28  1  0
  2 29  1  0
  3 19  4  0
  3 25  4  0
  4 23  4  0
  4 27  1  0
  4 30  4  0
  5 17  1  0
  6  8  1  0
  6 29  1  0
  7 24  4  0
  7 26  4  0
  8 28  1  0
  9 13  2  0
 10 18  1  0
 10 21  4  0
 10 30  4  0
 11 17  2  0
 12 18  1  0
 13 15  1  0
 14 24  1  0
 15 25  1  0
 16 28  2  0
 17 20  1  0
 19 24  4  0
 20 23  1  0
 21 22  4  0
 22 23  4  0
 25 26  4  0
 27 29  2  0
M  END
$$$$

 Created by Python create_sdf_string function

 30 33  0  0  0  0  0  0  0  0999 V2000
    8.3036    9.8571   18.4133 C   0  0  0  0  0  0  0  0  0  0  0  0
    8.3694    7.6612   22.6703 C   0  0  0  0  0  0  0  0  0  0  0  0
    8.4143    6.6863   16.2273 C   0  0  0  0  0  0  0  0  0  0  0  0
   10.7581    6.5674   21.7636 C   0  0  0  0  0  0  0  0  0  0  0  0
    8.4452    8.7960   19.2958 O   0  0  0  0  0  0  0  0  0  0  0  0
    8.7122    6.7842   24.8569 C   0  0  0  0  0  0  0  0  0  0  0  0
   10.3400    6.1726   14.3081 C   0  0  0  0  0  0  0  0  0  0  0  0
    7.4297    7.5873   24.8962 C   0  0  0  0  0  0  0  0  0  0  0  0
    8.1566   10.0536   16.0516 O   0  0  0  0  0  0  0  0  0  0  0  0
   12.4989    6.2074   20.1776 C   0  0  0  0  0  0  0  0  0  0  0  0
    6.9192    9.1053   20.9073 O   0  0  0  0  0  0  0  0  0  0  0  0
   14.3979    6.0729   18.7784 C   0  0  0  0  0  0  0  0  0  0  0  0
    8.6811    9.5354   16.9998 C   0  0  0  0  0  0  0  0  0  0  0  0
    9.2512    4.2713   13.7653 O   0  0  0  0  0  0  0  0  0  0  0  0
    9.6495    8.6317   16.8332 N   0  0  0  0  0  0  0  0  0  0  0  0
    6.2934    8.6988   23.1988 O   0  0  0  0  0  0  0  0  0  0  0  0
    7.9806    8.6543   20.5437 C   0  0  0  0  0  0  0  0  0  0  0  0
   13.7270    5.7144   19.8610 O   0  0  0  0  0  0  0  0  0  0  0  0
    8.3351    5.5235   15.4478 C   0  0  0  0  0  0  0  0  0  0  0  0
    8.7700    7.8434   21.3915 C   0  0  0  0  0  0  0  0  0  0  0  0
   11.7856    6.8851   19.2401 C   0  0  0  0  0  0  0  0  0  0  0  0
   10.5281    7.4276   19.5649 C   0  0  0  0  0  0  0  0  0  0  0  0
   10.0256    7.2907   20.8484 C   0  0  0  0  0  0  0  0  0  0  0  0
    9.3113    5.3049   14.4911 C   0  0  0  0  0  0  0  0  0  0  0  0
    9.4607    7.5646   16.0139 C   0  0  0  0  0  0  0  0  0  0  0  0
   10.4192    7.3157   15.0955 C   0  0  0  0  0  0  0  0  0  0  0  0
   10.2489    6.4227   23.0218 N   0  0  0  0  0  0  0  0  0  0  0  0
    7.2472    8.0746   23.5050 C   0  0  0  0  0  0  0  0  0  0  0  0
    9.2051    6.9101   23.4604 C   0  0  0  0  0  0  0  0  0  0  0  0
   11.9646    6.0299   21.4251 C   0  0  0  0  0  0  0  0  0  0  0  0
  1  5  1  0
  1 13  1  0
  2 20  2  0
  2 28  1  0
  2 29  1  0
  3 19  4  0
  3 25  4  0
  4 23  4  0
  4 27  1  0
  4 30  4  0
  5 17  1  0
  6  8  1  0
  6 29  1  0
  7 24  4  0
  7 26  4  0
  8 28  1  0
  9 13  2  0
 10 18  1  0
 10 21  4  0
 10 30  4  0
 11 17  2  0
 12 18  1  0
 13 15  1  0
 14 24  1  0
 15 25  1  0
 16 28  2  0
 17 20  1  0
 19 24  4  0
 20 23  1  0
 21 22  4  0
 22 23  4  0
 25 26  4  0
 27 29  2  0
M  END
$$$$

 Created by Python create_sdf_string function

 30 33  0  0  0  0  0  0  0  0999 V2000
    8.3036    9.8571   18.4133 C   0  0  0  0  0  0  0  0  0  0  0  0
    8.3694    7.6612   22.6703 C   0  0  0  0  0  0  0  0  0  0  0  0
    8.4143    6.6863   16.2273 C   0  0  0  0  0  0  0  0  0  0  0  0
   10.7581    6.5674   21.7636 C   0  0  0  0  0  0  0  0  0  0  0  0
    8.4452    8.7960   19.2958 O   0  0  0  0  0  0  0  0  0  0  0  0
    8.7122    6.7842   24.8569 C   0  0  0  0  0  0  0  0  0  0  0  0
   10.3400    6.1726   14.3081 C   0  0  0  0  0  0  0  0  0  0  0  0
    7.4297    7.5873   24.8962 C   0  0  0  0  0  0  0  0  0  0  0  0
    8.1566   10.0536   16.0516 O   0  0  0  0  0  0  0  0  0  0  0  0
   12.4989    6.2074   20.1776 C   0  0  0  0  0  0  0  0  0  0  0  0
    6.9192    9.1053   20.9073 O   0  0  0  0  0  0  0  0  0  0  0  0
   14.3979    6.0729   18.7784 C   0  0  0  0  0  0  0  0  0  0  0  0
    8.6811    9.5354   16.9998 C   0  0  0  0  0  0  0  0  0  0  0  0
    9.2512    4.2713   13.7653 O   0  0  0  0  0  0  0  0  0  0  0  0
    9.6495    8.6317   16.8332 N   0  0  0  0  0  0  0  0  0  0  0  0
    6.2934    8.6988   23.1988 O   0  0  0  0  0  0  0  0  0  0  0  0
    7.9806    8.6543   20.5437 C   0  0  0  0  0  0  0  0  0  0  0  0
   13.7270    5.7144   19.8610 O   0  0  0  0  0  0  0  0  0  0  0  0
    8.3351    5.5235   15.4478 C   0  0  0  0  0  0  0  0  0  0  0  0
    8.7700    7.8434   21.3915 C   0  0  0  0  0  0  0  0  0  0  0  0
   11.7856    6.8851   19.2401 C   0  0  0  0  0  0  0  0  0  0  0  0
   10.5281    7.4276   19.5649 C   0  0  0  0  0  0  0  0  0  0  0  0
   10.0256    7.2907   20.8484 C   0  0  0  0  0  0  0  0  0  0  0  0
    9.3113    5.3049   14.4911 C   0  0  0  0  0  0  0  0  0  0  0  0
    9.4607    7.5646   16.0139 C   0  0  0  0  0  0  0  0  0  0  0  0
   10.4192    7.3157   15.0955 C   0  0  0  0  0  0  0  0  0  0  0  0
   10.2489    6.4227   23.0218 N   0  0  0  0  0  0  0  0  0  0  0  0
    7.2472    8.0746   23.5050 C   0  0  0  0  0  0  0  0  0  0  0  0
    9.2051    6.9101   23.4604 C   0  0  0  0  0  0  0  0  0  0  0  0
   11.9646    6.0299   21.4251 C   0  0  0  0  0  0  0  0  0  0  0  0
  1  5  1  0
  1 13  1  0
  2 20  2  0
  2 28  1  0
  2 29  1  0
  3 19  4  0
  3 25  4  0
  4 23  4  0
  4 27  1  0
  4 30  4  0
  5 17  1  0
  6  8  1  0
  6 29  1  0
  7 24  4  0
  7 26  4  0
  8 28  1  0
  9 13  2  0
 10 18  1  0
 10 21  4  0
 10 30  4  0
 11 17  2  0
 12 18  1  0
 13 15  1  0
 14 24  1  0
 15 25  1  0
 16 28  2  0
 17 20  1  0
 19 24  4  0
 20 23  1  0
 21 22  4  0
 22 23  4  0
 25 26  4  0
 27 29  2  0
M  END
$$$$

 Created by Python create_sdf_string function

 30 33  0  0  0  0  0  0  0  0999 V2000
    8.3036    9.8571   18.4133 C   0  0  0  0  0  0  0  0  0  0  0  0
    8.3694    7.6612   22.6703 C   0  0  0  0  0  0  0  0  0  0  0  0
    8.4143    6.6863   16.2273 C   0  0  0  0  0  0  0  0  0  0  0  0
   10.7581    6.5674   21.7636 C   0  0  0  0  0  0  0  0  0  0  0  0
    8.4452    8.7960   19.2958 O   0  0  0  0  0  0  0  0  0  0  0  0
    8.7122    6.7842   24.8569 C   0  0  0  0  0  0  0  0  0  0  0  0
   10.3400    6.1726   14.3081 C   0  0  0  0  0  0  0  0  0  0  0  0
    7.4297    7.5873   24.8962 C   0  0  0  0  0  0  0  0  0  0  0  0
    8.1566   10.0536   16.0516 O   0  0  0  0  0  0  0  0  0  0  0  0
   12.4989    6.2074   20.1776 C   0  0  0  0  0  0  0  0  0  0  0  0
    6.9192    9.1053   20.9073 O   0  0  0  0  0  0  0  0  0  0  0  0
   14.3979    6.0729   18.7784 C   0  0  0  0  0  0  0  0  0  0  0  0
    8.6811    9.5354   16.9998 C   0  0  0  0  0  0  0  0  0  0  0  0
    9.2512    4.2713   13.7653 O   0  0  0  0  0  0  0  0  0  0  0  0
    9.6495    8.6317   16.8332 N   0  0  0  0  0  0  0  0  0  0  0  0
    6.2934    8.6988   23.1988 O   0  0  0  0  0  0  0  0  0  0  0  0
    7.9806    8.6543   20.5437 C   0  0  0  0  0  0  0  0  0  0  0  0
   13.7270    5.7144   19.8610 O   0  0  0  0  0  0  0  0  0  0  0  0
    8.3351    5.5235   15.4478 C   0  0  0  0  0  0  0  0  0  0  0  0
    8.7700    7.8434   21.3915 C   0  0  0  0  0  0  0  0  0  0  0  0
   11.7856    6.8851   19.2401 C   0  0  0  0  0  0  0  0  0  0  0  0
   10.5281    7.4276   19.5649 C   0  0  0  0  0  0  0  0  0  0  0  0
   10.0256    7.2907   20.8484 C   0  0  0  0  0  0  0  0  0  0  0  0
    9.3113    5.3049   14.4911 C   0  0  0  0  0  0  0  0  0  0  0  0
    9.4607    7.5646   16.0139 C   0  0  0  0  0  0  0  0  0  0  0  0
   10.4192    7.3157   15.0955 C   0  0  0  0  0  0  0  0  0  0  0  0
   10.2489    6.4227   23.0218 N   0  0  0  0  0  0  0  0  0  0  0  0
    7.2472    8.0746   23.5050 C   0  0  0  0  0  0  0  0  0  0  0  0
    9.2051    6.9101   23.4604 C   0  0  0  0  0  0  0  0  0  0  0  0
   11.9646    6.0299   21.4251 C   0  0  0  0  0  0  0  0  0  0  0  0
  1  5  1  0
  1 13  1  0
  2 20  2  0
  2 28  1  0
  2 29  1  0
  3 19  4  0
  3 25  4  0
  4 23  4  0
  4 27  1  0
  4 30  4  0
  5 17  1  0
  6  8  1  0
  6 29  1  0
  7 24  4  0
  7 26  4  0
  8 28  1  0
  9 13  2  0
 10 18  1  0
 10 21  4  0
 10 30  4  0
 11 17  2  0
 12 18  1  0
 13 15  1  0
 14 24  1  0
 15 25  1  0
 16 28  2  0
 17 20  1  0
 19 24  4  0
 20 23  1  0
 21 22  4  0
 22 23  4  0
 25 26  4  0
 27 29  2  0
M  END
$$$$

 Created by Python create_sdf_string function

 30 33  0  0  0  0  0  0  0  0999 V2000
    8.3036    9.8571   18.4133 C   0  0  0  0  0  0  0  0  0  0  0  0
    8.3694    7.6612   22.6703 C   0  0  0  0  0  0  0  0  0  0  0  0
    8.4143    6.6863   16.2273 C   0  0  0  0  0  0  0  0  0  0  0  0
   10.7581    6.5674   21.7636 C   0  0  0  0  0  0  0  0  0  0  0  0
    8.4452    8.7960   19.2958 O   0  0  0  0  0  0  0  0  0  0  0  0
    8.7122    6.7842   24.8569 C   0  0  0  0  0  0  0  0  0  0  0  0
   10.3400    6.1726   14.3081 C   0  0  0  0  0  0  0  0  0  0  0  0
    7.4297    7.5873   24.8962 C   0  0  0  0  0  0  0  0  0  0  0  0
    8.1566   10.0536   16.0516 O   0  0  0  0  0  0  0  0  0  0  0  0
   12.4989    6.2074   20.1776 C   0  0  0  0  0  0  0  0  0  0  0  0
    6.9192    9.1053   20.9073 O   0  0  0  0  0  0  0  0  0  0  0  0
   14.3979    6.0729   18.7784 C   0  0  0  0  0  0  0  0  0  0  0  0
    8.6811    9.5354   16.9998 C   0  0  0  0  0  0  0  0  0  0  0  0
    9.2512    4.2713   13.7653 O   0  0  0  0  0  0  0  0  0  0  0  0
    9.6495    8.6317   16.8332 N   0  0  0  0  0  0  0  0  0  0  0  0
    6.2934    8.6988   23.1988 O   0  0  0  0  0  0  0  0  0  0  0  0
    7.9806    8.6543   20.5437 C   0  0  0  0  0  0  0  0  0  0  0  0
   13.7270    5.7144   19.8610 O   0  0  0  0  0  0  0  0  0  0  0  0
    8.3351    5.5235   15.4478 C   0  0  0  0  0  0  0  0  0  0  0  0
    8.7700    7.8434   21.3915 C   0  0  0  0  0  0  0  0  0  0  0  0
   11.7856    6.8851   19.2401 C   0  0  0  0  0  0  0  0  0  0  0  0
   10.5281    7.4276   19.5649 C   0  0  0  0  0  0  0  0  0  0  0  0
   10.0256    7.2907   20.8484 C   0  0  0  0  0  0  0  0  0  0  0  0
    9.3113    5.3049   14.4911 C   0  0  0  0  0  0  0  0  0  0  0  0
    9.4607    7.5646   16.0139 C   0  0  0  0  0  0  0  0  0  0  0  0
   10.4192    7.3157   15.0955 C   0  0  0  0  0  0  0  0  0  0  0  0
   10.2489    6.4227   23.0218 N   0  0  0  0  0  0  0  0  0  0  0  0
    7.2472    8.0746   23.5050 C   0  0  0  0  0  0  0  0  0  0  0  0
    9.2051    6.9101   23.4604 C   0  0  0  0  0  0  0  0  0  0  0  0
   11.9646    6.0299   21.4251 C   0  0  0  0  0  0  0  0  0  0  0  0
  1  5  1  0
  1 13  1  0
  2 20  2  0
  2 28  1  0
  2 29  1  0
  3 19  4  0
  3 25  4  0
  4 23  4  0
  4 27  1  0
  4 30  4  0
  5 17  1  0
  6  8  1  0
  6 29  1  0
  7 24  4  0
  7 26  4  0
  8 28  1  0
  9 13  2  0
 10 18  1  0
 10 21  4  0
 10 30  4  0
 11 17  2  0
 12 18  1  0
 13 15  1  0
 14 24  1  0
 15 25  1  0
 16 28  2  0
 17 20  1  0
 19 24  4  0
 20 23  1  0
 21 22  4  0
 22 23  4  0
 25 26  4  0
 27 29  2  0
M  END
$$$$

 Created by Python create_sdf_string function

 30 33  0  0  0  0  0  0  0  0999 V2000
    8.3036    9.8571   18.4133 C   0  0  0  0  0  0  0  0  0  0  0  0
    8.3694    7.6612   22.6703 C   0  0  0  0  0  0  0  0  0  0  0  0
    8.4143    6.6863   16.2273 C   0  0  0  0  0  0  0  0  0  0  0  0
   10.7581    6.5674   21.7636 C   0  0  0  0  0  0  0  0  0  0  0  0
    8.4452    8.7960   19.2958 O   0  0  0  0  0  0  0  0  0  0  0  0
    8.7122    6.7842   24.8569 C   0  0  0  0  0  0  0  0  0  0  0  0
   10.3400    6.1726   14.3081 C   0  0  0  0  0  0  0  0  0  0  0  0
    7.4297    7.5873   24.8962 C   0  0  0  0  0  0  0  0  0  0  0  0
    8.1566   10.0536   16.0516 O   0  0  0  0  0  0  0  0  0  0  0  0
   12.4989    6.2074   20.1776 C   0  0  0  0  0  0  0  0  0  0  0  0
    6.9192    9.1053   20.9073 O   0  0  0  0  0  0  0  0  0  0  0  0
   14.3979    6.0729   18.7784 C   0  0  0  0  0  0  0  0  0  0  0  0
    8.6811    9.5354   16.9998 C   0  0  0  0  0  0  0  0  0  0  0  0
    9.2512    4.2713   13.7653 O   0  0  0  0  0  0  0  0  0  0  0  0
    9.6495    8.6317   16.8332 N   0  0  0  0  0  0  0  0  0  0  0  0
    6.2934    8.6988   23.1988 O   0  0  0  0  0  0  0  0  0  0  0  0
    7.9806    8.6543   20.5437 C   0  0  0  0  0  0  0  0  0  0  0  0
   13.7270    5.7144   19.8610 O   0  0  0  0  0  0  0  0  0  0  0  0
    8.3351    5.5235   15.4478 C   0  0  0  0  0  0  0  0  0  0  0  0
    8.7700    7.8434   21.3915 C   0  0  0  0  0  0  0  0  0  0  0  0
   11.7856    6.8851   19.2401 C   0  0  0  0  0  0  0  0  0  0  0  0
   10.5281    7.4276   19.5649 C   0  0  0  0  0  0  0  0  0  0  0  0
   10.0256    7.2907   20.8484 C   0  0  0  0  0  0  0  0  0  0  0  0
    9.3113    5.3049   14.4911 C   0  0  0  0  0  0  0  0  0  0  0  0
    9.4607    7.5646   16.0139 C   0  0  0  0  0  0  0  0  0  0  0  0
   10.4192    7.3157   15.0955 C   0  0  0  0  0  0  0  0  0  0  0  0
   10.2489    6.4227   23.0218 N   0  0  0  0  0  0  0  0  0  0  0  0
    7.2472    8.0746   23.5050 C   0  0  0  0  0  0  0  0  0  0  0  0
    9.2051    6.9101   23.4604 C   0  0  0  0  0  0  0  0  0  0  0  0
   11.9646    6.0299   21.4251 C   0  0  0  0  0  0  0  0  0  0  0  0
  1  5  1  0
  1 13  1  0
  2 20  2  0
  2 28  1  0
  2 29  1  0
  3 19  4  0
  3 25  4  0
  4 23  4  0
  4 27  1  0
  4 30  4  0
  5 17  1  0
  6  8  1  0
  6 29  1  0
  7 24  4  0
  7 26  4  0
  8 28  1  0
  9 13  2  0
 10 18  1  0
 10 21  4  0
 10 30  4  0
 11 17  2  0
 12 18  1  0
 13 15  1  0
 14 24  1  0
 15 25  1  0
 16 28  2  0
 17 20  1  0
 19 24  4  0
 20 23  1  0
 21 22  4  0
 22 23  4  0
 25 26  4  0
 27 29  2  0
M  END
$$$$

 Created by Python create_sdf_string function

 30 33  0  0  0  0  0  0  0  0999 V2000
    8.3036    9.8571   18.4133 C   0  0  0  0  0  0  0  0  0  0  0  0
    8.3694    7.6612   22.6703 C   0  0  0  0  0  0  0  0  0  0  0  0
    8.4143    6.6863   16.2273 C   0  0  0  0  0  0  0  0  0  0  0  0
   10.7581    6.5674   21.7636 C   0  0  0  0  0  0  0  0  0  0  0  0
    8.4452    8.7960   19.2958 O   0  0  0  0  0  0  0  0  0  0  0  0
    8.7122    6.7842   24.8569 C   0  0  0  0  0  0  0  0  0  0  0  0
   10.3400    6.1726   14.3081 C   0  0  0  0  0  0  0  0  0  0  0  0
    7.4297    7.5873   24.8962 C   0  0  0  0  0  0  0  0  0  0  0  0
    8.1566   10.0536   16.0516 O   0  0  0  0  0  0  0  0  0  0  0  0
   12.4989    6.2074   20.1776 C   0  0  0  0  0  0  0  0  0  0  0  0
    6.9192    9.1053   20.9073 O   0  0  0  0  0  0  0  0  0  0  0  0
   14.3979    6.0729   18.7784 C   0  0  0  0  0  0  0  0  0  0  0  0
    8.6811    9.5354   16.9998 C   0  0  0  0  0  0  0  0  0  0  0  0
    9.2512    4.2713   13.7653 O   0  0  0  0  0  0  0  0  0  0  0  0
    9.6495    8.6317   16.8332 N   0  0  0  0  0  0  0  0  0  0  0  0
    6.2934    8.6988   23.1988 O   0  0  0  0  0  0  0  0  0  0  0  0
    7.9806    8.6543   20.5437 C   0  0  0  0  0  0  0  0  0  0  0  0
   13.7270    5.7144   19.8610 O   0  0  0  0  0  0  0  0  0  0  0  0
    8.3351    5.5235   15.4478 C   0  0  0  0  0  0  0  0  0  0  0  0
    8.7700    7.8434   21.3915 C   0  0  0  0  0  0  0  0  0  0  0  0
   11.7856    6.8851   19.2401 C   0  0  0  0  0  0  0  0  0  0  0  0
   10.5281    7.4276   19.5649 C   0  0  0  0  0  0  0  0  0  0  0  0
   10.0256    7.2907   20.8484 C   0  0  0  0  0  0  0  0  0  0  0  0
    9.3113    5.3049   14.4911 C   0  0  0  0  0  0  0  0  0  0  0  0
    9.4607    7.5646   16.0139 C   0  0  0  0  0  0  0  0  0  0  0  0
   10.4192    7.3157   15.0955 C   0  0  0  0  0  0  0  0  0  0  0  0
   10.2489    6.4227   23.0218 N   0  0  0  0  0  0  0  0  0  0  0  0
    7.2472    8.0746   23.5050 C   0  0  0  0  0  0  0  0  0  0  0  0
    9.2051    6.9101   23.4604 C   0  0  0  0  0  0  0  0  0  0  0  0
   11.9646    6.0299   21.4251 C   0  0  0  0  0  0  0  0  0  0  0  0
  1  5  1  0
  1 13  1  0
  2 20  2  0
  2 28  1  0
  2 29  1  0
  3 19  4  0
  3 25  4  0
  4 23  4  0
  4 27  1  0
  4 30  4  0
  5 17  1  0
  6  8  1  0
  6 29  1  0
  7 24  4  0
  7 26  4  0
  8 28  1  0
  9 13  2  0
 10 18  1  0
 10 21  4  0
 10 30  4  0
 11 17  2  0
 12 18  1  0
 13 15  1  0
 14 24  1  0
 15 25  1  0
 16 28  2  0
 17 20  1  0
 19 24  4  0
 20 23  1  0
 21 22  4  0
 22 23  4  0
 25 26  4  0
 27 29  2  0
M  END
$$$$

 Created by Python create_sdf_string function

 30 33  0  0  0  0  0  0  0  0999 V2000
    8.3036    9.8571   18.4133 C   0  0  0  0  0  0  0  0  0  0  0  0
    8.3694    7.6612   22.6703 C   0  0  0  0  0  0  0  0  0  0  0  0
    8.4143    6.6863   16.2273 C   0  0  0  0  0  0  0  0  0  0  0  0
   10.7581    6.5674   21.7636 C   0  0  0  0  0  0  0  0  0  0  0  0
    8.4452    8.7960   19.2958 O   0  0  0  0  0  0  0  0  0  0  0  0
    8.7122    6.7842   24.8569 C   0  0  0  0  0  0  0  0  0  0  0  0
   10.3400    6.1726   14.3081 C   0  0  0  0  0  0  0  0  0  0  0  0
    7.4297    7.5873   24.8962 C   0  0  0  0  0  0  0  0  0  0  0  0
    8.1566   10.0536   16.0516 O   0  0  0  0  0  0  0  0  0  0  0  0
   12.4989    6.2074   20.1776 C   0  0  0  0  0  0  0  0  0  0  0  0
    6.9192    9.1053   20.9073 O   0  0  0  0  0  0  0  0  0  0  0  0
   14.3979    6.0729   18.7784 C   0  0  0  0  0  0  0  0  0  0  0  0
    8.6811    9.5354   16.9998 C   0  0  0  0  0  0  0  0  0  0  0  0
    9.2512    4.2713   13.7653 O   0  0  0  0  0  0  0  0  0  0  0  0
    9.6495    8.6317   16.8332 N   0  0  0  0  0  0  0  0  0  0  0  0
    6.2934    8.6988   23.1988 O   0  0  0  0  0  0  0  0  0  0  0  0
    7.9806    8.6543   20.5437 C   0  0  0  0  0  0  0  0  0  0  0  0
   13.7270    5.7144   19.8610 O   0  0  0  0  0  0  0  0  0  0  0  0
    8.3351    5.5235   15.4478 C   0  0  0  0  0  0  0  0  0  0  0  0
    8.7700    7.8434   21.3915 C   0  0  0  0  0  0  0  0  0  0  0  0
   11.7856    6.8851   19.2401 C   0  0  0  0  0  0  0  0  0  0  0  0
   10.5281    7.4276   19.5649 C   0  0  0  0  0  0  0  0  0  0  0  0
   10.0256    7.2907   20.8484 C   0  0  0  0  0  0  0  0  0  0  0  0
    9.3113    5.3049   14.4911 C   0  0  0  0  0  0  0  0  0  0  0  0
    9.4607    7.5646   16.0139 C   0  0  0  0  0  0  0  0  0  0  0  0
   10.4192    7.3157   15.0955 C   0  0  0  0  0  0  0  0  0  0  0  0
   10.2489    6.4227   23.0218 N   0  0  0  0  0  0  0  0  0  0  0  0
    7.2472    8.0746   23.5050 C   0  0  0  0  0  0  0  0  0  0  0  0
    9.2051    6.9101   23.4604 C   0  0  0  0  0  0  0  0  0  0  0  0
   11.9646    6.0299   21.4251 C   0  0  0  0  0  0  0  0  0  0  0  0
  1  5  1  0
  1 13  1  0
  2 20  2  0
  2 28  1  0
  2 29  1  0
  3 19  4  0
  3 25  4  0
  4 23  4  0
  4 27  1  0
  4 30  4  0
  5 17  1  0
  6  8  1  0
  6 29  1  0
  7 24  4  0
  7 26  4  0
  8 28  1  0
  9 13  2  0
 10 18  1  0
 10 21  4  0
 10 30  4  0
 11 17  2  0
 12 18  1  0
 13 15  1  0
 14 24  1  0
 15 25  1  0
 16 28  2  0
 17 20  1  0
 19 24  4  0
 20 23  1  0
 21 22  4  0
 22 23  4  0
 25 26  4  0
 27 29  2  0
M  END
$$$$

 Created by Python create_sdf_string function

 30 33  0  0  0  0  0  0  0  0999 V2000
    8.3036    9.8571   18.4133 C   0  0  0  0  0  0  0  0  0  0  0  0
    8.3694    7.6612   22.6703 C   0  0  0  0  0  0  0  0  0  0  0  0
    8.4143    6.6863   16.2273 C   0  0  0  0  0  0  0  0  0  0  0  0
   10.7581    6.5674   21.7636 C   0  0  0  0  0  0  0  0  0  0  0  0
    8.4452    8.7960   19.2958 O   0  0  0  0  0  0  0  0  0  0  0  0
    8.7122    6.7842   24.8569 C   0  0  0  0  0  0  0  0  0  0  0  0
   10.3400    6.1726   14.3081 C   0  0  0  0  0  0  0  0  0  0  0  0
    7.4297    7.5873   24.8962 C   0  0  0  0  0  0  0  0  0  0  0  0
    8.1566   10.0536   16.0516 O   0  0  0  0  0  0  0  0  0  0  0  0
   12.4989    6.2074   20.1776 C   0  0  0  0  0  0  0  0  0  0  0  0
    6.9192    9.1053   20.9073 O   0  0  0  0  0  0  0  0  0  0  0  0
   14.3979    6.0729   18.7784 C   0  0  0  0  0  0  0  0  0  0  0  0
    8.6811    9.5354   16.9998 C   0  0  0  0  0  0  0  0  0  0  0  0
    9.2512    4.2713   13.7653 O   0  0  0  0  0  0  0  0  0  0  0  0
    9.6495    8.6317   16.8332 N   0  0  0  0  0  0  0  0  0  0  0  0
    6.2934    8.6988   23.1988 O   0  0  0  0  0  0  0  0  0  0  0  0
    7.9806    8.6543   20.5437 C   0  0  0  0  0  0  0  0  0  0  0  0
   13.7270    5.7144   19.8610 O   0  0  0  0  0  0  0  0  0  0  0  0
    8.3351    5.5235   15.4478 C   0  0  0  0  0  0  0  0  0  0  0  0
    8.7700    7.8434   21.3915 C   0  0  0  0  0  0  0  0  0  0  0  0
   11.7856    6.8851   19.2401 C   0  0  0  0  0  0  0  0  0  0  0  0
   10.5281    7.4276   19.5649 C   0  0  0  0  0  0  0  0  0  0  0  0
   10.0256    7.2907   20.8484 C   0  0  0  0  0  0  0  0  0  0  0  0
    9.3113    5.3049   14.4911 C   0  0  0  0  0  0  0  0  0  0  0  0
    9.4607    7.5646   16.0139 C   0  0  0  0  0  0  0  0  0  0  0  0
   10.4192    7.3157   15.0955 C   0  0  0  0  0  0  0  0  0  0  0  0
   10.2489    6.4227   23.0218 N   0  0  0  0  0  0  0  0  0  0  0  0
    7.2472    8.0746   23.5050 C   0  0  0  0  0  0  0  0  0  0  0  0
    9.2051    6.9101   23.4604 C   0  0  0  0  0  0  0  0  0  0  0  0
   11.9646    6.0299   21.4251 C   0  0  0  0  0  0  0  0  0  0  0  0
  1  5  1  0
  1 13  1  0
  2 20  2  0
  2 28  1  0
  2 29  1  0
  3 19  4  0
  3 25  4  0
  4 23  4  0
  4 27  1  0
  4 30  4  0
  5 17  1  0
  6  8  1  0
  6 29  1  0
  7 24  4  0
  7 26  4  0
  8 28  1  0
  9 13  2  0
 10 18  1  0
 10 21  4  0
 10 30  4  0
 11 17  2  0
 12 18  1  0
 13 15  1  0
 14 24  1  0
 15 25  1  0
 16 28  2  0
 17 20  1  0
 19 24  4  0
 20 23  1  0
 21 22  4  0
 22 23  4  0
 25 26  4  0
 27 29  2  0
M  END
$$$$

 Created by Python create_sdf_string function

 30 33  0  0  0  0  0  0  0  0999 V2000
    8.3036    9.8571   18.4133 C   0  0  0  0  0  0  0  0  0  0  0  0
    8.3694    7.6612   22.6703 C   0  0  0  0  0  0  0  0  0  0  0  0
    8.4143    6.6863   16.2273 C   0  0  0  0  0  0  0  0  0  0  0  0
   10.7581    6.5674   21.7636 C   0  0  0  0  0  0  0  0  0  0  0  0
    8.4452    8.7960   19.2958 O   0  0  0  0  0  0  0  0  0  0  0  0
    8.7122    6.7842   24.8569 C   0  0  0  0  0  0  0  0  0  0  0  0
   10.3400    6.1726   14.3081 C   0  0  0  0  0  0  0  0  0  0  0  0
    7.4297    7.5873   24.8962 C   0  0  0  0  0  0  0  0  0  0  0  0
    8.1566   10.0536   16.0516 O   0  0  0  0  0  0  0  0  0  0  0  0
   12.4989    6.2074   20.1776 C   0  0  0  0  0  0  0  0  0  0  0  0
    6.9192    9.1053   20.9073 O   0  0  0  0  0  0  0  0  0  0  0  0
   14.3979    6.0729   18.7784 C   0  0  0  0  0  0  0  0  0  0  0  0
    8.6811    9.5354   16.9998 C   0  0  0  0  0  0  0  0  0  0  0  0
    9.2512    4.2713   13.7653 O   0  0  0  0  0  0  0  0  0  0  0  0
    9.6495    8.6317   16.8332 N   0  0  0  0  0  0  0  0  0  0  0  0
    6.2934    8.6988   23.1988 O   0  0  0  0  0  0  0  0  0  0  0  0
    7.9806    8.6543   20.5437 C   0  0  0  0  0  0  0  0  0  0  0  0
   13.7270    5.7144   19.8610 O   0  0  0  0  0  0  0  0  0  0  0  0
    8.3351    5.5235   15.4478 C   0  0  0  0  0  0  0  0  0  0  0  0
    8.7700    7.8434   21.3915 C   0  0  0  0  0  0  0  0  0  0  0  0
   11.7856    6.8851   19.2401 C   0  0  0  0  0  0  0  0  0  0  0  0
   10.5281    7.4276   19.5649 C   0  0  0  0  0  0  0  0  0  0  0  0
   10.0256    7.2907   20.8484 C   0  0  0  0  0  0  0  0  0  0  0  0
    9.3113    5.3049   14.4911 C   0  0  0  0  0  0  0  0  0  0  0  0
    9.4607    7.5646   16.0139 C   0  0  0  0  0  0  0  0  0  0  0  0
   10.4192    7.3157   15.0955 C   0  0  0  0  0  0  0  0  0  0  0  0
   10.2489    6.4227   23.0218 N   0  0  0  0  0  0  0  0  0  0  0  0
    7.2472    8.0746   23.5050 C   0  0  0  0  0  0  0  0  0  0  0  0
    9.2051    6.9101   23.4604 C   0  0  0  0  0  0  0  0  0  0  0  0
   11.9646    6.0299   21.4251 C   0  0  0  0  0  0  0  0  0  0  0  0
  1  5  1  0
  1 13  1  0
  2 20  2  0
  2 28  1  0
  2 29  1  0
  3 19  4  0
  3 25  4  0
  4 23  4  0
  4 27  1  0
  4 30  4  0
  5 17  1  0
  6  8  1  0
  6 29  1  0
  7 24  4  0
  7 26  4  0
  8 28  1  0
  9 13  2  0
 10 18  1  0
 10 21  4  0
 10 30  4  0
 11 17  2  0
 12 18  1  0
 13 15  1  0
 14 24  1  0
 15 25  1  0
 16 28  2  0
 17 20  1  0
 19 24  4  0
 20 23  1  0
 21 22  4  0
 22 23  4  0
 25 26  4  0
 27 29  2  0
M  END
$$$$

 Created by Python create_sdf_string function

 30 33  0  0  0  0  0  0  0  0999 V2000
    8.3036    9.8571   18.4133 C   0  0  0  0  0  0  0  0  0  0  0  0
    8.3694    7.6612   22.6703 C   0  0  0  0  0  0  0  0  0  0  0  0
    8.4143    6.6863   16.2273 C   0  0  0  0  0  0  0  0  0  0  0  0
   10.7581    6.5674   21.7636 C   0  0  0  0  0  0  0  0  0  0  0  0
    8.4452    8.7960   19.2958 O   0  0  0  0  0  0  0  0  0  0  0  0
    8.7122    6.7842   24.8569 C   0  0  0  0  0  0  0  0  0  0  0  0
   10.3400    6.1726   14.3081 C   0  0  0  0  0  0  0  0  0  0  0  0
    7.4297    7.5873   24.8962 C   0  0  0  0  0  0  0  0  0  0  0  0
    8.1566   10.0536   16.0516 O   0  0  0  0  0  0  0  0  0  0  0  0
   12.4989    6.2074   20.1776 C   0  0  0  0  0  0  0  0  0  0  0  0
    6.9192    9.1053   20.9073 O   0  0  0  0  0  0  0  0  0  0  0  0
   14.3979    6.0729   18.7784 C   0  0  0  0  0  0  0  0  0  0  0  0
    8.6811    9.5354   16.9998 C   0  0  0  0  0  0  0  0  0  0  0  0
    9.2512    4.2713   13.7653 O   0  0  0  0  0  0  0  0  0  0  0  0
    9.6495    8.6317   16.8332 N   0  0  0  0  0  0  0  0  0  0  0  0
    6.2934    8.6988   23.1988 O   0  0  0  0  0  0  0  0  0  0  0  0
    7.9806    8.6543   20.5437 C   0  0  0  0  0  0  0  0  0  0  0  0
   13.7270    5.7144   19.8610 O   0  0  0  0  0  0  0  0  0  0  0  0
    8.3351    5.5235   15.4478 C   0  0  0  0  0  0  0  0  0  0  0  0
    8.7700    7.8434   21.3915 C   0  0  0  0  0  0  0  0  0  0  0  0
   11.7856    6.8851   19.2401 C   0  0  0  0  0  0  0  0  0  0  0  0
   10.5281    7.4276   19.5649 C   0  0  0  0  0  0  0  0  0  0  0  0
   10.0256    7.2907   20.8484 C   0  0  0  0  0  0  0  0  0  0  0  0
    9.3113    5.3049   14.4911 C   0  0  0  0  0  0  0  0  0  0  0  0
    9.4607    7.5646   16.0139 C   0  0  0  0  0  0  0  0  0  0  0  0
   10.4192    7.3157   15.0955 C   0  0  0  0  0  0  0  0  0  0  0  0
   10.2489    6.4227   23.0218 N   0  0  0  0  0  0  0  0  0  0  0  0
    7.2472    8.0746   23.5050 C   0  0  0  0  0  0  0  0  0  0  0  0
    9.2051    6.9101   23.4604 C   0  0  0  0  0  0  0  0  0  0  0  0
   11.9646    6.0299   21.4251 C   0  0  0  0  0  0  0  0  0  0  0  0
  1  5  1  0
  1 13  1  0
  2 20  2  0
  2 28  1  0
  2 29  1  0
  3 19  4  0
  3 25  4  0
  4 23  4  0
  4 27  1  0
  4 30  4  0
  5 17  1  0
  6  8  1  0
  6 29  1  0
  7 24  4  0
  7 26  4  0
  8 28  1  0
  9 13  2  0
 10 18  1  0
 10 21  4  0
 10 30  4  0
 11 17  2  0
 12 18  1  0
 13 15  1  0
 14 24  1  0
 15 25  1  0
 16 28  2  0
 17 20  1  0
 19 24  4  0
 20 23  1  0
 21 22  4  0
 22 23  4  0
 25 26  4  0
 27 29  2  0
M  END
$$$$

 Created by Python create_sdf_string function

 30 33  0  0  0  0  0  0  0  0999 V2000
    8.3036    9.8571   18.4133 C   0  0  0  0  0  0  0  0  0  0  0  0
    8.3694    7.6612   22.6703 C   0  0  0  0  0  0  0  0  0  0  0  0
    8.4143    6.6863   16.2273 C   0  0  0  0  0  0  0  0  0  0  0  0
   10.7581    6.5674   21.7636 C   0  0  0  0  0  0  0  0  0  0  0  0
    8.4452    8.7960   19.2958 O   0  0  0  0  0  0  0  0  0  0  0  0
    8.7122    6.7842   24.8569 C   0  0  0  0  0  0  0  0  0  0  0  0
   10.3400    6.1726   14.3081 C   0  0  0  0  0  0  0  0  0  0  0  0
    7.4297    7.5873   24.8962 C   0  0  0  0  0  0  0  0  0  0  0  0
    8.1566   10.0536   16.0516 O   0  0  0  0  0  0  0  0  0  0  0  0
   12.4989    6.2074   20.1776 C   0  0  0  0  0  0  0  0  0  0  0  0
    6.9192    9.1053   20.9073 O   0  0  0  0  0  0  0  0  0  0  0  0
   14.3979    6.0729   18.7784 C   0  0  0  0  0  0  0  0  0  0  0  0
    8.6811    9.5354   16.9998 C   0  0  0  0  0  0  0  0  0  0  0  0
    9.2512    4.2713   13.7653 O   0  0  0  0  0  0  0  0  0  0  0  0
    9.6495    8.6317   16.8332 N   0  0  0  0  0  0  0  0  0  0  0  0
    6.2934    8.6988   23.1988 O   0  0  0  0  0  0  0  0  0  0  0  0
    7.9806    8.6543   20.5437 C   0  0  0  0  0  0  0  0  0  0  0  0
   13.7270    5.7144   19.8610 O   0  0  0  0  0  0  0  0  0  0  0  0
    8.3351    5.5235   15.4478 C   0  0  0  0  0  0  0  0  0  0  0  0
    8.7700    7.8434   21.3915 C   0  0  0  0  0  0  0  0  0  0  0  0
   11.7856    6.8851   19.2401 C   0  0  0  0  0  0  0  0  0  0  0  0
   10.5281    7.4276   19.5649 C   0  0  0  0  0  0  0  0  0  0  0  0
   10.0256    7.2907   20.8484 C   0  0  0  0  0  0  0  0  0  0  0  0
    9.3113    5.3049   14.4911 C   0  0  0  0  0  0  0  0  0  0  0  0
    9.4607    7.5646   16.0139 C   0  0  0  0  0  0  0  0  0  0  0  0
   10.4192    7.3157   15.0955 C   0  0  0  0  0  0  0  0  0  0  0  0
   10.2489    6.4227   23.0218 N   0  0  0  0  0  0  0  0  0  0  0  0
    7.2472    8.0746   23.5050 C   0  0  0  0  0  0  0  0  0  0  0  0
    9.2051    6.9101   23.4604 C   0  0  0  0  0  0  0  0  0  0  0  0
   11.9646    6.0299   21.4251 C   0  0  0  0  0  0  0  0  0  0  0  0
  1  5  1  0
  1 13  1  0
  2 20  2  0
  2 28  1  0
  2 29  1  0
  3 19  4  0
  3 25  4  0
  4 23  4  0
  4 27  1  0
  4 30  4  0
  5 17  1  0
  6  8  1  0
  6 29  1  0
  7 24  4  0
  7 26  4  0
  8 28  1  0
  9 13  2  0
 10 18  1  0
 10 21  4  0
 10 30  4  0
 11 17  2  0
 12 18  1  0
 13 15  1  0
 14 24  1  0
 15 25  1  0
 16 28  2  0
 17 20  1  0
 19 24  4  0
 20 23  1  0
 21 22  4  0
 22 23  4  0
 25 26  4  0
 27 29  2  0
M  END
$$$$

 Created by Python create_sdf_string function

 30 33  0  0  0  0  0  0  0  0999 V2000
    8.3036    9.8571   18.4133 C   0  0  0  0  0  0  0  0  0  0  0  0
    8.3694    7.6612   22.6703 C   0  0  0  0  0  0  0  0  0  0  0  0
    8.4143    6.6863   16.2273 C   0  0  0  0  0  0  0  0  0  0  0  0
   10.7581    6.5674   21.7636 C   0  0  0  0  0  0  0  0  0  0  0  0
    8.4452    8.7960   19.2958 O   0  0  0  0  0  0  0  0  0  0  0  0
    8.7122    6.7842   24.8569 C   0  0  0  0  0  0  0  0  0  0  0  0
   10.3400    6.1726   14.3081 C   0  0  0  0  0  0  0  0  0  0  0  0
    7.4297    7.5873   24.8962 C   0  0  0  0  0  0  0  0  0  0  0  0
    8.1566   10.0536   16.0516 O   0  0  0  0  0  0  0  0  0  0  0  0
   12.4989    6.2074   20.1776 C   0  0  0  0  0  0  0  0  0  0  0  0
    6.9192    9.1053   20.9073 O   0  0  0  0  0  0  0  0  0  0  0  0
   14.3979    6.0729   18.7784 C   0  0  0  0  0  0  0  0  0  0  0  0
    8.6811    9.5354   16.9998 C   0  0  0  0  0  0  0  0  0  0  0  0
    9.2512    4.2713   13.7653 O   0  0  0  0  0  0  0  0  0  0  0  0
    9.6495    8.6317   16.8332 N   0  0  0  0  0  0  0  0  0  0  0  0
    6.2934    8.6988   23.1988 O   0  0  0  0  0  0  0  0  0  0  0  0
    7.9806    8.6543   20.5437 C   0  0  0  0  0  0  0  0  0  0  0  0
   13.7270    5.7144   19.8610 O   0  0  0  0  0  0  0  0  0  0  0  0
    8.3351    5.5235   15.4478 C   0  0  0  0  0  0  0  0  0  0  0  0
    8.7700    7.8434   21.3915 C   0  0  0  0  0  0  0  0  0  0  0  0
   11.7856    6.8851   19.2401 C   0  0  0  0  0  0  0  0  0  0  0  0
   10.5281    7.4276   19.5649 C   0  0  0  0  0  0  0  0  0  0  0  0
   10.0256    7.2907   20.8484 C   0  0  0  0  0  0  0  0  0  0  0  0
    9.3113    5.3049   14.4911 C   0  0  0  0  0  0  0  0  0  0  0  0
    9.4607    7.5646   16.0139 C   0  0  0  0  0  0  0  0  0  0  0  0
   10.4192    7.3157   15.0955 C   0  0  0  0  0  0  0  0  0  0  0  0
   10.2489    6.4227   23.0218 N   0  0  0  0  0  0  0  0  0  0  0  0
    7.2472    8.0746   23.5050 C   0  0  0  0  0  0  0  0  0  0  0  0
    9.2051    6.9101   23.4604 C   0  0  0  0  0  0  0  0  0  0  0  0
   11.9646    6.0299   21.4251 C   0  0  0  0  0  0  0  0  0  0  0  0
  1  5  1  0
  1 13  1  0
  2 20  2  0
  2 28  1  0
  2 29  1  0
  3 19  4  0
  3 25  4  0
  4 23  4  0
  4 27  1  0
  4 30  4  0
  5 17  1  0
  6  8  1  0
  6 29  1  0
  7 24  4  0
  7 26  4  0
  8 28  1  0
  9 13  2  0
 10 18  1  0
 10 21  4  0
 10 30  4  0
 11 17  2  0
 12 18  1  0
 13 15  1  0
 14 24  1  0
 15 25  1  0
 16 28  2  0
 17 20  1  0
 19 24  4  0
 20 23  1  0
 21 22  4  0
 22 23  4  0
 25 26  4  0
 27 29  2  0
M  END
$$$$

 Created by Python create_sdf_string function

 30 33  0  0  0  0  0  0  0  0999 V2000
    8.3036    9.8571   18.4133 C   0  0  0  0  0  0  0  0  0  0  0  0
    8.3694    7.6612   22.6703 C   0  0  0  0  0  0  0  0  0  0  0  0
    8.4143    6.6863   16.2273 C   0  0  0  0  0  0  0  0  0  0  0  0
   10.7581    6.5674   21.7636 C   0  0  0  0  0  0  0  0  0  0  0  0
    8.4452    8.7960   19.2958 O   0  0  0  0  0  0  0  0  0  0  0  0
    8.7122    6.7842   24.8569 C   0  0  0  0  0  0  0  0  0  0  0  0
   10.3400    6.1726   14.3081 C   0  0  0  0  0  0  0  0  0  0  0  0
    7.4297    7.5873   24.8962 C   0  0  0  0  0  0  0  0  0  0  0  0
    8.1566   10.0536   16.0516 O   0  0  0  0  0  0  0  0  0  0  0  0
   12.4989    6.2074   20.1776 C   0  0  0  0  0  0  0  0  0  0  0  0
    6.9192    9.1053   20.9073 O   0  0  0  0  0  0  0  0  0  0  0  0
   14.3979    6.0729   18.7784 C   0  0  0  0  0  0  0  0  0  0  0  0
    8.6811    9.5354   16.9998 C   0  0  0  0  0  0  0  0  0  0  0  0
    9.2512    4.2713   13.7653 O   0  0  0  0  0  0  0  0  0  0  0  0
    9.6495    8.6317   16.8332 N   0  0  0  0  0  0  0  0  0  0  0  0
    6.2934    8.6988   23.1988 O   0  0  0  0  0  0  0  0  0  0  0  0
    7.9806    8.6543   20.5437 C   0  0  0  0  0  0  0  0  0  0  0  0
   13.7270    5.7144   19.8610 O   0  0  0  0  0  0  0  0  0  0  0  0
    8.3351    5.5235   15.4478 C   0  0  0  0  0  0  0  0  0  0  0  0
    8.7700    7.8434   21.3915 C   0  0  0  0  0  0  0  0  0  0  0  0
   11.7856    6.8851   19.2401 C   0  0  0  0  0  0  0  0  0  0  0  0
   10.5281    7.4276   19.5649 C   0  0  0  0  0  0  0  0  0  0  0  0
   10.0256    7.2907   20.8484 C   0  0  0  0  0  0  0  0  0  0  0  0
    9.3113    5.3049   14.4911 C   0  0  0  0  0  0  0  0  0  0  0  0
    9.4607    7.5646   16.0139 C   0  0  0  0  0  0  0  0  0  0  0  0
   10.4192    7.3157   15.0955 C   0  0  0  0  0  0  0  0  0  0  0  0
   10.2489    6.4227   23.0218 N   0  0  0  0  0  0  0  0  0  0  0  0
    7.2472    8.0746   23.5050 C   0  0  0  0  0  0  0  0  0  0  0  0
    9.2051    6.9101   23.4604 C   0  0  0  0  0  0  0  0  0  0  0  0
   11.9646    6.0299   21.4251 C   0  0  0  0  0  0  0  0  0  0  0  0
  1  5  1  0
  1 13  1  0
  2 20  2  0
  2 28  1  0
  2 29  1  0
  3 19  4  0
  3 25  4  0
  4 23  4  0
  4 27  1  0
  4 30  4  0
  5 17  1  0
  6  8  1  0
  6 29  1  0
  7 24  4  0
  7 26  4  0
  8 28  1  0
  9 13  2  0
 10 18  1  0
 10 21  4  0
 10 30  4  0
 11 17  2  0
 12 18  1  0
 13 15  1  0
 14 24  1  0
 15 25  1  0
 16 28  2  0
 17 20  1  0
 19 24  4  0
 20 23  1  0
 21 22  4  0
 22 23  4  0
 25 26  4  0
 27 29  2  0
M  END
$$$$

 Created by Python create_sdf_string function

 30 33  0  0  0  0  0  0  0  0999 V2000
    8.3036    9.8571   18.4133 C   0  0  0  0  0  0  0  0  0  0  0  0
    8.3694    7.6612   22.6703 C   0  0  0  0  0  0  0  0  0  0  0  0
    8.4143    6.6863   16.2273 C   0  0  0  0  0  0  0  0  0  0  0  0
   10.7581    6.5674   21.7636 C   0  0  0  0  0  0  0  0  0  0  0  0
    8.4452    8.7960   19.2958 O   0  0  0  0  0  0  0  0  0  0  0  0
    8.7122    6.7842   24.8569 C   0  0  0  0  0  0  0  0  0  0  0  0
   10.3400    6.1726   14.3081 C   0  0  0  0  0  0  0  0  0  0  0  0
    7.4297    7.5873   24.8962 C   0  0  0  0  0  0  0  0  0  0  0  0
    8.1566   10.0536   16.0516 O   0  0  0  0  0  0  0  0  0  0  0  0
   12.4989    6.2074   20.1776 C   0  0  0  0  0  0  0  0  0  0  0  0
    6.9192    9.1053   20.9073 O   0  0  0  0  0  0  0  0  0  0  0  0
   14.3979    6.0729   18.7784 C   0  0  0  0  0  0  0  0  0  0  0  0
    8.6811    9.5354   16.9998 C   0  0  0  0  0  0  0  0  0  0  0  0
    9.2512    4.2713   13.7653 O   0  0  0  0  0  0  0  0  0  0  0  0
    9.6495    8.6317   16.8332 N   0  0  0  0  0  0  0  0  0  0  0  0
    6.2934    8.6988   23.1988 O   0  0  0  0  0  0  0  0  0  0  0  0
    7.9806    8.6543   20.5437 C   0  0  0  0  0  0  0  0  0  0  0  0
   13.7270    5.7144   19.8610 O   0  0  0  0  0  0  0  0  0  0  0  0
    8.3351    5.5235   15.4478 C   0  0  0  0  0  0  0  0  0  0  0  0
    8.7700    7.8434   21.3915 C   0  0  0  0  0  0  0  0  0  0  0  0
   11.7856    6.8851   19.2401 C   0  0  0  0  0  0  0  0  0  0  0  0
   10.5281    7.4276   19.5649 C   0  0  0  0  0  0  0  0  0  0  0  0
   10.0256    7.2907   20.8484 C   0  0  0  0  0  0  0  0  0  0  0  0
    9.3113    5.3049   14.4911 C   0  0  0  0  0  0  0  0  0  0  0  0
    9.4607    7.5646   16.0139 C   0  0  0  0  0  0  0  0  0  0  0  0
   10.4192    7.3157   15.0955 C   0  0  0  0  0  0  0  0  0  0  0  0
   10.2489    6.4227   23.0218 N   0  0  0  0  0  0  0  0  0  0  0  0
    7.2472    8.0746   23.5050 C   0  0  0  0  0  0  0  0  0  0  0  0
    9.2051    6.9101   23.4604 C   0  0  0  0  0  0  0  0  0  0  0  0
   11.9646    6.0299   21.4251 C   0  0  0  0  0  0  0  0  0  0  0  0
  1  5  1  0
  1 13  1  0
  2 20  2  0
  2 28  1  0
  2 29  1  0
  3 19  4  0
  3 25  4  0
  4 23  4  0
  4 27  1  0
  4 30  4  0
  5 17  1  0
  6  8  1  0
  6 29  1  0
  7 24  4  0
  7 26  4  0
  8 28  1  0
  9 13  2  0
 10 18  1  0
 10 21  4  0
 10 30  4  0
 11 17  2  0
 12 18  1  0
 13 15  1  0
 14 24  1  0
 15 25  1  0
 16 28  2  0
 17 20  1  0
 19 24  4  0
 20 23  1  0
 21 22  4  0
 22 23  4  0
 25 26  4  0
 27 29  2  0
M  END
$$$$

 Created by Python create_sdf_string function

 30 33  0  0  0  0  0  0  0  0999 V2000
    8.3036    9.8571   18.4133 C   0  0  0  0  0  0  0  0  0  0  0  0
    8.3694    7.6612   22.6703 C   0  0  0  0  0  0  0  0  0  0  0  0
    8.4143    6.6863   16.2273 C   0  0  0  0  0  0  0  0  0  0  0  0
   10.7581    6.5674   21.7636 C   0  0  0  0  0  0  0  0  0  0  0  0
    8.4452    8.7960   19.2958 O   0  0  0  0  0  0  0  0  0  0  0  0
    8.7122    6.7842   24.8569 C   0  0  0  0  0  0  0  0  0  0  0  0
   10.3400    6.1726   14.3081 C   0  0  0  0  0  0  0  0  0  0  0  0
    7.4297    7.5873   24.8962 C   0  0  0  0  0  0  0  0  0  0  0  0
    8.1566   10.0536   16.0516 O   0  0  0  0  0  0  0  0  0  0  0  0
   12.4989    6.2074   20.1776 C   0  0  0  0  0  0  0  0  0  0  0  0
    6.9192    9.1053   20.9073 O   0  0  0  0  0  0  0  0  0  0  0  0
   14.3979    6.0729   18.7784 C   0  0  0  0  0  0  0  0  0  0  0  0
    8.6811    9.5354   16.9998 C   0  0  0  0  0  0  0  0  0  0  0  0
    9.2512    4.2713   13.7653 O   0  0  0  0  0  0  0  0  0  0  0  0
    9.6495    8.6317   16.8332 N   0  0  0  0  0  0  0  0  0  0  0  0
    6.2934    8.6988   23.1988 O   0  0  0  0  0  0  0  0  0  0  0  0
    7.9806    8.6543   20.5437 C   0  0  0  0  0  0  0  0  0  0  0  0
   13.7270    5.7144   19.8610 O   0  0  0  0  0  0  0  0  0  0  0  0
    8.3351    5.5235   15.4478 C   0  0  0  0  0  0  0  0  0  0  0  0
    8.7700    7.8434   21.3915 C   0  0  0  0  0  0  0  0  0  0  0  0
   11.7856    6.8851   19.2401 C   0  0  0  0  0  0  0  0  0  0  0  0
   10.5281    7.4276   19.5649 C   0  0  0  0  0  0  0  0  0  0  0  0
   10.0256    7.2907   20.8484 C   0  0  0  0  0  0  0  0  0  0  0  0
    9.3113    5.3049   14.4911 C   0  0  0  0  0  0  0  0  0  0  0  0
    9.4607    7.5646   16.0139 C   0  0  0  0  0  0  0  0  0  0  0  0
   10.4192    7.3157   15.0955 C   0  0  0  0  0  0  0  0  0  0  0  0
   10.2489    6.4227   23.0218 N   0  0  0  0  0  0  0  0  0  0  0  0
    7.2472    8.0746   23.5050 C   0  0  0  0  0  0  0  0  0  0  0  0
    9.2051    6.9101   23.4604 C   0  0  0  0  0  0  0  0  0  0  0  0
   11.9646    6.0299   21.4251 C   0  0  0  0  0  0  0  0  0  0  0  0
  1  5  1  0
  1 13  1  0
  2 20  2  0
  2 28  1  0
  2 29  1  0
  3 19  4  0
  3 25  4  0
  4 23  4  0
  4 27  1  0
  4 30  4  0
  5 17  1  0
  6  8  1  0
  6 29  1  0
  7 24  4  0
  7 26  4  0
  8 28  1  0
  9 13  2  0
 10 18  1  0
 10 21  4  0
 10 30  4  0
 11 17  2  0
 12 18  1  0
 13 15  1  0
 14 24  1  0
 15 25  1  0
 16 28  2  0
 17 20  1  0
 19 24  4  0
 20 23  1  0
 21 22  4  0
 22 23  4  0
 25 26  4  0
 27 29  2  0
M  END
$$$$

 Created by Python create_sdf_string function

 30 33  0  0  0  0  0  0  0  0999 V2000
    8.3036    9.8571   18.4133 C   0  0  0  0  0  0  0  0  0  0  0  0
    8.3694    7.6612   22.6703 C   0  0  0  0  0  0  0  0  0  0  0  0
    8.4143    6.6863   16.2273 C   0  0  0  0  0  0  0  0  0  0  0  0
   10.7581    6.5674   21.7636 C   0  0  0  0  0  0  0  0  0  0  0  0
    8.4452    8.7960   19.2958 O   0  0  0  0  0  0  0  0  0  0  0  0
    8.7122    6.7842   24.8569 C   0  0  0  0  0  0  0  0  0  0  0  0
   10.3400    6.1726   14.3081 C   0  0  0  0  0  0  0  0  0  0  0  0
    7.4297    7.5873   24.8962 C   0  0  0  0  0  0  0  0  0  0  0  0
    8.1566   10.0536   16.0516 O   0  0  0  0  0  0  0  0  0  0  0  0
   12.4989    6.2074   20.1776 C   0  0  0  0  0  0  0  0  0  0  0  0
    6.9192    9.1053   20.9073 O   0  0  0  0  0  0  0  0  0  0  0  0
   14.3979    6.0729   18.7784 C   0  0  0  0  0  0  0  0  0  0  0  0
    8.6811    9.5354   16.9998 C   0  0  0  0  0  0  0  0  0  0  0  0
    9.2512    4.2713   13.7653 O   0  0  0  0  0  0  0  0  0  0  0  0
    9.6495    8.6317   16.8332 N   0  0  0  0  0  0  0  0  0  0  0  0
    6.2934    8.6988   23.1988 O   0  0  0  0  0  0  0  0  0  0  0  0
    7.9806    8.6543   20.5437 C   0  0  0  0  0  0  0  0  0  0  0  0
   13.7270    5.7144   19.8610 O   0  0  0  0  0  0  0  0  0  0  0  0
    8.3351    5.5235   15.4478 C   0  0  0  0  0  0  0  0  0  0  0  0
    8.7700    7.8434   21.3915 C   0  0  0  0  0  0  0  0  0  0  0  0
   11.7856    6.8851   19.2401 C   0  0  0  0  0  0  0  0  0  0  0  0
   10.5281    7.4276   19.5649 C   0  0  0  0  0  0  0  0  0  0  0  0
   10.0256    7.2907   20.8484 C   0  0  0  0  0  0  0  0  0  0  0  0
    9.3113    5.3049   14.4911 C   0  0  0  0  0  0  0  0  0  0  0  0
    9.4607    7.5646   16.0139 C   0  0  0  0  0  0  0  0  0  0  0  0
   10.4192    7.3157   15.0955 C   0  0  0  0  0  0  0  0  0  0  0  0
   10.2489    6.4227   23.0218 N   0  0  0  0  0  0  0  0  0  0  0  0
    7.2472    8.0746   23.5050 C   0  0  0  0  0  0  0  0  0  0  0  0
    9.2051    6.9101   23.4604 C   0  0  0  0  0  0  0  0  0  0  0  0
   11.9646    6.0299   21.4251 C   0  0  0  0  0  0  0  0  0  0  0  0
  1  5  1  0
  1 13  1  0
  2 20  2  0
  2 28  1  0
  2 29  1  0
  3 19  4  0
  3 25  4  0
  4 23  4  0
  4 27  1  0
  4 30  4  0
  5 17  1  0
  6  8  1  0
  6 29  1  0
  7 24  4  0
  7 26  4  0
  8 28  1  0
  9 13  2  0
 10 18  1  0
 10 21  4  0
 10 30  4  0
 11 17  2  0
 12 18  1  0
 13 15  1  0
 14 24  1  0
 15 25  1  0
 16 28  2  0
 17 20  1  0
 19 24  4  0
 20 23  1  0
 21 22  4  0
 22 23  4  0
 25 26  4  0
 27 29  2  0
M  END
$$$$

 Created by Python create_sdf_string function

 30 33  0  0  0  0  0  0  0  0999 V2000
    8.3036    9.8571   18.4133 C   0  0  0  0  0  0  0  0  0  0  0  0
    8.3694    7.6612   22.6703 C   0  0  0  0  0  0  0  0  0  0  0  0
    8.4143    6.6863   16.2273 C   0  0  0  0  0  0  0  0  0  0  0  0
   10.7581    6.5674   21.7636 C   0  0  0  0  0  0  0  0  0  0  0  0
    8.4452    8.7960   19.2958 O   0  0  0  0  0  0  0  0  0  0  0  0
    8.7122    6.7842   24.8569 C   0  0  0  0  0  0  0  0  0  0  0  0
   10.3400    6.1726   14.3081 C   0  0  0  0  0  0  0  0  0  0  0  0
    7.4297    7.5873   24.8962 C   0  0  0  0  0  0  0  0  0  0  0  0
    8.1566   10.0536   16.0516 O   0  0  0  0  0  0  0  0  0  0  0  0
   12.4989    6.2074   20.1776 C   0  0  0  0  0  0  0  0  0  0  0  0
    6.9192    9.1053   20.9073 O   0  0  0  0  0  0  0  0  0  0  0  0
   14.3979    6.0729   18.7784 C   0  0  0  0  0  0  0  0  0  0  0  0
    8.6811    9.5354   16.9998 C   0  0  0  0  0  0  0  0  0  0  0  0
    9.2512    4.2713   13.7653 O   0  0  0  0  0  0  0  0  0  0  0  0
    9.6495    8.6317   16.8332 N   0  0  0  0  0  0  0  0  0  0  0  0
    6.2934    8.6988   23.1988 O   0  0  0  0  0  0  0  0  0  0  0  0
    7.9806    8.6543   20.5437 C   0  0  0  0  0  0  0  0  0  0  0  0
   13.7270    5.7144   19.8610 O   0  0  0  0  0  0  0  0  0  0  0  0
    8.3351    5.5235   15.4478 C   0  0  0  0  0  0  0  0  0  0  0  0
    8.7700    7.8434   21.3915 C   0  0  0  0  0  0  0  0  0  0  0  0
   11.7856    6.8851   19.2401 C   0  0  0  0  0  0  0  0  0  0  0  0
   10.5281    7.4276   19.5649 C   0  0  0  0  0  0  0  0  0  0  0  0
   10.0256    7.2907   20.8484 C   0  0  0  0  0  0  0  0  0  0  0  0
    9.3113    5.3049   14.4911 C   0  0  0  0  0  0  0  0  0  0  0  0
    9.4607    7.5646   16.0139 C   0  0  0  0  0  0  0  0  0  0  0  0
   10.4192    7.3157   15.0955 C   0  0  0  0  0  0  0  0  0  0  0  0
   10.2489    6.4227   23.0218 N   0  0  0  0  0  0  0  0  0  0  0  0
    7.2472    8.0746   23.5050 C   0  0  0  0  0  0  0  0  0  0  0  0
    9.2051    6.9101   23.4604 C   0  0  0  0  0  0  0  0  0  0  0  0
   11.9646    6.0299   21.4251 C   0  0  0  0  0  0  0  0  0  0  0  0
  1  5  1  0
  1 13  1  0
  2 20  2  0
  2 28  1  0
  2 29  1  0
  3 19  4  0
  3 25  4  0
  4 23  4  0
  4 27  1  0
  4 30  4  0
  5 17  1  0
  6  8  1  0
  6 29  1  0
  7 24  4  0
  7 26  4  0
  8 28  1  0
  9 13  2  0
 10 18  1  0
 10 21  4  0
 10 30  4  0
 11 17  2  0
 12 18  1  0
 13 15  1  0
 14 24  1  0
 15 25  1  0
 16 28  2  0
 17 20  1  0
 19 24  4  0
 20 23  1  0
 21 22  4  0
 22 23  4  0
 25 26  4  0
 27 29  2  0
M  END
$$$$

 Created by Python create_sdf_string function

 30 33  0  0  0  0  0  0  0  0999 V2000
    8.3036    9.8571   18.4133 C   0  0  0  0  0  0  0  0  0  0  0  0
    8.3694    7.6612   22.6703 C   0  0  0  0  0  0  0  0  0  0  0  0
    8.4143    6.6863   16.2273 C   0  0  0  0  0  0  0  0  0  0  0  0
   10.7581    6.5674   21.7636 C   0  0  0  0  0  0  0  0  0  0  0  0
    8.4452    8.7960   19.2958 O   0  0  0  0  0  0  0  0  0  0  0  0
    8.7122    6.7842   24.8569 C   0  0  0  0  0  0  0  0  0  0  0  0
   10.3400    6.1726   14.3081 C   0  0  0  0  0  0  0  0  0  0  0  0
    7.4297    7.5873   24.8962 C   0  0  0  0  0  0  0  0  0  0  0  0
    8.1566   10.0536   16.0516 O   0  0  0  0  0  0  0  0  0  0  0  0
   12.4989    6.2074   20.1776 C   0  0  0  0  0  0  0  0  0  0  0  0
    6.9192    9.1053   20.9073 O   0  0  0  0  0  0  0  0  0  0  0  0
   14.3979    6.0729   18.7784 C   0  0  0  0  0  0  0  0  0  0  0  0
    8.6811    9.5354   16.9998 C   0  0  0  0  0  0  0  0  0  0  0  0
    9.2512    4.2713   13.7653 O   0  0  0  0  0  0  0  0  0  0  0  0
    9.6495    8.6317   16.8332 N   0  0  0  0  0  0  0  0  0  0  0  0
    6.2934    8.6988   23.1988 O   0  0  0  0  0  0  0  0  0  0  0  0
    7.9806    8.6543   20.5437 C   0  0  0  0  0  0  0  0  0  0  0  0
   13.7270    5.7144   19.8610 O   0  0  0  0  0  0  0  0  0  0  0  0
    8.3351    5.5235   15.4478 C   0  0  0  0  0  0  0  0  0  0  0  0
    8.7700    7.8434   21.3915 C   0  0  0  0  0  0  0  0  0  0  0  0
   11.7856    6.8851   19.2401 C   0  0  0  0  0  0  0  0  0  0  0  0
   10.5281    7.4276   19.5649 C   0  0  0  0  0  0  0  0  0  0  0  0
   10.0256    7.2907   20.8484 C   0  0  0  0  0  0  0  0  0  0  0  0
    9.3113    5.3049   14.4911 C   0  0  0  0  0  0  0  0  0  0  0  0
    9.4607    7.5646   16.0139 C   0  0  0  0  0  0  0  0  0  0  0  0
   10.4192    7.3157   15.0955 C   0  0  0  0  0  0  0  0  0  0  0  0
   10.2489    6.4227   23.0218 N   0  0  0  0  0  0  0  0  0  0  0  0
    7.2472    8.0746   23.5050 C   0  0  0  0  0  0  0  0  0  0  0  0
    9.2051    6.9101   23.4604 C   0  0  0  0  0  0  0  0  0  0  0  0
   11.9646    6.0299   21.4251 C   0  0  0  0  0  0  0  0  0  0  0  0
  1  5  1  0
  1 13  1  0
  2 20  2  0
  2 28  1  0
  2 29  1  0
  3 19  4  0
  3 25  4  0
  4 23  4  0
  4 27  1  0
  4 30  4  0
  5 17  1  0
  6  8  1  0
  6 29  1  0
  7 24  4  0
  7 26  4  0
  8 28  1  0
  9 13  2  0
 10 18  1  0
 10 21  4  0
 10 30  4  0
 11 17  2  0
 12 18  1  0
 13 15  1  0
 14 24  1  0
 15 25  1  0
 16 28  2  0
 17 20  1  0
 19 24  4  0
 20 23  1  0
 21 22  4  0
 22 23  4  0
 25 26  4  0
 27 29  2  0
M  END
$$$$

 Created by Python create_sdf_string function

 30 33  0  0  0  0  0  0  0  0999 V2000
    8.3036    9.8571   18.4133 C   0  0  0  0  0  0  0  0  0  0  0  0
    8.3694    7.6612   22.6703 C   0  0  0  0  0  0  0  0  0  0  0  0
    8.4143    6.6863   16.2273 C   0  0  0  0  0  0  0  0  0  0  0  0
   10.7581    6.5674   21.7636 C   0  0  0  0  0  0  0  0  0  0  0  0
    8.4452    8.7960   19.2958 O   0  0  0  0  0  0  0  0  0  0  0  0
    8.7122    6.7842   24.8569 C   0  0  0  0  0  0  0  0  0  0  0  0
   10.3400    6.1726   14.3081 C   0  0  0  0  0  0  0  0  0  0  0  0
    7.4297    7.5873   24.8962 C   0  0  0  0  0  0  0  0  0  0  0  0
    8.1566   10.0536   16.0516 O   0  0  0  0  0  0  0  0  0  0  0  0
   12.4989    6.2074   20.1776 C   0  0  0  0  0  0  0  0  0  0  0  0
    6.9192    9.1053   20.9073 O   0  0  0  0  0  0  0  0  0  0  0  0
   14.3979    6.0729   18.7784 C   0  0  0  0  0  0  0  0  0  0  0  0
    8.6811    9.5354   16.9998 C   0  0  0  0  0  0  0  0  0  0  0  0
    9.2512    4.2713   13.7653 O   0  0  0  0  0  0  0  0  0  0  0  0
    9.6495    8.6317   16.8332 N   0  0  0  0  0  0  0  0  0  0  0  0
    6.2934    8.6988   23.1988 O   0  0  0  0  0  0  0  0  0  0  0  0
    7.9806    8.6543   20.5437 C   0  0  0  0  0  0  0  0  0  0  0  0
   13.7270    5.7144   19.8610 O   0  0  0  0  0  0  0  0  0  0  0  0
    8.3351    5.5235   15.4478 C   0  0  0  0  0  0  0  0  0  0  0  0
    8.7700    7.8434   21.3915 C   0  0  0  0  0  0  0  0  0  0  0  0
   11.7856    6.8851   19.2401 C   0  0  0  0  0  0  0  0  0  0  0  0
   10.5281    7.4276   19.5649 C   0  0  0  0  0  0  0  0  0  0  0  0
   10.0256    7.2907   20.8484 C   0  0  0  0  0  0  0  0  0  0  0  0
    9.3113    5.3049   14.4911 C   0  0  0  0  0  0  0  0  0  0  0  0
    9.4607    7.5646   16.0139 C   0  0  0  0  0  0  0  0  0  0  0  0
   10.4192    7.3157   15.0955 C   0  0  0  0  0  0  0  0  0  0  0  0
   10.2489    6.4227   23.0218 N   0  0  0  0  0  0  0  0  0  0  0  0
    7.2472    8.0746   23.5050 C   0  0  0  0  0  0  0  0  0  0  0  0
    9.2051    6.9101   23.4604 C   0  0  0  0  0  0  0  0  0  0  0  0
   11.9646    6.0299   21.4251 C   0  0  0  0  0  0  0  0  0  0  0  0
  1  5  1  0
  1 13  1  0
  2 20  2  0
  2 28  1  0
  2 29  1  0
  3 19  4  0
  3 25  4  0
  4 23  4  0
  4 27  1  0
  4 30  4  0
  5 17  1  0
  6  8  1  0
  6 29  1  0
  7 24  4  0
  7 26  4  0
  8 28  1  0
  9 13  2  0
 10 18  1  0
 10 21  4  0
 10 30  4  0
 11 17  2  0
 12 18  1  0
 13 15  1  0
 14 24  1  0
 15 25  1  0
 16 28  2  0
 17 20  1  0
 19 24  4  0
 20 23  1  0
 21 22  4  0
 22 23  4  0
 25 26  4  0
 27 29  2  0
M  END
$$$$

 Created by Python create_sdf_string function

 30 33  0  0  0  0  0  0  0  0999 V2000
    8.3036    9.8571   18.4133 C   0  0  0  0  0  0  0  0  0  0  0  0
    8.3694    7.6612   22.6703 C   0  0  0  0  0  0  0  0  0  0  0  0
    8.4143    6.6863   16.2273 C   0  0  0  0  0  0  0  0  0  0  0  0
   10.7581    6.5674   21.7636 C   0  0  0  0  0  0  0  0  0  0  0  0
    8.4452    8.7960   19.2958 O   0  0  0  0  0  0  0  0  0  0  0  0
    8.7122    6.7842   24.8569 C   0  0  0  0  0  0  0  0  0  0  0  0
   10.3400    6.1726   14.3081 C   0  0  0  0  0  0  0  0  0  0  0  0
    7.4297    7.5873   24.8962 C   0  0  0  0  0  0  0  0  0  0  0  0
    8.1566   10.0536   16.0516 O   0  0  0  0  0  0  0  0  0  0  0  0
   12.4989    6.2074   20.1776 C   0  0  0  0  0  0  0  0  0  0  0  0
    6.9192    9.1053   20.9073 O   0  0  0  0  0  0  0  0  0  0  0  0
   14.3979    6.0729   18.7784 C   0  0  0  0  0  0  0  0  0  0  0  0
    8.6811    9.5354   16.9998 C   0  0  0  0  0  0  0  0  0  0  0  0
    9.2512    4.2713   13.7653 O   0  0  0  0  0  0  0  0  0  0  0  0
    9.6495    8.6317   16.8332 N   0  0  0  0  0  0  0  0  0  0  0  0
    6.2934    8.6988   23.1988 O   0  0  0  0  0  0  0  0  0  0  0  0
    7.9806    8.6543   20.5437 C   0  0  0  0  0  0  0  0  0  0  0  0
   13.7270    5.7144   19.8610 O   0  0  0  0  0  0  0  0  0  0  0  0
    8.3351    5.5235   15.4478 C   0  0  0  0  0  0  0  0  0  0  0  0
    8.7700    7.8434   21.3915 C   0  0  0  0  0  0  0  0  0  0  0  0
   11.7856    6.8851   19.2401 C   0  0  0  0  0  0  0  0  0  0  0  0
   10.5281    7.4276   19.5649 C   0  0  0  0  0  0  0  0  0  0  0  0
   10.0256    7.2907   20.8484 C   0  0  0  0  0  0  0  0  0  0  0  0
    9.3113    5.3049   14.4911 C   0  0  0  0  0  0  0  0  0  0  0  0
    9.4607    7.5646   16.0139 C   0  0  0  0  0  0  0  0  0  0  0  0
   10.4192    7.3157   15.0955 C   0  0  0  0  0  0  0  0  0  0  0  0
   10.2489    6.4227   23.0218 N   0  0  0  0  0  0  0  0  0  0  0  0
    7.2472    8.0746   23.5050 C   0  0  0  0  0  0  0  0  0  0  0  0
    9.2051    6.9101   23.4604 C   0  0  0  0  0  0  0  0  0  0  0  0
   11.9646    6.0299   21.4251 C   0  0  0  0  0  0  0  0  0  0  0  0
  1  5  1  0
  1 13  1  0
  2 20  2  0
  2 28  1  0
  2 29  1  0
  3 19  4  0
  3 25  4  0
  4 23  4  0
  4 27  1  0
  4 30  4  0
  5 17  1  0
  6  8  1  0
  6 29  1  0
  7 24  4  0
  7 26  4  0
  8 28  1  0
  9 13  2  0
 10 18  1  0
 10 21  4  0
 10 30  4  0
 11 17  2  0
 12 18  1  0
 13 15  1  0
 14 24  1  0
 15 25  1  0
 16 28  2  0
 17 20  1  0
 19 24  4  0
 20 23  1  0
 21 22  4  0
 22 23  4  0
 25 26  4  0
 27 29  2  0
M  END
$$$$

 Created by Python create_sdf_string function

 30 33  0  0  0  0  0  0  0  0999 V2000
    8.3036    9.8571   18.4133 C   0  0  0  0  0  0  0  0  0  0  0  0
    8.3694    7.6612   22.6703 C   0  0  0  0  0  0  0  0  0  0  0  0
    8.4143    6.6863   16.2273 C   0  0  0  0  0  0  0  0  0  0  0  0
   10.7581    6.5674   21.7636 C   0  0  0  0  0  0  0  0  0  0  0  0
    8.4452    8.7960   19.2958 O   0  0  0  0  0  0  0  0  0  0  0  0
    8.7122    6.7842   24.8569 C   0  0  0  0  0  0  0  0  0  0  0  0
   10.3400    6.1726   14.3081 C   0  0  0  0  0  0  0  0  0  0  0  0
    7.4297    7.5873   24.8962 C   0  0  0  0  0  0  0  0  0  0  0  0
    8.1566   10.0536   16.0516 O   0  0  0  0  0  0  0  0  0  0  0  0
   12.4989    6.2074   20.1776 C   0  0  0  0  0  0  0  0  0  0  0  0
    6.9192    9.1053   20.9073 O   0  0  0  0  0  0  0  0  0  0  0  0
   14.3979    6.0729   18.7784 C   0  0  0  0  0  0  0  0  0  0  0  0
    8.6811    9.5354   16.9998 C   0  0  0  0  0  0  0  0  0  0  0  0
    9.2512    4.2713   13.7653 O   0  0  0  0  0  0  0  0  0  0  0  0
    9.6495    8.6317   16.8332 N   0  0  0  0  0  0  0  0  0  0  0  0
    6.2934    8.6988   23.1988 O   0  0  0  0  0  0  0  0  0  0  0  0
    7.9806    8.6543   20.5437 C   0  0  0  0  0  0  0  0  0  0  0  0
   13.7270    5.7144   19.8610 O   0  0  0  0  0  0  0  0  0  0  0  0
    8.3351    5.5235   15.4478 C   0  0  0  0  0  0  0  0  0  0  0  0
    8.7700    7.8434   21.3915 C   0  0  0  0  0  0  0  0  0  0  0  0
   11.7856    6.8851   19.2401 C   0  0  0  0  0  0  0  0  0  0  0  0
   10.5281    7.4276   19.5649 C   0  0  0  0  0  0  0  0  0  0  0  0
   10.0256    7.2907   20.8484 C   0  0  0  0  0  0  0  0  0  0  0  0
    9.3113    5.3049   14.4911 C   0  0  0  0  0  0  0  0  0  0  0  0
    9.4607    7.5646   16.0139 C   0  0  0  0  0  0  0  0  0  0  0  0
   10.4192    7.3157   15.0955 C   0  0  0  0  0  0  0  0  0  0  0  0
   10.2489    6.4227   23.0218 N   0  0  0  0  0  0  0  0  0  0  0  0
    7.2472    8.0746   23.5050 C   0  0  0  0  0  0  0  0  0  0  0  0
    9.2051    6.9101   23.4604 C   0  0  0  0  0  0  0  0  0  0  0  0
   11.9646    6.0299   21.4251 C   0  0  0  0  0  0  0  0  0  0  0  0
  1  5  1  0
  1 13  1  0
  2 20  2  0
  2 28  1  0
  2 29  1  0
  3 19  4  0
  3 25  4  0
  4 23  4  0
  4 27  1  0
  4 30  4  0
  5 17  1  0
  6  8  1  0
  6 29  1  0
  7 24  4  0
  7 26  4  0
  8 28  1  0
  9 13  2  0
 10 18  1  0
 10 21  4  0
 10 30  4  0
 11 17  2  0
 12 18  1  0
 13 15  1  0
 14 24  1  0
 15 25  1  0
 16 28  2  0
 17 20  1  0
 19 24  4  0
 20 23  1  0
 21 22  4  0
 22 23  4  0
 25 26  4  0
 27 29  2  0
M  END
$$$$

 Created by Python create_sdf_string function

 30 33  0  0  0  0  0  0  0  0999 V2000
    8.3036    9.8571   18.4133 C   0  0  0  0  0  0  0  0  0  0  0  0
    8.3694    7.6612   22.6703 C   0  0  0  0  0  0  0  0  0  0  0  0
    8.4143    6.6863   16.2273 C   0  0  0  0  0  0  0  0  0  0  0  0
   10.7581    6.5674   21.7636 C   0  0  0  0  0  0  0  0  0  0  0  0
    8.4452    8.7960   19.2958 O   0  0  0  0  0  0  0  0  0  0  0  0
    8.7122    6.7842   24.8569 C   0  0  0  0  0  0  0  0  0  0  0  0
   10.3400    6.1726   14.3081 C   0  0  0  0  0  0  0  0  0  0  0  0
    7.4297    7.5873   24.8962 C   0  0  0  0  0  0  0  0  0  0  0  0
    8.1566   10.0536   16.0516 O   0  0  0  0  0  0  0  0  0  0  0  0
   12.4989    6.2074   20.1776 C   0  0  0  0  0  0  0  0  0  0  0  0
    6.9192    9.1053   20.9073 O   0  0  0  0  0  0  0  0  0  0  0  0
   14.3979    6.0729   18.7784 C   0  0  0  0  0  0  0  0  0  0  0  0
    8.6811    9.5354   16.9998 C   0  0  0  0  0  0  0  0  0  0  0  0
    9.2512    4.2713   13.7653 O   0  0  0  0  0  0  0  0  0  0  0  0
    9.6495    8.6317   16.8332 N   0  0  0  0  0  0  0  0  0  0  0  0
    6.2934    8.6988   23.1988 O   0  0  0  0  0  0  0  0  0  0  0  0
    7.9806    8.6543   20.5437 C   0  0  0  0  0  0  0  0  0  0  0  0
   13.7270    5.7144   19.8610 O   0  0  0  0  0  0  0  0  0  0  0  0
    8.3351    5.5235   15.4478 C   0  0  0  0  0  0  0  0  0  0  0  0
    8.7700    7.8434   21.3915 C   0  0  0  0  0  0  0  0  0  0  0  0
   11.7856    6.8851   19.2401 C   0  0  0  0  0  0  0  0  0  0  0  0
   10.5281    7.4276   19.5649 C   0  0  0  0  0  0  0  0  0  0  0  0
   10.0256    7.2907   20.8484 C   0  0  0  0  0  0  0  0  0  0  0  0
    9.3113    5.3049   14.4911 C   0  0  0  0  0  0  0  0  0  0  0  0
    9.4607    7.5646   16.0139 C   0  0  0  0  0  0  0  0  0  0  0  0
   10.4192    7.3157   15.0955 C   0  0  0  0  0  0  0  0  0  0  0  0
   10.2489    6.4227   23.0218 N   0  0  0  0  0  0  0  0  0  0  0  0
    7.2472    8.0746   23.5050 C   0  0  0  0  0  0  0  0  0  0  0  0
    9.2051    6.9101   23.4604 C   0  0  0  0  0  0  0  0  0  0  0  0
   11.9646    6.0299   21.4251 C   0  0  0  0  0  0  0  0  0  0  0  0
  1  5  1  0
  1 13  1  0
  2 20  2  0
  2 28  1  0
  2 29  1  0
  3 19  4  0
  3 25  4  0
  4 23  4  0
  4 27  1  0
  4 30  4  0
  5 17  1  0
  6  8  1  0
  6 29  1  0
  7 24  4  0
  7 26  4  0
  8 28  1  0
  9 13  2  0
 10 18  1  0
 10 21  4  0
 10 30  4  0
 11 17  2  0
 12 18  1  0
 13 15  1  0
 14 24  1  0
 15 25  1  0
 16 28  2  0
 17 20  1  0
 19 24  4  0
 20 23  1  0
 21 22  4  0
 22 23  4  0
 25 26  4  0
 27 29  2  0
M  END
$$$$

 Created by Python create_sdf_string function

 30 33  0  0  0  0  0  0  0  0999 V2000
    8.3036    9.8571   18.4133 C   0  0  0  0  0  0  0  0  0  0  0  0
    8.3694    7.6612   22.6703 C   0  0  0  0  0  0  0  0  0  0  0  0
    8.4143    6.6863   16.2273 C   0  0  0  0  0  0  0  0  0  0  0  0
   10.7581    6.5674   21.7636 C   0  0  0  0  0  0  0  0  0  0  0  0
    8.4452    8.7960   19.2958 O   0  0  0  0  0  0  0  0  0  0  0  0
    8.7122    6.7842   24.8569 C   0  0  0  0  0  0  0  0  0  0  0  0
   10.3400    6.1726   14.3081 C   0  0  0  0  0  0  0  0  0  0  0  0
    7.4297    7.5873   24.8962 C   0  0  0  0  0  0  0  0  0  0  0  0
    8.1566   10.0536   16.0516 O   0  0  0  0  0  0  0  0  0  0  0  0
   12.4989    6.2074   20.1776 C   0  0  0  0  0  0  0  0  0  0  0  0
    6.9192    9.1053   20.9073 O   0  0  0  0  0  0  0  0  0  0  0  0
   14.3979    6.0729   18.7784 C   0  0  0  0  0  0  0  0  0  0  0  0
    8.6811    9.5354   16.9998 C   0  0  0  0  0  0  0  0  0  0  0  0
    9.2512    4.2713   13.7653 O   0  0  0  0  0  0  0  0  0  0  0  0
    9.6495    8.6317   16.8332 N   0  0  0  0  0  0  0  0  0  0  0  0
    6.2934    8.6988   23.1988 O   0  0  0  0  0  0  0  0  0  0  0  0
    7.9806    8.6543   20.5437 C   0  0  0  0  0  0  0  0  0  0  0  0
   13.7270    5.7144   19.8610 O   0  0  0  0  0  0  0  0  0  0  0  0
    8.3351    5.5235   15.4478 C   0  0  0  0  0  0  0  0  0  0  0  0
    8.7700    7.8434   21.3915 C   0  0  0  0  0  0  0  0  0  0  0  0
   11.7856    6.8851   19.2401 C   0  0  0  0  0  0  0  0  0  0  0  0
   10.5281    7.4276   19.5649 C   0  0  0  0  0  0  0  0  0  0  0  0
   10.0256    7.2907   20.8484 C   0  0  0  0  0  0  0  0  0  0  0  0
    9.3113    5.3049   14.4911 C   0  0  0  0  0  0  0  0  0  0  0  0
    9.4607    7.5646   16.0139 C   0  0  0  0  0  0  0  0  0  0  0  0
   10.4192    7.3157   15.0955 C   0  0  0  0  0  0  0  0  0  0  0  0
   10.2489    6.4227   23.0218 N   0  0  0  0  0  0  0  0  0  0  0  0
    7.2472    8.0746   23.5050 C   0  0  0  0  0  0  0  0  0  0  0  0
    9.2051    6.9101   23.4604 C   0  0  0  0  0  0  0  0  0  0  0  0
   11.9646    6.0299   21.4251 C   0  0  0  0  0  0  0  0  0  0  0  0
  1  5  1  0
  1 13  1  0
  2 20  2  0
  2 28  1  0
  2 29  1  0
  3 19  4  0
  3 25  4  0
  4 23  4  0
  4 27  1  0
  4 30  4  0
  5 17  1  0
  6  8  1  0
  6 29  1  0
  7 24  4  0
  7 26  4  0
  8 28  1  0
  9 13  2  0
 10 18  1  0
 10 21  4  0
 10 30  4  0
 11 17  2  0
 12 18  1  0
 13 15  1  0
 14 24  1  0
 15 25  1  0
 16 28  2  0
 17 20  1  0
 19 24  4  0
 20 23  1  0
 21 22  4  0
 22 23  4  0
 25 26  4  0
 27 29  2  0
M  END
$$$$

 Created by Python create_sdf_string function

 30 33  0  0  0  0  0  0  0  0999 V2000
    8.3036    9.8571   18.4133 C   0  0  0  0  0  0  0  0  0  0  0  0
    8.3694    7.6612   22.6703 C   0  0  0  0  0  0  0  0  0  0  0  0
    8.4143    6.6863   16.2273 C   0  0  0  0  0  0  0  0  0  0  0  0
   10.7581    6.5674   21.7636 C   0  0  0  0  0  0  0  0  0  0  0  0
    8.4452    8.7960   19.2958 O   0  0  0  0  0  0  0  0  0  0  0  0
    8.7122    6.7842   24.8569 C   0  0  0  0  0  0  0  0  0  0  0  0
   10.3400    6.1726   14.3081 C   0  0  0  0  0  0  0  0  0  0  0  0
    7.4297    7.5873   24.8962 C   0  0  0  0  0  0  0  0  0  0  0  0
    8.1566   10.0536   16.0516 O   0  0  0  0  0  0  0  0  0  0  0  0
   12.4989    6.2074   20.1776 C   0  0  0  0  0  0  0  0  0  0  0  0
    6.9192    9.1053   20.9073 O   0  0  0  0  0  0  0  0  0  0  0  0
   14.3979    6.0729   18.7784 C   0  0  0  0  0  0  0  0  0  0  0  0
    8.6811    9.5354   16.9998 C   0  0  0  0  0  0  0  0  0  0  0  0
    9.2512    4.2713   13.7653 O   0  0  0  0  0  0  0  0  0  0  0  0
    9.6495    8.6317   16.8332 N   0  0  0  0  0  0  0  0  0  0  0  0
    6.2934    8.6988   23.1988 O   0  0  0  0  0  0  0  0  0  0  0  0
    7.9806    8.6543   20.5437 C   0  0  0  0  0  0  0  0  0  0  0  0
   13.7270    5.7144   19.8610 O   0  0  0  0  0  0  0  0  0  0  0  0
    8.3351    5.5235   15.4478 C   0  0  0  0  0  0  0  0  0  0  0  0
    8.7700    7.8434   21.3915 C   0  0  0  0  0  0  0  0  0  0  0  0
   11.7856    6.8851   19.2401 C   0  0  0  0  0  0  0  0  0  0  0  0
   10.5281    7.4276   19.5649 C   0  0  0  0  0  0  0  0  0  0  0  0
   10.0256    7.2907   20.8484 C   0  0  0  0  0  0  0  0  0  0  0  0
    9.3113    5.3049   14.4911 C   0  0  0  0  0  0  0  0  0  0  0  0
    9.4607    7.5646   16.0139 C   0  0  0  0  0  0  0  0  0  0  0  0
   10.4192    7.3157   15.0955 C   0  0  0  0  0  0  0  0  0  0  0  0
   10.2489    6.4227   23.0218 N   0  0  0  0  0  0  0  0  0  0  0  0
    7.2472    8.0746   23.5050 C   0  0  0  0  0  0  0  0  0  0  0  0
    9.2051    6.9101   23.4604 C   0  0  0  0  0  0  0  0  0  0  0  0
   11.9646    6.0299   21.4251 C   0  0  0  0  0  0  0  0  0  0  0  0
  1  5  1  0
  1 13  1  0
  2 20  2  0
  2 28  1  0
  2 29  1  0
  3 19  4  0
  3 25  4  0
  4 23  4  0
  4 27  1  0
  4 30  4  0
  5 17  1  0
  6  8  1  0
  6 29  1  0
  7 24  4  0
  7 26  4  0
  8 28  1  0
  9 13  2  0
 10 18  1  0
 10 21  4  0
 10 30  4  0
 11 17  2  0
 12 18  1  0
 13 15  1  0
 14 24  1  0
 15 25  1  0
 16 28  2  0
 17 20  1  0
 19 24  4  0
 20 23  1  0
 21 22  4  0
 22 23  4  0
 25 26  4  0
 27 29  2  0
M  END
$$$$

 Created by Python create_sdf_string function

 30 33  0  0  0  0  0  0  0  0999 V2000
    8.3036    9.8571   18.4133 C   0  0  0  0  0  0  0  0  0  0  0  0
    8.3694    7.6612   22.6703 C   0  0  0  0  0  0  0  0  0  0  0  0
    8.4143    6.6863   16.2273 C   0  0  0  0  0  0  0  0  0  0  0  0
   10.7581    6.5674   21.7636 C   0  0  0  0  0  0  0  0  0  0  0  0
    8.4452    8.7960   19.2958 O   0  0  0  0  0  0  0  0  0  0  0  0
    8.7122    6.7842   24.8569 C   0  0  0  0  0  0  0  0  0  0  0  0
   10.3400    6.1726   14.3081 C   0  0  0  0  0  0  0  0  0  0  0  0
    7.4297    7.5873   24.8962 C   0  0  0  0  0  0  0  0  0  0  0  0
    8.1566   10.0536   16.0516 O   0  0  0  0  0  0  0  0  0  0  0  0
   12.4989    6.2074   20.1776 C   0  0  0  0  0  0  0  0  0  0  0  0
    6.9192    9.1053   20.9073 O   0  0  0  0  0  0  0  0  0  0  0  0
   14.3979    6.0729   18.7784 C   0  0  0  0  0  0  0  0  0  0  0  0
    8.6811    9.5354   16.9998 C   0  0  0  0  0  0  0  0  0  0  0  0
    9.2512    4.2713   13.7653 O   0  0  0  0  0  0  0  0  0  0  0  0
    9.6495    8.6317   16.8332 N   0  0  0  0  0  0  0  0  0  0  0  0
    6.2934    8.6988   23.1988 O   0  0  0  0  0  0  0  0  0  0  0  0
    7.9806    8.6543   20.5437 C   0  0  0  0  0  0  0  0  0  0  0  0
   13.7270    5.7144   19.8610 O   0  0  0  0  0  0  0  0  0  0  0  0
    8.3351    5.5235   15.4478 C   0  0  0  0  0  0  0  0  0  0  0  0
    8.7700    7.8434   21.3915 C   0  0  0  0  0  0  0  0  0  0  0  0
   11.7856    6.8851   19.2401 C   0  0  0  0  0  0  0  0  0  0  0  0
   10.5281    7.4276   19.5649 C   0  0  0  0  0  0  0  0  0  0  0  0
   10.0256    7.2907   20.8484 C   0  0  0  0  0  0  0  0  0  0  0  0
    9.3113    5.3049   14.4911 C   0  0  0  0  0  0  0  0  0  0  0  0
    9.4607    7.5646   16.0139 C   0  0  0  0  0  0  0  0  0  0  0  0
   10.4192    7.3157   15.0955 C   0  0  0  0  0  0  0  0  0  0  0  0
   10.2489    6.4227   23.0218 N   0  0  0  0  0  0  0  0  0  0  0  0
    7.2472    8.0746   23.5050 C   0  0  0  0  0  0  0  0  0  0  0  0
    9.2051    6.9101   23.4604 C   0  0  0  0  0  0  0  0  0  0  0  0
   11.9646    6.0299   21.4251 C   0  0  0  0  0  0  0  0  0  0  0  0
  1  5  1  0
  1 13  1  0
  2 20  2  0
  2 28  1  0
  2 29  1  0
  3 19  4  0
  3 25  4  0
  4 23  4  0
  4 27  1  0
  4 30  4  0
  5 17  1  0
  6  8  1  0
  6 29  1  0
  7 24  4  0
  7 26  4  0
  8 28  1  0
  9 13  2  0
 10 18  1  0
 10 21  4  0
 10 30  4  0
 11 17  2  0
 12 18  1  0
 13 15  1  0
 14 24  1  0
 15 25  1  0
 16 28  2  0
 17 20  1  0
 19 24  4  0
 20 23  1  0
 21 22  4  0
 22 23  4  0
 25 26  4  0
 27 29  2  0
M  END
$$$$

 Created by Python create_sdf_string function

 30 33  0  0  0  0  0  0  0  0999 V2000
    8.3036    9.8571   18.4133 C   0  0  0  0  0  0  0  0  0  0  0  0
    8.3694    7.6612   22.6703 C   0  0  0  0  0  0  0  0  0  0  0  0
    8.4143    6.6863   16.2273 C   0  0  0  0  0  0  0  0  0  0  0  0
   10.7581    6.5674   21.7636 C   0  0  0  0  0  0  0  0  0  0  0  0
    8.4452    8.7960   19.2958 O   0  0  0  0  0  0  0  0  0  0  0  0
    8.7122    6.7842   24.8569 C   0  0  0  0  0  0  0  0  0  0  0  0
   10.3400    6.1726   14.3081 C   0  0  0  0  0  0  0  0  0  0  0  0
    7.4297    7.5873   24.8962 C   0  0  0  0  0  0  0  0  0  0  0  0
    8.1566   10.0536   16.0516 O   0  0  0  0  0  0  0  0  0  0  0  0
   12.4989    6.2074   20.1776 C   0  0  0  0  0  0  0  0  0  0  0  0
    6.9192    9.1053   20.9073 O   0  0  0  0  0  0  0  0  0  0  0  0
   14.3979    6.0729   18.7784 C   0  0  0  0  0  0  0  0  0  0  0  0
    8.6811    9.5354   16.9998 C   0  0  0  0  0  0  0  0  0  0  0  0
    9.2512    4.2713   13.7653 O   0  0  0  0  0  0  0  0  0  0  0  0
    9.6495    8.6317   16.8332 N   0  0  0  0  0  0  0  0  0  0  0  0
    6.2934    8.6988   23.1988 O   0  0  0  0  0  0  0  0  0  0  0  0
    7.9806    8.6543   20.5437 C   0  0  0  0  0  0  0  0  0  0  0  0
   13.7270    5.7144   19.8610 O   0  0  0  0  0  0  0  0  0  0  0  0
    8.3351    5.5235   15.4478 C   0  0  0  0  0  0  0  0  0  0  0  0
    8.7700    7.8434   21.3915 C   0  0  0  0  0  0  0  0  0  0  0  0
   11.7856    6.8851   19.2401 C   0  0  0  0  0  0  0  0  0  0  0  0
   10.5281    7.4276   19.5649 C   0  0  0  0  0  0  0  0  0  0  0  0
   10.0256    7.2907   20.8484 C   0  0  0  0  0  0  0  0  0  0  0  0
    9.3113    5.3049   14.4911 C   0  0  0  0  0  0  0  0  0  0  0  0
    9.4607    7.5646   16.0139 C   0  0  0  0  0  0  0  0  0  0  0  0
   10.4192    7.3157   15.0955 C   0  0  0  0  0  0  0  0  0  0  0  0
   10.2489    6.4227   23.0218 N   0  0  0  0  0  0  0  0  0  0  0  0
    7.2472    8.0746   23.5050 C   0  0  0  0  0  0  0  0  0  0  0  0
    9.2051    6.9101   23.4604 C   0  0  0  0  0  0  0  0  0  0  0  0
   11.9646    6.0299   21.4251 C   0  0  0  0  0  0  0  0  0  0  0  0
  1  5  1  0
  1 13  1  0
  2 20  2  0
  2 28  1  0
  2 29  1  0
  3 19  4  0
  3 25  4  0
  4 23  4  0
  4 27  1  0
  4 30  4  0
  5 17  1  0
  6  8  1  0
  6 29  1  0
  7 24  4  0
  7 26  4  0
  8 28  1  0
  9 13  2  0
 10 18  1  0
 10 21  4  0
 10 30  4  0
 11 17  2  0
 12 18  1  0
 13 15  1  0
 14 24  1  0
 15 25  1  0
 16 28  2  0
 17 20  1  0
 19 24  4  0
 20 23  1  0
 21 22  4  0
 22 23  4  0
 25 26  4  0
 27 29  2  0
M  END
$$$$

 Created by Python create_sdf_string function

 30 33  0  0  0  0  0  0  0  0999 V2000
    8.3036    9.8571   18.4133 C   0  0  0  0  0  0  0  0  0  0  0  0
    8.3694    7.6612   22.6703 C   0  0  0  0  0  0  0  0  0  0  0  0
    8.4143    6.6863   16.2273 C   0  0  0  0  0  0  0  0  0  0  0  0
   10.7581    6.5674   21.7636 C   0  0  0  0  0  0  0  0  0  0  0  0
    8.4452    8.7960   19.2958 O   0  0  0  0  0  0  0  0  0  0  0  0
    8.7122    6.7842   24.8569 C   0  0  0  0  0  0  0  0  0  0  0  0
   10.3400    6.1726   14.3081 C   0  0  0  0  0  0  0  0  0  0  0  0
    7.4297    7.5873   24.8962 C   0  0  0  0  0  0  0  0  0  0  0  0
    8.1566   10.0536   16.0516 O   0  0  0  0  0  0  0  0  0  0  0  0
   12.4989    6.2074   20.1776 C   0  0  0  0  0  0  0  0  0  0  0  0
    6.9192    9.1053   20.9073 O   0  0  0  0  0  0  0  0  0  0  0  0
   14.3979    6.0729   18.7784 C   0  0  0  0  0  0  0  0  0  0  0  0
    8.6811    9.5354   16.9998 C   0  0  0  0  0  0  0  0  0  0  0  0
    9.2512    4.2713   13.7653 O   0  0  0  0  0  0  0  0  0  0  0  0
    9.6495    8.6317   16.8332 N   0  0  0  0  0  0  0  0  0  0  0  0
    6.2934    8.6988   23.1988 O   0  0  0  0  0  0  0  0  0  0  0  0
    7.9806    8.6543   20.5437 C   0  0  0  0  0  0  0  0  0  0  0  0
   13.7270    5.7144   19.8610 O   0  0  0  0  0  0  0  0  0  0  0  0
    8.3351    5.5235   15.4478 C   0  0  0  0  0  0  0  0  0  0  0  0
    8.7700    7.8434   21.3915 C   0  0  0  0  0  0  0  0  0  0  0  0
   11.7856    6.8851   19.2401 C   0  0  0  0  0  0  0  0  0  0  0  0
   10.5281    7.4276   19.5649 C   0  0  0  0  0  0  0  0  0  0  0  0
   10.0256    7.2907   20.8484 C   0  0  0  0  0  0  0  0  0  0  0  0
    9.3113    5.3049   14.4911 C   0  0  0  0  0  0  0  0  0  0  0  0
    9.4607    7.5646   16.0139 C   0  0  0  0  0  0  0  0  0  0  0  0
   10.4192    7.3157   15.0955 C   0  0  0  0  0  0  0  0  0  0  0  0
   10.2489    6.4227   23.0218 N   0  0  0  0  0  0  0  0  0  0  0  0
    7.2472    8.0746   23.5050 C   0  0  0  0  0  0  0  0  0  0  0  0
    9.2051    6.9101   23.4604 C   0  0  0  0  0  0  0  0  0  0  0  0
   11.9646    6.0299   21.4251 C   0  0  0  0  0  0  0  0  0  0  0  0
  1  5  1  0
  1 13  1  0
  2 20  2  0
  2 28  1  0
  2 29  1  0
  3 19  4  0
  3 25  4  0
  4 23  4  0
  4 27  1  0
  4 30  4  0
  5 17  1  0
  6  8  1  0
  6 29  1  0
  7 24  4  0
  7 26  4  0
  8 28  1  0
  9 13  2  0
 10 18  1  0
 10 21  4  0
 10 30  4  0
 11 17  2  0
 12 18  1  0
 13 15  1  0
 14 24  1  0
 15 25  1  0
 16 28  2  0
 17 20  1  0
 19 24  4  0
 20 23  1  0
 21 22  4  0
 22 23  4  0
 25 26  4  0
 27 29  2  0
M  END
$$$$

 Created by Python create_sdf_string function

 30 33  0  0  0  0  0  0  0  0999 V2000
    8.3036    9.8571   18.4133 C   0  0  0  0  0  0  0  0  0  0  0  0
    8.3694    7.6612   22.6703 C   0  0  0  0  0  0  0  0  0  0  0  0
    8.4143    6.6863   16.2273 C   0  0  0  0  0  0  0  0  0  0  0  0
   10.7581    6.5674   21.7636 C   0  0  0  0  0  0  0  0  0  0  0  0
    8.4452    8.7960   19.2958 O   0  0  0  0  0  0  0  0  0  0  0  0
    8.7122    6.7842   24.8569 C   0  0  0  0  0  0  0  0  0  0  0  0
   10.3400    6.1726   14.3081 C   0  0  0  0  0  0  0  0  0  0  0  0
    7.4297    7.5873   24.8962 C   0  0  0  0  0  0  0  0  0  0  0  0
    8.1566   10.0536   16.0516 O   0  0  0  0  0  0  0  0  0  0  0  0
   12.4989    6.2074   20.1776 C   0  0  0  0  0  0  0  0  0  0  0  0
    6.9192    9.1053   20.9073 O   0  0  0  0  0  0  0  0  0  0  0  0
   14.3979    6.0729   18.7784 C   0  0  0  0  0  0  0  0  0  0  0  0
    8.6811    9.5354   16.9998 C   0  0  0  0  0  0  0  0  0  0  0  0
    9.2512    4.2713   13.7653 O   0  0  0  0  0  0  0  0  0  0  0  0
    9.6495    8.6317   16.8332 N   0  0  0  0  0  0  0  0  0  0  0  0
    6.2934    8.6988   23.1988 O   0  0  0  0  0  0  0  0  0  0  0  0
    7.9806    8.6543   20.5437 C   0  0  0  0  0  0  0  0  0  0  0  0
   13.7270    5.7144   19.8610 O   0  0  0  0  0  0  0  0  0  0  0  0
    8.3351    5.5235   15.4478 C   0  0  0  0  0  0  0  0  0  0  0  0
    8.7700    7.8434   21.3915 C   0  0  0  0  0  0  0  0  0  0  0  0
   11.7856    6.8851   19.2401 C   0  0  0  0  0  0  0  0  0  0  0  0
   10.5281    7.4276   19.5649 C   0  0  0  0  0  0  0  0  0  0  0  0
   10.0256    7.2907   20.8484 C   0  0  0  0  0  0  0  0  0  0  0  0
    9.3113    5.3049   14.4911 C   0  0  0  0  0  0  0  0  0  0  0  0
    9.4607    7.5646   16.0139 C   0  0  0  0  0  0  0  0  0  0  0  0
   10.4192    7.3157   15.0955 C   0  0  0  0  0  0  0  0  0  0  0  0
   10.2489    6.4227   23.0218 N   0  0  0  0  0  0  0  0  0  0  0  0
    7.2472    8.0746   23.5050 C   0  0  0  0  0  0  0  0  0  0  0  0
    9.2051    6.9101   23.4604 C   0  0  0  0  0  0  0  0  0  0  0  0
   11.9646    6.0299   21.4251 C   0  0  0  0  0  0  0  0  0  0  0  0
  1  5  1  0
  1 13  1  0
  2 20  2  0
  2 28  1  0
  2 29  1  0
  3 19  4  0
  3 25  4  0
  4 23  4  0
  4 27  1  0
  4 30  4  0
  5 17  1  0
  6  8  1  0
  6 29  1  0
  7 24  4  0
  7 26  4  0
  8 28  1  0
  9 13  2  0
 10 18  1  0
 10 21  4  0
 10 30  4  0
 11 17  2  0
 12 18  1  0
 13 15  1  0
 14 24  1  0
 15 25  1  0
 16 28  2  0
 17 20  1  0
 19 24  4  0
 20 23  1  0
 21 22  4  0
 22 23  4  0
 25 26  4  0
 27 29  2  0
M  END
$$$$

 Created by Python create_sdf_string function

 30 33  0  0  0  0  0  0  0  0999 V2000
    8.3036    9.8571   18.4133 C   0  0  0  0  0  0  0  0  0  0  0  0
    8.3694    7.6612   22.6703 C   0  0  0  0  0  0  0  0  0  0  0  0
    8.4143    6.6863   16.2273 C   0  0  0  0  0  0  0  0  0  0  0  0
   10.7581    6.5674   21.7636 C   0  0  0  0  0  0  0  0  0  0  0  0
    8.4452    8.7960   19.2958 O   0  0  0  0  0  0  0  0  0  0  0  0
    8.7122    6.7842   24.8569 C   0  0  0  0  0  0  0  0  0  0  0  0
   10.3400    6.1726   14.3081 C   0  0  0  0  0  0  0  0  0  0  0  0
    7.4297    7.5873   24.8962 C   0  0  0  0  0  0  0  0  0  0  0  0
    8.1566   10.0536   16.0516 O   0  0  0  0  0  0  0  0  0  0  0  0
   12.4989    6.2074   20.1776 C   0  0  0  0  0  0  0  0  0  0  0  0
    6.9192    9.1053   20.9073 O   0  0  0  0  0  0  0  0  0  0  0  0
   14.3979    6.0729   18.7784 C   0  0  0  0  0  0  0  0  0  0  0  0
    8.6811    9.5354   16.9998 C   0  0  0  0  0  0  0  0  0  0  0  0
    9.2512    4.2713   13.7653 O   0  0  0  0  0  0  0  0  0  0  0  0
    9.6495    8.6317   16.8332 N   0  0  0  0  0  0  0  0  0  0  0  0
    6.2934    8.6988   23.1988 O   0  0  0  0  0  0  0  0  0  0  0  0
    7.9806    8.6543   20.5437 C   0  0  0  0  0  0  0  0  0  0  0  0
   13.7270    5.7144   19.8610 O   0  0  0  0  0  0  0  0  0  0  0  0
    8.3351    5.5235   15.4478 C   0  0  0  0  0  0  0  0  0  0  0  0
    8.7700    7.8434   21.3915 C   0  0  0  0  0  0  0  0  0  0  0  0
   11.7856    6.8851   19.2401 C   0  0  0  0  0  0  0  0  0  0  0  0
   10.5281    7.4276   19.5649 C   0  0  0  0  0  0  0  0  0  0  0  0
   10.0256    7.2907   20.8484 C   0  0  0  0  0  0  0  0  0  0  0  0
    9.3113    5.3049   14.4911 C   0  0  0  0  0  0  0  0  0  0  0  0
    9.4607    7.5646   16.0139 C   0  0  0  0  0  0  0  0  0  0  0  0
   10.4192    7.3157   15.0955 C   0  0  0  0  0  0  0  0  0  0  0  0
   10.2489    6.4227   23.0218 N   0  0  0  0  0  0  0  0  0  0  0  0
    7.2472    8.0746   23.5050 C   0  0  0  0  0  0  0  0  0  0  0  0
    9.2051    6.9101   23.4604 C   0  0  0  0  0  0  0  0  0  0  0  0
   11.9646    6.0299   21.4251 C   0  0  0  0  0  0  0  0  0  0  0  0
  1  5  1  0
  1 13  1  0
  2 20  2  0
  2 28  1  0
  2 29  1  0
  3 19  4  0
  3 25  4  0
  4 23  4  0
  4 27  1  0
  4 30  4  0
  5 17  1  0
  6  8  1  0
  6 29  1  0
  7 24  4  0
  7 26  4  0
  8 28  1  0
  9 13  2  0
 10 18  1  0
 10 21  4  0
 10 30  4  0
 11 17  2  0
 12 18  1  0
 13 15  1  0
 14 24  1  0
 15 25  1  0
 16 28  2  0
 17 20  1  0
 19 24  4  0
 20 23  1  0
 21 22  4  0
 22 23  4  0
 25 26  4  0
 27 29  2  0
M  END
$$$$

 Created by Python create_sdf_string function

 30 33  0  0  0  0  0  0  0  0999 V2000
    8.3036    9.8571   18.4133 C   0  0  0  0  0  0  0  0  0  0  0  0
    8.3694    7.6612   22.6703 C   0  0  0  0  0  0  0  0  0  0  0  0
    8.4143    6.6863   16.2273 C   0  0  0  0  0  0  0  0  0  0  0  0
   10.7581    6.5674   21.7636 C   0  0  0  0  0  0  0  0  0  0  0  0
    8.4452    8.7960   19.2958 O   0  0  0  0  0  0  0  0  0  0  0  0
    8.7122    6.7842   24.8569 C   0  0  0  0  0  0  0  0  0  0  0  0
   10.3400    6.1726   14.3081 C   0  0  0  0  0  0  0  0  0  0  0  0
    7.4297    7.5873   24.8962 C   0  0  0  0  0  0  0  0  0  0  0  0
    8.1566   10.0536   16.0516 O   0  0  0  0  0  0  0  0  0  0  0  0
   12.4989    6.2074   20.1776 C   0  0  0  0  0  0  0  0  0  0  0  0
    6.9192    9.1053   20.9073 O   0  0  0  0  0  0  0  0  0  0  0  0
   14.3979    6.0729   18.7784 C   0  0  0  0  0  0  0  0  0  0  0  0
    8.6811    9.5354   16.9998 C   0  0  0  0  0  0  0  0  0  0  0  0
    9.2512    4.2713   13.7653 O   0  0  0  0  0  0  0  0  0  0  0  0
    9.6495    8.6317   16.8332 N   0  0  0  0  0  0  0  0  0  0  0  0
    6.2934    8.6988   23.1988 O   0  0  0  0  0  0  0  0  0  0  0  0
    7.9806    8.6543   20.5437 C   0  0  0  0  0  0  0  0  0  0  0  0
   13.7270    5.7144   19.8610 O   0  0  0  0  0  0  0  0  0  0  0  0
    8.3351    5.5235   15.4478 C   0  0  0  0  0  0  0  0  0  0  0  0
    8.7700    7.8434   21.3915 C   0  0  0  0  0  0  0  0  0  0  0  0
   11.7856    6.8851   19.2401 C   0  0  0  0  0  0  0  0  0  0  0  0
   10.5281    7.4276   19.5649 C   0  0  0  0  0  0  0  0  0  0  0  0
   10.0256    7.2907   20.8484 C   0  0  0  0  0  0  0  0  0  0  0  0
    9.3113    5.3049   14.4911 C   0  0  0  0  0  0  0  0  0  0  0  0
    9.4607    7.5646   16.0139 C   0  0  0  0  0  0  0  0  0  0  0  0
   10.4192    7.3157   15.0955 C   0  0  0  0  0  0  0  0  0  0  0  0
   10.2489    6.4227   23.0218 N   0  0  0  0  0  0  0  0  0  0  0  0
    7.2472    8.0746   23.5050 C   0  0  0  0  0  0  0  0  0  0  0  0
    9.2051    6.9101   23.4604 C   0  0  0  0  0  0  0  0  0  0  0  0
   11.9646    6.0299   21.4251 C   0  0  0  0  0  0  0  0  0  0  0  0
  1  5  1  0
  1 13  1  0
  2 20  2  0
  2 28  1  0
  2 29  1  0
  3 19  4  0
  3 25  4  0
  4 23  4  0
  4 27  1  0
  4 30  4  0
  5 17  1  0
  6  8  1  0
  6 29  1  0
  7 24  4  0
  7 26  4  0
  8 28  1  0
  9 13  2  0
 10 18  1  0
 10 21  4  0
 10 30  4  0
 11 17  2  0
 12 18  1  0
 13 15  1  0
 14 24  1  0
 15 25  1  0
 16 28  2  0
 17 20  1  0
 19 24  4  0
 20 23  1  0
 21 22  4  0
 22 23  4  0
 25 26  4  0
 27 29  2  0
M  END
$$$$

 Created by Python create_sdf_string function

 30 33  0  0  0  0  0  0  0  0999 V2000
    8.3036    9.8571   18.4133 C   0  0  0  0  0  0  0  0  0  0  0  0
    8.3694    7.6612   22.6703 C   0  0  0  0  0  0  0  0  0  0  0  0
    8.4143    6.6863   16.2273 C   0  0  0  0  0  0  0  0  0  0  0  0
   10.7581    6.5674   21.7636 C   0  0  0  0  0  0  0  0  0  0  0  0
    8.4452    8.7960   19.2958 O   0  0  0  0  0  0  0  0  0  0  0  0
    8.7122    6.7842   24.8569 C   0  0  0  0  0  0  0  0  0  0  0  0
   10.3400    6.1726   14.3081 C   0  0  0  0  0  0  0  0  0  0  0  0
    7.4297    7.5873   24.8962 C   0  0  0  0  0  0  0  0  0  0  0  0
    8.1566   10.0536   16.0516 O   0  0  0  0  0  0  0  0  0  0  0  0
   12.4989    6.2074   20.1776 C   0  0  0  0  0  0  0  0  0  0  0  0
    6.9192    9.1053   20.9073 O   0  0  0  0  0  0  0  0  0  0  0  0
   14.3979    6.0729   18.7784 C   0  0  0  0  0  0  0  0  0  0  0  0
    8.6811    9.5354   16.9998 C   0  0  0  0  0  0  0  0  0  0  0  0
    9.2512    4.2713   13.7653 O   0  0  0  0  0  0  0  0  0  0  0  0
    9.6495    8.6317   16.8332 N   0  0  0  0  0  0  0  0  0  0  0  0
    6.2934    8.6988   23.1988 O   0  0  0  0  0  0  0  0  0  0  0  0
    7.9806    8.6543   20.5437 C   0  0  0  0  0  0  0  0  0  0  0  0
   13.7270    5.7144   19.8610 O   0  0  0  0  0  0  0  0  0  0  0  0
    8.3351    5.5235   15.4478 C   0  0  0  0  0  0  0  0  0  0  0  0
    8.7700    7.8434   21.3915 C   0  0  0  0  0  0  0  0  0  0  0  0
   11.7856    6.8851   19.2401 C   0  0  0  0  0  0  0  0  0  0  0  0
   10.5281    7.4276   19.5649 C   0  0  0  0  0  0  0  0  0  0  0  0
   10.0256    7.2907   20.8484 C   0  0  0  0  0  0  0  0  0  0  0  0
    9.3113    5.3049   14.4911 C   0  0  0  0  0  0  0  0  0  0  0  0
    9.4607    7.5646   16.0139 C   0  0  0  0  0  0  0  0  0  0  0  0
   10.4192    7.3157   15.0955 C   0  0  0  0  0  0  0  0  0  0  0  0
   10.2489    6.4227   23.0218 N   0  0  0  0  0  0  0  0  0  0  0  0
    7.2472    8.0746   23.5050 C   0  0  0  0  0  0  0  0  0  0  0  0
    9.2051    6.9101   23.4604 C   0  0  0  0  0  0  0  0  0  0  0  0
   11.9646    6.0299   21.4251 C   0  0  0  0  0  0  0  0  0  0  0  0
  1  5  1  0
  1 13  1  0
  2 20  2  0
  2 28  1  0
  2 29  1  0
  3 19  4  0
  3 25  4  0
  4 23  4  0
  4 27  1  0
  4 30  4  0
  5 17  1  0
  6  8  1  0
  6 29  1  0
  7 24  4  0
  7 26  4  0
  8 28  1  0
  9 13  2  0
 10 18  1  0
 10 21  4  0
 10 30  4  0
 11 17  2  0
 12 18  1  0
 13 15  1  0
 14 24  1  0
 15 25  1  0
 16 28  2  0
 17 20  1  0
 19 24  4  0
 20 23  1  0
 21 22  4  0
 22 23  4  0
 25 26  4  0
 27 29  2  0
M  END
$$$$

 Created by Python create_sdf_string function

 30 33  0  0  0  0  0  0  0  0999 V2000
    8.3036    9.8571   18.4133 C   0  0  0  0  0  0  0  0  0  0  0  0
    8.3694    7.6612   22.6703 C   0  0  0  0  0  0  0  0  0  0  0  0
    8.4143    6.6863   16.2273 C   0  0  0  0  0  0  0  0  0  0  0  0
   10.7581    6.5674   21.7636 C   0  0  0  0  0  0  0  0  0  0  0  0
    8.4452    8.7960   19.2958 O   0  0  0  0  0  0  0  0  0  0  0  0
    8.7122    6.7842   24.8569 C   0  0  0  0  0  0  0  0  0  0  0  0
   10.3400    6.1726   14.3081 C   0  0  0  0  0  0  0  0  0  0  0  0
    7.4297    7.5873   24.8962 C   0  0  0  0  0  0  0  0  0  0  0  0
    8.1566   10.0536   16.0516 O   0  0  0  0  0  0  0  0  0  0  0  0
   12.4989    6.2074   20.1776 C   0  0  0  0  0  0  0  0  0  0  0  0
    6.9192    9.1053   20.9073 O   0  0  0  0  0  0  0  0  0  0  0  0
   14.3979    6.0729   18.7784 C   0  0  0  0  0  0  0  0  0  0  0  0
    8.6811    9.5354   16.9998 C   0  0  0  0  0  0  0  0  0  0  0  0
    9.2512    4.2713   13.7653 O   0  0  0  0  0  0  0  0  0  0  0  0
    9.6495    8.6317   16.8332 N   0  0  0  0  0  0  0  0  0  0  0  0
    6.2934    8.6988   23.1988 O   0  0  0  0  0  0  0  0  0  0  0  0
    7.9806    8.6543   20.5437 C   0  0  0  0  0  0  0  0  0  0  0  0
   13.7270    5.7144   19.8610 O   0  0  0  0  0  0  0  0  0  0  0  0
    8.3351    5.5235   15.4478 C   0  0  0  0  0  0  0  0  0  0  0  0
    8.7700    7.8434   21.3915 C   0  0  0  0  0  0  0  0  0  0  0  0
   11.7856    6.8851   19.2401 C   0  0  0  0  0  0  0  0  0  0  0  0
   10.5281    7.4276   19.5649 C   0  0  0  0  0  0  0  0  0  0  0  0
   10.0256    7.2907   20.8484 C   0  0  0  0  0  0  0  0  0  0  0  0
    9.3113    5.3049   14.4911 C   0  0  0  0  0  0  0  0  0  0  0  0
    9.4607    7.5646   16.0139 C   0  0  0  0  0  0  0  0  0  0  0  0
   10.4192    7.3157   15.0955 C   0  0  0  0  0  0  0  0  0  0  0  0
   10.2489    6.4227   23.0218 N   0  0  0  0  0  0  0  0  0  0  0  0
    7.2472    8.0746   23.5050 C   0  0  0  0  0  0  0  0  0  0  0  0
    9.2051    6.9101   23.4604 C   0  0  0  0  0  0  0  0  0  0  0  0
   11.9646    6.0299   21.4251 C   0  0  0  0  0  0  0  0  0  0  0  0
  1  5  1  0
  1 13  1  0
  2 20  2  0
  2 28  1  0
  2 29  1  0
  3 19  4  0
  3 25  4  0
  4 23  4  0
  4 27  1  0
  4 30  4  0
  5 17  1  0
  6  8  1  0
  6 29  1  0
  7 24  4  0
  7 26  4  0
  8 28  1  0
  9 13  2  0
 10 18  1  0
 10 21  4  0
 10 30  4  0
 11 17  2  0
 12 18  1  0
 13 15  1  0
 14 24  1  0
 15 25  1  0
 16 28  2  0
 17 20  1  0
 19 24  4  0
 20 23  1  0
 21 22  4  0
 22 23  4  0
 25 26  4  0
 27 29  2  0
M  END
$$$$

 Created by Python create_sdf_string function

 30 33  0  0  0  0  0  0  0  0999 V2000
    8.3036    9.8571   18.4133 C   0  0  0  0  0  0  0  0  0  0  0  0
    8.3694    7.6612   22.6703 C   0  0  0  0  0  0  0  0  0  0  0  0
    8.4143    6.6863   16.2273 C   0  0  0  0  0  0  0  0  0  0  0  0
   10.7581    6.5674   21.7636 C   0  0  0  0  0  0  0  0  0  0  0  0
    8.4452    8.7960   19.2958 O   0  0  0  0  0  0  0  0  0  0  0  0
    8.7122    6.7842   24.8569 C   0  0  0  0  0  0  0  0  0  0  0  0
   10.3400    6.1726   14.3081 C   0  0  0  0  0  0  0  0  0  0  0  0
    7.4297    7.5873   24.8962 C   0  0  0  0  0  0  0  0  0  0  0  0
    8.1566   10.0536   16.0516 O   0  0  0  0  0  0  0  0  0  0  0  0
   12.4989    6.2074   20.1776 C   0  0  0  0  0  0  0  0  0  0  0  0
    6.9192    9.1053   20.9073 O   0  0  0  0  0  0  0  0  0  0  0  0
   14.3979    6.0729   18.7784 C   0  0  0  0  0  0  0  0  0  0  0  0
    8.6811    9.5354   16.9998 C   0  0  0  0  0  0  0  0  0  0  0  0
    9.2512    4.2713   13.7653 O   0  0  0  0  0  0  0  0  0  0  0  0
    9.6495    8.6317   16.8332 N   0  0  0  0  0  0  0  0  0  0  0  0
    6.2934    8.6988   23.1988 O   0  0  0  0  0  0  0  0  0  0  0  0
    7.9806    8.6543   20.5437 C   0  0  0  0  0  0  0  0  0  0  0  0
   13.7270    5.7144   19.8610 O   0  0  0  0  0  0  0  0  0  0  0  0
    8.3351    5.5235   15.4478 C   0  0  0  0  0  0  0  0  0  0  0  0
    8.7700    7.8434   21.3915 C   0  0  0  0  0  0  0  0  0  0  0  0
   11.7856    6.8851   19.2401 C   0  0  0  0  0  0  0  0  0  0  0  0
   10.5281    7.4276   19.5649 C   0  0  0  0  0  0  0  0  0  0  0  0
   10.0256    7.2907   20.8484 C   0  0  0  0  0  0  0  0  0  0  0  0
    9.3113    5.3049   14.4911 C   0  0  0  0  0  0  0  0  0  0  0  0
    9.4607    7.5646   16.0139 C   0  0  0  0  0  0  0  0  0  0  0  0
   10.4192    7.3157   15.0955 C   0  0  0  0  0  0  0  0  0  0  0  0
   10.2489    6.4227   23.0218 N   0  0  0  0  0  0  0  0  0  0  0  0
    7.2472    8.0746   23.5050 C   0  0  0  0  0  0  0  0  0  0  0  0
    9.2051    6.9101   23.4604 C   0  0  0  0  0  0  0  0  0  0  0  0
   11.9646    6.0299   21.4251 C   0  0  0  0  0  0  0  0  0  0  0  0
  1  5  1  0
  1 13  1  0
  2 20  2  0
  2 28  1  0
  2 29  1  0
  3 19  4  0
  3 25  4  0
  4 23  4  0
  4 27  1  0
  4 30  4  0
  5 17  1  0
  6  8  1  0
  6 29  1  0
  7 24  4  0
  7 26  4  0
  8 28  1  0
  9 13  2  0
 10 18  1  0
 10 21  4  0
 10 30  4  0
 11 17  2  0
 12 18  1  0
 13 15  1  0
 14 24  1  0
 15 25  1  0
 16 28  2  0
 17 20  1  0
 19 24  4  0
 20 23  1  0
 21 22  4  0
 22 23  4  0
 25 26  4  0
 27 29  2  0
M  END
$$$$

 Created by Python create_sdf_string function

 30 33  0  0  0  0  0  0  0  0999 V2000
    8.3036    9.8571   18.4133 C   0  0  0  0  0  0  0  0  0  0  0  0
    8.3694    7.6612   22.6703 C   0  0  0  0  0  0  0  0  0  0  0  0
    8.4143    6.6863   16.2273 C   0  0  0  0  0  0  0  0  0  0  0  0
   10.7581    6.5674   21.7636 C   0  0  0  0  0  0  0  0  0  0  0  0
    8.4452    8.7960   19.2958 O   0  0  0  0  0  0  0  0  0  0  0  0
    8.7122    6.7842   24.8569 C   0  0  0  0  0  0  0  0  0  0  0  0
   10.3400    6.1726   14.3081 C   0  0  0  0  0  0  0  0  0  0  0  0
    7.4297    7.5873   24.8962 C   0  0  0  0  0  0  0  0  0  0  0  0
    8.1566   10.0536   16.0516 O   0  0  0  0  0  0  0  0  0  0  0  0
   12.4989    6.2074   20.1776 C   0  0  0  0  0  0  0  0  0  0  0  0
    6.9192    9.1053   20.9073 O   0  0  0  0  0  0  0  0  0  0  0  0
   14.3979    6.0729   18.7784 C   0  0  0  0  0  0  0  0  0  0  0  0
    8.6811    9.5354   16.9998 C   0  0  0  0  0  0  0  0  0  0  0  0
    9.2512    4.2713   13.7653 O   0  0  0  0  0  0  0  0  0  0  0  0
    9.6495    8.6317   16.8332 N   0  0  0  0  0  0  0  0  0  0  0  0
    6.2934    8.6988   23.1988 O   0  0  0  0  0  0  0  0  0  0  0  0
    7.9806    8.6543   20.5437 C   0  0  0  0  0  0  0  0  0  0  0  0
   13.7270    5.7144   19.8610 O   0  0  0  0  0  0  0  0  0  0  0  0
    8.3351    5.5235   15.4478 C   0  0  0  0  0  0  0  0  0  0  0  0
    8.7700    7.8434   21.3915 C   0  0  0  0  0  0  0  0  0  0  0  0
   11.7856    6.8851   19.2401 C   0  0  0  0  0  0  0  0  0  0  0  0
   10.5281    7.4276   19.5649 C   0  0  0  0  0  0  0  0  0  0  0  0
   10.0256    7.2907   20.8484 C   0  0  0  0  0  0  0  0  0  0  0  0
    9.3113    5.3049   14.4911 C   0  0  0  0  0  0  0  0  0  0  0  0
    9.4607    7.5646   16.0139 C   0  0  0  0  0  0  0  0  0  0  0  0
   10.4192    7.3157   15.0955 C   0  0  0  0  0  0  0  0  0  0  0  0
   10.2489    6.4227   23.0218 N   0  0  0  0  0  0  0  0  0  0  0  0
    7.2472    8.0746   23.5050 C   0  0  0  0  0  0  0  0  0  0  0  0
    9.2051    6.9101   23.4604 C   0  0  0  0  0  0  0  0  0  0  0  0
   11.9646    6.0299   21.4251 C   0  0  0  0  0  0  0  0  0  0  0  0
  1  5  1  0
  1 13  1  0
  2 20  2  0
  2 28  1  0
  2 29  1  0
  3 19  4  0
  3 25  4  0
  4 23  4  0
  4 27  1  0
  4 30  4  0
  5 17  1  0
  6  8  1  0
  6 29  1  0
  7 24  4  0
  7 26  4  0
  8 28  1  0
  9 13  2  0
 10 18  1  0
 10 21  4  0
 10 30  4  0
 11 17  2  0
 12 18  1  0
 13 15  1  0
 14 24  1  0
 15 25  1  0
 16 28  2  0
 17 20  1  0
 19 24  4  0
 20 23  1  0
 21 22  4  0
 22 23  4  0
 25 26  4  0
 27 29  2  0
M  END
$$$$

 Created by Python create_sdf_string function

 30 33  0  0  0  0  0  0  0  0999 V2000
    8.3036    9.8571   18.4133 C   0  0  0  0  0  0  0  0  0  0  0  0
    8.3694    7.6612   22.6703 C   0  0  0  0  0  0  0  0  0  0  0  0
    8.4143    6.6863   16.2273 C   0  0  0  0  0  0  0  0  0  0  0  0
   10.7581    6.5674   21.7636 C   0  0  0  0  0  0  0  0  0  0  0  0
    8.4452    8.7960   19.2958 O   0  0  0  0  0  0  0  0  0  0  0  0
    8.7122    6.7842   24.8569 C   0  0  0  0  0  0  0  0  0  0  0  0
   10.3400    6.1726   14.3081 C   0  0  0  0  0  0  0  0  0  0  0  0
    7.4297    7.5873   24.8962 C   0  0  0  0  0  0  0  0  0  0  0  0
    8.1566   10.0536   16.0516 O   0  0  0  0  0  0  0  0  0  0  0  0
   12.4989    6.2074   20.1776 C   0  0  0  0  0  0  0  0  0  0  0  0
    6.9192    9.1053   20.9073 O   0  0  0  0  0  0  0  0  0  0  0  0
   14.3979    6.0729   18.7784 C   0  0  0  0  0  0  0  0  0  0  0  0
    8.6811    9.5354   16.9998 C   0  0  0  0  0  0  0  0  0  0  0  0
    9.2512    4.2713   13.7653 O   0  0  0  0  0  0  0  0  0  0  0  0
    9.6495    8.6317   16.8332 N   0  0  0  0  0  0  0  0  0  0  0  0
    6.2934    8.6988   23.1988 O   0  0  0  0  0  0  0  0  0  0  0  0
    7.9806    8.6543   20.5437 C   0  0  0  0  0  0  0  0  0  0  0  0
   13.7270    5.7144   19.8610 O   0  0  0  0  0  0  0  0  0  0  0  0
    8.3351    5.5235   15.4478 C   0  0  0  0  0  0  0  0  0  0  0  0
    8.7700    7.8434   21.3915 C   0  0  0  0  0  0  0  0  0  0  0  0
   11.7856    6.8851   19.2401 C   0  0  0  0  0  0  0  0  0  0  0  0
   10.5281    7.4276   19.5649 C   0  0  0  0  0  0  0  0  0  0  0  0
   10.0256    7.2907   20.8484 C   0  0  0  0  0  0  0  0  0  0  0  0
    9.3113    5.3049   14.4911 C   0  0  0  0  0  0  0  0  0  0  0  0
    9.4607    7.5646   16.0139 C   0  0  0  0  0  0  0  0  0  0  0  0
   10.4192    7.3157   15.0955 C   0  0  0  0  0  0  0  0  0  0  0  0
   10.2489    6.4227   23.0218 N   0  0  0  0  0  0  0  0  0  0  0  0
    7.2472    8.0746   23.5050 C   0  0  0  0  0  0  0  0  0  0  0  0
    9.2051    6.9101   23.4604 C   0  0  0  0  0  0  0  0  0  0  0  0
   11.9646    6.0299   21.4251 C   0  0  0  0  0  0  0  0  0  0  0  0
  1  5  1  0
  1 13  1  0
  2 20  2  0
  2 28  1  0
  2 29  1  0
  3 19  4  0
  3 25  4  0
  4 23  4  0
  4 27  1  0
  4 30  4  0
  5 17  1  0
  6  8  1  0
  6 29  1  0
  7 24  4  0
  7 26  4  0
  8 28  1  0
  9 13  2  0
 10 18  1  0
 10 21  4  0
 10 30  4  0
 11 17  2  0
 12 18  1  0
 13 15  1  0
 14 24  1  0
 15 25  1  0
 16 28  2  0
 17 20  1  0
 19 24  4  0
 20 23  1  0
 21 22  4  0
 22 23  4  0
 25 26  4  0
 27 29  2  0
M  END
$$$$

 Created by Python create_sdf_string function

 30 33  0  0  0  0  0  0  0  0999 V2000
    8.3036    9.8571   18.4133 C   0  0  0  0  0  0  0  0  0  0  0  0
    8.3694    7.6612   22.6703 C   0  0  0  0  0  0  0  0  0  0  0  0
    8.4143    6.6863   16.2273 C   0  0  0  0  0  0  0  0  0  0  0  0
   10.7581    6.5674   21.7636 C   0  0  0  0  0  0  0  0  0  0  0  0
    8.4452    8.7960   19.2958 O   0  0  0  0  0  0  0  0  0  0  0  0
    8.7122    6.7842   24.8569 C   0  0  0  0  0  0  0  0  0  0  0  0
   10.3400    6.1726   14.3081 C   0  0  0  0  0  0  0  0  0  0  0  0
    7.4297    7.5873   24.8962 C   0  0  0  0  0  0  0  0  0  0  0  0
    8.1566   10.0536   16.0516 O   0  0  0  0  0  0  0  0  0  0  0  0
   12.4989    6.2074   20.1776 C   0  0  0  0  0  0  0  0  0  0  0  0
    6.9192    9.1053   20.9073 O   0  0  0  0  0  0  0  0  0  0  0  0
   14.3979    6.0729   18.7784 C   0  0  0  0  0  0  0  0  0  0  0  0
    8.6811    9.5354   16.9998 C   0  0  0  0  0  0  0  0  0  0  0  0
    9.2512    4.2713   13.7653 O   0  0  0  0  0  0  0  0  0  0  0  0
    9.6495    8.6317   16.8332 N   0  0  0  0  0  0  0  0  0  0  0  0
    6.2934    8.6988   23.1988 O   0  0  0  0  0  0  0  0  0  0  0  0
    7.9806    8.6543   20.5437 C   0  0  0  0  0  0  0  0  0  0  0  0
   13.7270    5.7144   19.8610 O   0  0  0  0  0  0  0  0  0  0  0  0
    8.3351    5.5235   15.4478 C   0  0  0  0  0  0  0  0  0  0  0  0
    8.7700    7.8434   21.3915 C   0  0  0  0  0  0  0  0  0  0  0  0
   11.7856    6.8851   19.2401 C   0  0  0  0  0  0  0  0  0  0  0  0
   10.5281    7.4276   19.5649 C   0  0  0  0  0  0  0  0  0  0  0  0
   10.0256    7.2907   20.8484 C   0  0  0  0  0  0  0  0  0  0  0  0
    9.3113    5.3049   14.4911 C   0  0  0  0  0  0  0  0  0  0  0  0
    9.4607    7.5646   16.0139 C   0  0  0  0  0  0  0  0  0  0  0  0
   10.4192    7.3157   15.0955 C   0  0  0  0  0  0  0  0  0  0  0  0
   10.2489    6.4227   23.0218 N   0  0  0  0  0  0  0  0  0  0  0  0
    7.2472    8.0746   23.5050 C   0  0  0  0  0  0  0  0  0  0  0  0
    9.2051    6.9101   23.4604 C   0  0  0  0  0  0  0  0  0  0  0  0
   11.9646    6.0299   21.4251 C   0  0  0  0  0  0  0  0  0  0  0  0
  1  5  1  0
  1 13  1  0
  2 20  2  0
  2 28  1  0
  2 29  1  0
  3 19  4  0
  3 25  4  0
  4 23  4  0
  4 27  1  0
  4 30  4  0
  5 17  1  0
  6  8  1  0
  6 29  1  0
  7 24  4  0
  7 26  4  0
  8 28  1  0
  9 13  2  0
 10 18  1  0
 10 21  4  0
 10 30  4  0
 11 17  2  0
 12 18  1  0
 13 15  1  0
 14 24  1  0
 15 25  1  0
 16 28  2  0
 17 20  1  0
 19 24  4  0
 20 23  1  0
 21 22  4  0
 22 23  4  0
 25 26  4  0
 27 29  2  0
M  END
$$$$

 Created by Python create_sdf_string function

 30 33  0  0  0  0  0  0  0  0999 V2000
    8.3036    9.8571   18.4133 C   0  0  0  0  0  0  0  0  0  0  0  0
    8.3694    7.6612   22.6703 C   0  0  0  0  0  0  0  0  0  0  0  0
    8.4143    6.6863   16.2273 C   0  0  0  0  0  0  0  0  0  0  0  0
   10.7581    6.5674   21.7636 C   0  0  0  0  0  0  0  0  0  0  0  0
    8.4452    8.7960   19.2958 O   0  0  0  0  0  0  0  0  0  0  0  0
    8.7122    6.7842   24.8569 C   0  0  0  0  0  0  0  0  0  0  0  0
   10.3400    6.1726   14.3081 C   0  0  0  0  0  0  0  0  0  0  0  0
    7.4297    7.5873   24.8962 C   0  0  0  0  0  0  0  0  0  0  0  0
    8.1566   10.0536   16.0516 O   0  0  0  0  0  0  0  0  0  0  0  0
   12.4989    6.2074   20.1776 C   0  0  0  0  0  0  0  0  0  0  0  0
    6.9192    9.1053   20.9073 O   0  0  0  0  0  0  0  0  0  0  0  0
   14.3979    6.0729   18.7784 C   0  0  0  0  0  0  0  0  0  0  0  0
    8.6811    9.5354   16.9998 C   0  0  0  0  0  0  0  0  0  0  0  0
    9.2512    4.2713   13.7653 O   0  0  0  0  0  0  0  0  0  0  0  0
    9.6495    8.6317   16.8332 N   0  0  0  0  0  0  0  0  0  0  0  0
    6.2934    8.6988   23.1988 O   0  0  0  0  0  0  0  0  0  0  0  0
    7.9806    8.6543   20.5437 C   0  0  0  0  0  0  0  0  0  0  0  0
   13.7270    5.7144   19.8610 O   0  0  0  0  0  0  0  0  0  0  0  0
    8.3351    5.5235   15.4478 C   0  0  0  0  0  0  0  0  0  0  0  0
    8.7700    7.8434   21.3915 C   0  0  0  0  0  0  0  0  0  0  0  0
   11.7856    6.8851   19.2401 C   0  0  0  0  0  0  0  0  0  0  0  0
   10.5281    7.4276   19.5649 C   0  0  0  0  0  0  0  0  0  0  0  0
   10.0256    7.2907   20.8484 C   0  0  0  0  0  0  0  0  0  0  0  0
    9.3113    5.3049   14.4911 C   0  0  0  0  0  0  0  0  0  0  0  0
    9.4607    7.5646   16.0139 C   0  0  0  0  0  0  0  0  0  0  0  0
   10.4192    7.3157   15.0955 C   0  0  0  0  0  0  0  0  0  0  0  0
   10.2489    6.4227   23.0218 N   0  0  0  0  0  0  0  0  0  0  0  0
    7.2472    8.0746   23.5050 C   0  0  0  0  0  0  0  0  0  0  0  0
    9.2051    6.9101   23.4604 C   0  0  0  0  0  0  0  0  0  0  0  0
   11.9646    6.0299   21.4251 C   0  0  0  0  0  0  0  0  0  0  0  0
  1  5  1  0
  1 13  1  0
  2 20  2  0
  2 28  1  0
  2 29  1  0
  3 19  4  0
  3 25  4  0
  4 23  4  0
  4 27  1  0
  4 30  4  0
  5 17  1  0
  6  8  1  0
  6 29  1  0
  7 24  4  0
  7 26  4  0
  8 28  1  0
  9 13  2  0
 10 18  1  0
 10 21  4  0
 10 30  4  0
 11 17  2  0
 12 18  1  0
 13 15  1  0
 14 24  1  0
 15 25  1  0
 16 28  2  0
 17 20  1  0
 19 24  4  0
 20 23  1  0
 21 22  4  0
 22 23  4  0
 25 26  4  0
 27 29  2  0
M  END
$$$$

 Created by Python create_sdf_string function

 30 33  0  0  0  0  0  0  0  0999 V2000
    8.3036    9.8571   18.4133 C   0  0  0  0  0  0  0  0  0  0  0  0
    8.3694    7.6612   22.6703 C   0  0  0  0  0  0  0  0  0  0  0  0
    8.4143    6.6863   16.2273 C   0  0  0  0  0  0  0  0  0  0  0  0
   10.7581    6.5674   21.7636 C   0  0  0  0  0  0  0  0  0  0  0  0
    8.4452    8.7960   19.2958 O   0  0  0  0  0  0  0  0  0  0  0  0
    8.7122    6.7842   24.8569 C   0  0  0  0  0  0  0  0  0  0  0  0
   10.3400    6.1726   14.3081 C   0  0  0  0  0  0  0  0  0  0  0  0
    7.4297    7.5873   24.8962 C   0  0  0  0  0  0  0  0  0  0  0  0
    8.1566   10.0536   16.0516 O   0  0  0  0  0  0  0  0  0  0  0  0
   12.4989    6.2074   20.1776 C   0  0  0  0  0  0  0  0  0  0  0  0
    6.9192    9.1053   20.9073 O   0  0  0  0  0  0  0  0  0  0  0  0
   14.3979    6.0729   18.7784 C   0  0  0  0  0  0  0  0  0  0  0  0
    8.6811    9.5354   16.9998 C   0  0  0  0  0  0  0  0  0  0  0  0
    9.2512    4.2713   13.7653 O   0  0  0  0  0  0  0  0  0  0  0  0
    9.6495    8.6317   16.8332 N   0  0  0  0  0  0  0  0  0  0  0  0
    6.2934    8.6988   23.1988 O   0  0  0  0  0  0  0  0  0  0  0  0
    7.9806    8.6543   20.5437 C   0  0  0  0  0  0  0  0  0  0  0  0
   13.7270    5.7144   19.8610 O   0  0  0  0  0  0  0  0  0  0  0  0
    8.3351    5.5235   15.4478 C   0  0  0  0  0  0  0  0  0  0  0  0
    8.7700    7.8434   21.3915 C   0  0  0  0  0  0  0  0  0  0  0  0
   11.7856    6.8851   19.2401 C   0  0  0  0  0  0  0  0  0  0  0  0
   10.5281    7.4276   19.5649 C   0  0  0  0  0  0  0  0  0  0  0  0
   10.0256    7.2907   20.8484 C   0  0  0  0  0  0  0  0  0  0  0  0
    9.3113    5.3049   14.4911 C   0  0  0  0  0  0  0  0  0  0  0  0
    9.4607    7.5646   16.0139 C   0  0  0  0  0  0  0  0  0  0  0  0
   10.4192    7.3157   15.0955 C   0  0  0  0  0  0  0  0  0  0  0  0
   10.2489    6.4227   23.0218 N   0  0  0  0  0  0  0  0  0  0  0  0
    7.2472    8.0746   23.5050 C   0  0  0  0  0  0  0  0  0  0  0  0
    9.2051    6.9101   23.4604 C   0  0  0  0  0  0  0  0  0  0  0  0
   11.9646    6.0299   21.4251 C   0  0  0  0  0  0  0  0  0  0  0  0
  1  5  1  0
  1 13  1  0
  2 20  2  0
  2 28  1  0
  2 29  1  0
  3 19  4  0
  3 25  4  0
  4 23  4  0
  4 27  1  0
  4 30  4  0
  5 17  1  0
  6  8  1  0
  6 29  1  0
  7 24  4  0
  7 26  4  0
  8 28  1  0
  9 13  2  0
 10 18  1  0
 10 21  4  0
 10 30  4  0
 11 17  2  0
 12 18  1  0
 13 15  1  0
 14 24  1  0
 15 25  1  0
 16 28  2  0
 17 20  1  0
 19 24  4  0
 20 23  1  0
 21 22  4  0
 22 23  4  0
 25 26  4  0
 27 29  2  0
M  END
$$$$

 Created by Python create_sdf_string function

 30 33  0  0  0  0  0  0  0  0999 V2000
    8.3036    9.8571   18.4133 C   0  0  0  0  0  0  0  0  0  0  0  0
    8.3694    7.6612   22.6703 C   0  0  0  0  0  0  0  0  0  0  0  0
    8.4143    6.6863   16.2273 C   0  0  0  0  0  0  0  0  0  0  0  0
   10.7581    6.5674   21.7636 C   0  0  0  0  0  0  0  0  0  0  0  0
    8.4452    8.7960   19.2958 O   0  0  0  0  0  0  0  0  0  0  0  0
    8.7122    6.7842   24.8569 C   0  0  0  0  0  0  0  0  0  0  0  0
   10.3400    6.1726   14.3081 C   0  0  0  0  0  0  0  0  0  0  0  0
    7.4297    7.5873   24.8962 C   0  0  0  0  0  0  0  0  0  0  0  0
    8.1566   10.0536   16.0516 O   0  0  0  0  0  0  0  0  0  0  0  0
   12.4989    6.2074   20.1776 C   0  0  0  0  0  0  0  0  0  0  0  0
    6.9192    9.1053   20.9073 O   0  0  0  0  0  0  0  0  0  0  0  0
   14.3979    6.0729   18.7784 C   0  0  0  0  0  0  0  0  0  0  0  0
    8.6811    9.5354   16.9998 C   0  0  0  0  0  0  0  0  0  0  0  0
    9.2512    4.2713   13.7653 O   0  0  0  0  0  0  0  0  0  0  0  0
    9.6495    8.6317   16.8332 N   0  0  0  0  0  0  0  0  0  0  0  0
    6.2934    8.6988   23.1988 O   0  0  0  0  0  0  0  0  0  0  0  0
    7.9806    8.6543   20.5437 C   0  0  0  0  0  0  0  0  0  0  0  0
   13.7270    5.7144   19.8610 O   0  0  0  0  0  0  0  0  0  0  0  0
    8.3351    5.5235   15.4478 C   0  0  0  0  0  0  0  0  0  0  0  0
    8.7700    7.8434   21.3915 C   0  0  0  0  0  0  0  0  0  0  0  0
   11.7856    6.8851   19.2401 C   0  0  0  0  0  0  0  0  0  0  0  0
   10.5281    7.4276   19.5649 C   0  0  0  0  0  0  0  0  0  0  0  0
   10.0256    7.2907   20.8484 C   0  0  0  0  0  0  0  0  0  0  0  0
    9.3113    5.3049   14.4911 C   0  0  0  0  0  0  0  0  0  0  0  0
    9.4607    7.5646   16.0139 C   0  0  0  0  0  0  0  0  0  0  0  0
   10.4192    7.3157   15.0955 C   0  0  0  0  0  0  0  0  0  0  0  0
   10.2489    6.4227   23.0218 N   0  0  0  0  0  0  0  0  0  0  0  0
    7.2472    8.0746   23.5050 C   0  0  0  0  0  0  0  0  0  0  0  0
    9.2051    6.9101   23.4604 C   0  0  0  0  0  0  0  0  0  0  0  0
   11.9646    6.0299   21.4251 C   0  0  0  0  0  0  0  0  0  0  0  0
  1  5  1  0
  1 13  1  0
  2 20  2  0
  2 28  1  0
  2 29  1  0
  3 19  4  0
  3 25  4  0
  4 23  4  0
  4 27  1  0
  4 30  4  0
  5 17  1  0
  6  8  1  0
  6 29  1  0
  7 24  4  0
  7 26  4  0
  8 28  1  0
  9 13  2  0
 10 18  1  0
 10 21  4  0
 10 30  4  0
 11 17  2  0
 12 18  1  0
 13 15  1  0
 14 24  1  0
 15 25  1  0
 16 28  2  0
 17 20  1  0
 19 24  4  0
 20 23  1  0
 21 22  4  0
 22 23  4  0
 25 26  4  0
 27 29  2  0
M  END
$$$$

 Created by Python create_sdf_string function

 30 33  0  0  0  0  0  0  0  0999 V2000
    8.3036    9.8571   18.4133 C   0  0  0  0  0  0  0  0  0  0  0  0
    8.3694    7.6612   22.6703 C   0  0  0  0  0  0  0  0  0  0  0  0
    8.4143    6.6863   16.2273 C   0  0  0  0  0  0  0  0  0  0  0  0
   10.7581    6.5674   21.7636 C   0  0  0  0  0  0  0  0  0  0  0  0
    8.4452    8.7960   19.2958 O   0  0  0  0  0  0  0  0  0  0  0  0
    8.7122    6.7842   24.8569 C   0  0  0  0  0  0  0  0  0  0  0  0
   10.3400    6.1726   14.3081 C   0  0  0  0  0  0  0  0  0  0  0  0
    7.4297    7.5873   24.8962 C   0  0  0  0  0  0  0  0  0  0  0  0
    8.1566   10.0536   16.0516 O   0  0  0  0  0  0  0  0  0  0  0  0
   12.4989    6.2074   20.1776 C   0  0  0  0  0  0  0  0  0  0  0  0
    6.9192    9.1053   20.9073 O   0  0  0  0  0  0  0  0  0  0  0  0
   14.3979    6.0729   18.7784 C   0  0  0  0  0  0  0  0  0  0  0  0
    8.6811    9.5354   16.9998 C   0  0  0  0  0  0  0  0  0  0  0  0
    9.2512    4.2713   13.7653 O   0  0  0  0  0  0  0  0  0  0  0  0
    9.6495    8.6317   16.8332 N   0  0  0  0  0  0  0  0  0  0  0  0
    6.2934    8.6988   23.1988 O   0  0  0  0  0  0  0  0  0  0  0  0
    7.9806    8.6543   20.5437 C   0  0  0  0  0  0  0  0  0  0  0  0
   13.7270    5.7144   19.8610 O   0  0  0  0  0  0  0  0  0  0  0  0
    8.3351    5.5235   15.4478 C   0  0  0  0  0  0  0  0  0  0  0  0
    8.7700    7.8434   21.3915 C   0  0  0  0  0  0  0  0  0  0  0  0
   11.7856    6.8851   19.2401 C   0  0  0  0  0  0  0  0  0  0  0  0
   10.5281    7.4276   19.5649 C   0  0  0  0  0  0  0  0  0  0  0  0
   10.0256    7.2907   20.8484 C   0  0  0  0  0  0  0  0  0  0  0  0
    9.3113    5.3049   14.4911 C   0  0  0  0  0  0  0  0  0  0  0  0
    9.4607    7.5646   16.0139 C   0  0  0  0  0  0  0  0  0  0  0  0
   10.4192    7.3157   15.0955 C   0  0  0  0  0  0  0  0  0  0  0  0
   10.2489    6.4227   23.0218 N   0  0  0  0  0  0  0  0  0  0  0  0
    7.2472    8.0746   23.5050 C   0  0  0  0  0  0  0  0  0  0  0  0
    9.2051    6.9101   23.4604 C   0  0  0  0  0  0  0  0  0  0  0  0
   11.9646    6.0299   21.4251 C   0  0  0  0  0  0  0  0  0  0  0  0
  1  5  1  0
  1 13  1  0
  2 20  2  0
  2 28  1  0
  2 29  1  0
  3 19  4  0
  3 25  4  0
  4 23  4  0
  4 27  1  0
  4 30  4  0
  5 17  1  0
  6  8  1  0
  6 29  1  0
  7 24  4  0
  7 26  4  0
  8 28  1  0
  9 13  2  0
 10 18  1  0
 10 21  4  0
 10 30  4  0
 11 17  2  0
 12 18  1  0
 13 15  1  0
 14 24  1  0
 15 25  1  0
 16 28  2  0
 17 20  1  0
 19 24  4  0
 20 23  1  0
 21 22  4  0
 22 23  4  0
 25 26  4  0
 27 29  2  0
M  END
$$$$

 Created by Python create_sdf_string function

 30 33  0  0  0  0  0  0  0  0999 V2000
    8.3036    9.8571   18.4133 C   0  0  0  0  0  0  0  0  0  0  0  0
    8.3694    7.6612   22.6703 C   0  0  0  0  0  0  0  0  0  0  0  0
    8.4143    6.6863   16.2273 C   0  0  0  0  0  0  0  0  0  0  0  0
   10.7581    6.5674   21.7636 C   0  0  0  0  0  0  0  0  0  0  0  0
    8.4452    8.7960   19.2958 O   0  0  0  0  0  0  0  0  0  0  0  0
    8.7122    6.7842   24.8569 C   0  0  0  0  0  0  0  0  0  0  0  0
   10.3400    6.1726   14.3081 C   0  0  0  0  0  0  0  0  0  0  0  0
    7.4297    7.5873   24.8962 C   0  0  0  0  0  0  0  0  0  0  0  0
    8.1566   10.0536   16.0516 O   0  0  0  0  0  0  0  0  0  0  0  0
   12.4989    6.2074   20.1776 C   0  0  0  0  0  0  0  0  0  0  0  0
    6.9192    9.1053   20.9073 O   0  0  0  0  0  0  0  0  0  0  0  0
   14.3979    6.0729   18.7784 C   0  0  0  0  0  0  0  0  0  0  0  0
    8.6811    9.5354   16.9998 C   0  0  0  0  0  0  0  0  0  0  0  0
    9.2512    4.2713   13.7653 O   0  0  0  0  0  0  0  0  0  0  0  0
    9.6495    8.6317   16.8332 N   0  0  0  0  0  0  0  0  0  0  0  0
    6.2934    8.6988   23.1988 O   0  0  0  0  0  0  0  0  0  0  0  0
    7.9806    8.6543   20.5437 C   0  0  0  0  0  0  0  0  0  0  0  0
   13.7270    5.7144   19.8610 O   0  0  0  0  0  0  0  0  0  0  0  0
    8.3351    5.5235   15.4478 C   0  0  0  0  0  0  0  0  0  0  0  0
    8.7700    7.8434   21.3915 C   0  0  0  0  0  0  0  0  0  0  0  0
   11.7856    6.8851   19.2401 C   0  0  0  0  0  0  0  0  0  0  0  0
   10.5281    7.4276   19.5649 C   0  0  0  0  0  0  0  0  0  0  0  0
   10.0256    7.2907   20.8484 C   0  0  0  0  0  0  0  0  0  0  0  0
    9.3113    5.3049   14.4911 C   0  0  0  0  0  0  0  0  0  0  0  0
    9.4607    7.5646   16.0139 C   0  0  0  0  0  0  0  0  0  0  0  0
   10.4192    7.3157   15.0955 C   0  0  0  0  0  0  0  0  0  0  0  0
   10.2489    6.4227   23.0218 N   0  0  0  0  0  0  0  0  0  0  0  0
    7.2472    8.0746   23.5050 C   0  0  0  0  0  0  0  0  0  0  0  0
    9.2051    6.9101   23.4604 C   0  0  0  0  0  0  0  0  0  0  0  0
   11.9646    6.0299   21.4251 C   0  0  0  0  0  0  0  0  0  0  0  0
  1  5  1  0
  1 13  1  0
  2 20  2  0
  2 28  1  0
  2 29  1  0
  3 19  4  0
  3 25  4  0
  4 23  4  0
  4 27  1  0
  4 30  4  0
  5 17  1  0
  6  8  1  0
  6 29  1  0
  7 24  4  0
  7 26  4  0
  8 28  1  0
  9 13  2  0
 10 18  1  0
 10 21  4  0
 10 30  4  0
 11 17  2  0
 12 18  1  0
 13 15  1  0
 14 24  1  0
 15 25  1  0
 16 28  2  0
 17 20  1  0
 19 24  4  0
 20 23  1  0
 21 22  4  0
 22 23  4  0
 25 26  4  0
 27 29  2  0
M  END
$$$$

 Created by Python create_sdf_string function

 30 33  0  0  0  0  0  0  0  0999 V2000
    8.3036    9.8571   18.4133 C   0  0  0  0  0  0  0  0  0  0  0  0
    8.3694    7.6612   22.6703 C   0  0  0  0  0  0  0  0  0  0  0  0
    8.4143    6.6863   16.2273 C   0  0  0  0  0  0  0  0  0  0  0  0
   10.7581    6.5674   21.7636 C   0  0  0  0  0  0  0  0  0  0  0  0
    8.4452    8.7960   19.2958 O   0  0  0  0  0  0  0  0  0  0  0  0
    8.7122    6.7842   24.8569 C   0  0  0  0  0  0  0  0  0  0  0  0
   10.3400    6.1726   14.3081 C   0  0  0  0  0  0  0  0  0  0  0  0
    7.4297    7.5873   24.8962 C   0  0  0  0  0  0  0  0  0  0  0  0
    8.1566   10.0536   16.0516 O   0  0  0  0  0  0  0  0  0  0  0  0
   12.4989    6.2074   20.1776 C   0  0  0  0  0  0  0  0  0  0  0  0
    6.9192    9.1053   20.9073 O   0  0  0  0  0  0  0  0  0  0  0  0
   14.3979    6.0729   18.7784 C   0  0  0  0  0  0  0  0  0  0  0  0
    8.6811    9.5354   16.9998 C   0  0  0  0  0  0  0  0  0  0  0  0
    9.2512    4.2713   13.7653 O   0  0  0  0  0  0  0  0  0  0  0  0
    9.6495    8.6317   16.8332 N   0  0  0  0  0  0  0  0  0  0  0  0
    6.2934    8.6988   23.1988 O   0  0  0  0  0  0  0  0  0  0  0  0
    7.9806    8.6543   20.5437 C   0  0  0  0  0  0  0  0  0  0  0  0
   13.7270    5.7144   19.8610 O   0  0  0  0  0  0  0  0  0  0  0  0
    8.3351    5.5235   15.4478 C   0  0  0  0  0  0  0  0  0  0  0  0
    8.7700    7.8434   21.3915 C   0  0  0  0  0  0  0  0  0  0  0  0
   11.7856    6.8851   19.2401 C   0  0  0  0  0  0  0  0  0  0  0  0
   10.5281    7.4276   19.5649 C   0  0  0  0  0  0  0  0  0  0  0  0
   10.0256    7.2907   20.8484 C   0  0  0  0  0  0  0  0  0  0  0  0
    9.3113    5.3049   14.4911 C   0  0  0  0  0  0  0  0  0  0  0  0
    9.4607    7.5646   16.0139 C   0  0  0  0  0  0  0  0  0  0  0  0
   10.4192    7.3157   15.0955 C   0  0  0  0  0  0  0  0  0  0  0  0
   10.2489    6.4227   23.0218 N   0  0  0  0  0  0  0  0  0  0  0  0
    7.2472    8.0746   23.5050 C   0  0  0  0  0  0  0  0  0  0  0  0
    9.2051    6.9101   23.4604 C   0  0  0  0  0  0  0  0  0  0  0  0
   11.9646    6.0299   21.4251 C   0  0  0  0  0  0  0  0  0  0  0  0
  1  5  1  0
  1 13  1  0
  2 20  2  0
  2 28  1  0
  2 29  1  0
  3 19  4  0
  3 25  4  0
  4 23  4  0
  4 27  1  0
  4 30  4  0
  5 17  1  0
  6  8  1  0
  6 29  1  0
  7 24  4  0
  7 26  4  0
  8 28  1  0
  9 13  2  0
 10 18  1  0
 10 21  4  0
 10 30  4  0
 11 17  2  0
 12 18  1  0
 13 15  1  0
 14 24  1  0
 15 25  1  0
 16 28  2  0
 17 20  1  0
 19 24  4  0
 20 23  1  0
 21 22  4  0
 22 23  4  0
 25 26  4  0
 27 29  2  0
M  END
$$$$

 Created by Python create_sdf_string function

 30 33  0  0  0  0  0  0  0  0999 V2000
    8.3036    9.8571   18.4133 C   0  0  0  0  0  0  0  0  0  0  0  0
    8.3694    7.6612   22.6703 C   0  0  0  0  0  0  0  0  0  0  0  0
    8.4143    6.6863   16.2273 C   0  0  0  0  0  0  0  0  0  0  0  0
   10.7581    6.5674   21.7636 C   0  0  0  0  0  0  0  0  0  0  0  0
    8.4452    8.7960   19.2958 O   0  0  0  0  0  0  0  0  0  0  0  0
    8.7122    6.7842   24.8569 C   0  0  0  0  0  0  0  0  0  0  0  0
   10.3400    6.1726   14.3081 C   0  0  0  0  0  0  0  0  0  0  0  0
    7.4297    7.5873   24.8962 C   0  0  0  0  0  0  0  0  0  0  0  0
    8.1566   10.0536   16.0516 O   0  0  0  0  0  0  0  0  0  0  0  0
   12.4989    6.2074   20.1776 C   0  0  0  0  0  0  0  0  0  0  0  0
    6.9192    9.1053   20.9073 O   0  0  0  0  0  0  0  0  0  0  0  0
   14.3979    6.0729   18.7784 C   0  0  0  0  0  0  0  0  0  0  0  0
    8.6811    9.5354   16.9998 C   0  0  0  0  0  0  0  0  0  0  0  0
    9.2512    4.2713   13.7653 O   0  0  0  0  0  0  0  0  0  0  0  0
    9.6495    8.6317   16.8332 N   0  0  0  0  0  0  0  0  0  0  0  0
    6.2934    8.6988   23.1988 O   0  0  0  0  0  0  0  0  0  0  0  0
    7.9806    8.6543   20.5437 C   0  0  0  0  0  0  0  0  0  0  0  0
   13.7270    5.7144   19.8610 O   0  0  0  0  0  0  0  0  0  0  0  0
    8.3351    5.5235   15.4478 C   0  0  0  0  0  0  0  0  0  0  0  0
    8.7700    7.8434   21.3915 C   0  0  0  0  0  0  0  0  0  0  0  0
   11.7856    6.8851   19.2401 C   0  0  0  0  0  0  0  0  0  0  0  0
   10.5281    7.4276   19.5649 C   0  0  0  0  0  0  0  0  0  0  0  0
   10.0256    7.2907   20.8484 C   0  0  0  0  0  0  0  0  0  0  0  0
    9.3113    5.3049   14.4911 C   0  0  0  0  0  0  0  0  0  0  0  0
    9.4607    7.5646   16.0139 C   0  0  0  0  0  0  0  0  0  0  0  0
   10.4192    7.3157   15.0955 C   0  0  0  0  0  0  0  0  0  0  0  0
   10.2489    6.4227   23.0218 N   0  0  0  0  0  0  0  0  0  0  0  0
    7.2472    8.0746   23.5050 C   0  0  0  0  0  0  0  0  0  0  0  0
    9.2051    6.9101   23.4604 C   0  0  0  0  0  0  0  0  0  0  0  0
   11.9646    6.0299   21.4251 C   0  0  0  0  0  0  0  0  0  0  0  0
  1  5  1  0
  1 13  1  0
  2 20  2  0
  2 28  1  0
  2 29  1  0
  3 19  4  0
  3 25  4  0
  4 23  4  0
  4 27  1  0
  4 30  4  0
  5 17  1  0
  6  8  1  0
  6 29  1  0
  7 24  4  0
  7 26  4  0
  8 28  1  0
  9 13  2  0
 10 18  1  0
 10 21  4  0
 10 30  4  0
 11 17  2  0
 12 18  1  0
 13 15  1  0
 14 24  1  0
 15 25  1  0
 16 28  2  0
 17 20  1  0
 19 24  4  0
 20 23  1  0
 21 22  4  0
 22 23  4  0
 25 26  4  0
 27 29  2  0
M  END
$$$$

 Created by Python create_sdf_string function

 30 33  0  0  0  0  0  0  0  0999 V2000
    8.3036    9.8571   18.4133 C   0  0  0  0  0  0  0  0  0  0  0  0
    8.3694    7.6612   22.6703 C   0  0  0  0  0  0  0  0  0  0  0  0
    8.4143    6.6863   16.2273 C   0  0  0  0  0  0  0  0  0  0  0  0
   10.7581    6.5674   21.7636 C   0  0  0  0  0  0  0  0  0  0  0  0
    8.4452    8.7960   19.2958 O   0  0  0  0  0  0  0  0  0  0  0  0
    8.7122    6.7842   24.8569 C   0  0  0  0  0  0  0  0  0  0  0  0
   10.3400    6.1726   14.3081 C   0  0  0  0  0  0  0  0  0  0  0  0
    7.4297    7.5873   24.8962 C   0  0  0  0  0  0  0  0  0  0  0  0
    8.1566   10.0536   16.0516 O   0  0  0  0  0  0  0  0  0  0  0  0
   12.4989    6.2074   20.1776 C   0  0  0  0  0  0  0  0  0  0  0  0
    6.9192    9.1053   20.9073 O   0  0  0  0  0  0  0  0  0  0  0  0
   14.3979    6.0729   18.7784 C   0  0  0  0  0  0  0  0  0  0  0  0
    8.6811    9.5354   16.9998 C   0  0  0  0  0  0  0  0  0  0  0  0
    9.2512    4.2713   13.7653 O   0  0  0  0  0  0  0  0  0  0  0  0
    9.6495    8.6317   16.8332 N   0  0  0  0  0  0  0  0  0  0  0  0
    6.2934    8.6988   23.1988 O   0  0  0  0  0  0  0  0  0  0  0  0
    7.9806    8.6543   20.5437 C   0  0  0  0  0  0  0  0  0  0  0  0
   13.7270    5.7144   19.8610 O   0  0  0  0  0  0  0  0  0  0  0  0
    8.3351    5.5235   15.4478 C   0  0  0  0  0  0  0  0  0  0  0  0
    8.7700    7.8434   21.3915 C   0  0  0  0  0  0  0  0  0  0  0  0
   11.7856    6.8851   19.2401 C   0  0  0  0  0  0  0  0  0  0  0  0
   10.5281    7.4276   19.5649 C   0  0  0  0  0  0  0  0  0  0  0  0
   10.0256    7.2907   20.8484 C   0  0  0  0  0  0  0  0  0  0  0  0
    9.3113    5.3049   14.4911 C   0  0  0  0  0  0  0  0  0  0  0  0
    9.4607    7.5646   16.0139 C   0  0  0  0  0  0  0  0  0  0  0  0
   10.4192    7.3157   15.0955 C   0  0  0  0  0  0  0  0  0  0  0  0
   10.2489    6.4227   23.0218 N   0  0  0  0  0  0  0  0  0  0  0  0
    7.2472    8.0746   23.5050 C   0  0  0  0  0  0  0  0  0  0  0  0
    9.2051    6.9101   23.4604 C   0  0  0  0  0  0  0  0  0  0  0  0
   11.9646    6.0299   21.4251 C   0  0  0  0  0  0  0  0  0  0  0  0
  1  5  1  0
  1 13  1  0
  2 20  2  0
  2 28  1  0
  2 29  1  0
  3 19  4  0
  3 25  4  0
  4 23  4  0
  4 27  1  0
  4 30  4  0
  5 17  1  0
  6  8  1  0
  6 29  1  0
  7 24  4  0
  7 26  4  0
  8 28  1  0
  9 13  2  0
 10 18  1  0
 10 21  4  0
 10 30  4  0
 11 17  2  0
 12 18  1  0
 13 15  1  0
 14 24  1  0
 15 25  1  0
 16 28  2  0
 17 20  1  0
 19 24  4  0
 20 23  1  0
 21 22  4  0
 22 23  4  0
 25 26  4  0
 27 29  2  0
M  END
$$$$

 Created by Python create_sdf_string function

 30 33  0  0  0  0  0  0  0  0999 V2000
    8.3036    9.8571   18.4133 C   0  0  0  0  0  0  0  0  0  0  0  0
    8.3694    7.6612   22.6703 C   0  0  0  0  0  0  0  0  0  0  0  0
    8.4143    6.6863   16.2273 C   0  0  0  0  0  0  0  0  0  0  0  0
   10.7581    6.5674   21.7636 C   0  0  0  0  0  0  0  0  0  0  0  0
    8.4452    8.7960   19.2958 O   0  0  0  0  0  0  0  0  0  0  0  0
    8.7122    6.7842   24.8569 C   0  0  0  0  0  0  0  0  0  0  0  0
   10.3400    6.1726   14.3081 C   0  0  0  0  0  0  0  0  0  0  0  0
    7.4297    7.5873   24.8962 C   0  0  0  0  0  0  0  0  0  0  0  0
    8.1566   10.0536   16.0516 O   0  0  0  0  0  0  0  0  0  0  0  0
   12.4989    6.2074   20.1776 C   0  0  0  0  0  0  0  0  0  0  0  0
    6.9192    9.1053   20.9073 O   0  0  0  0  0  0  0  0  0  0  0  0
   14.3979    6.0729   18.7784 C   0  0  0  0  0  0  0  0  0  0  0  0
    8.6811    9.5354   16.9998 C   0  0  0  0  0  0  0  0  0  0  0  0
    9.2512    4.2713   13.7653 O   0  0  0  0  0  0  0  0  0  0  0  0
    9.6495    8.6317   16.8332 N   0  0  0  0  0  0  0  0  0  0  0  0
    6.2934    8.6988   23.1988 O   0  0  0  0  0  0  0  0  0  0  0  0
    7.9806    8.6543   20.5437 C   0  0  0  0  0  0  0  0  0  0  0  0
   13.7270    5.7144   19.8610 O   0  0  0  0  0  0  0  0  0  0  0  0
    8.3351    5.5235   15.4478 C   0  0  0  0  0  0  0  0  0  0  0  0
    8.7700    7.8434   21.3915 C   0  0  0  0  0  0  0  0  0  0  0  0
   11.7856    6.8851   19.2401 C   0  0  0  0  0  0  0  0  0  0  0  0
   10.5281    7.4276   19.5649 C   0  0  0  0  0  0  0  0  0  0  0  0
   10.0256    7.2907   20.8484 C   0  0  0  0  0  0  0  0  0  0  0  0
    9.3113    5.3049   14.4911 C   0  0  0  0  0  0  0  0  0  0  0  0
    9.4607    7.5646   16.0139 C   0  0  0  0  0  0  0  0  0  0  0  0
   10.4192    7.3157   15.0955 C   0  0  0  0  0  0  0  0  0  0  0  0
   10.2489    6.4227   23.0218 N   0  0  0  0  0  0  0  0  0  0  0  0
    7.2472    8.0746   23.5050 C   0  0  0  0  0  0  0  0  0  0  0  0
    9.2051    6.9101   23.4604 C   0  0  0  0  0  0  0  0  0  0  0  0
   11.9646    6.0299   21.4251 C   0  0  0  0  0  0  0  0  0  0  0  0
  1  5  1  0
  1 13  1  0
  2 20  2  0
  2 28  1  0
  2 29  1  0
  3 19  4  0
  3 25  4  0
  4 23  4  0
  4 27  1  0
  4 30  4  0
  5 17  1  0
  6  8  1  0
  6 29  1  0
  7 24  4  0
  7 26  4  0
  8 28  1  0
  9 13  2  0
 10 18  1  0
 10 21  4  0
 10 30  4  0
 11 17  2  0
 12 18  1  0
 13 15  1  0
 14 24  1  0
 15 25  1  0
 16 28  2  0
 17 20  1  0
 19 24  4  0
 20 23  1  0
 21 22  4  0
 22 23  4  0
 25 26  4  0
 27 29  2  0
M  END
$$$$

 Created by Python create_sdf_string function

 30 33  0  0  0  0  0  0  0  0999 V2000
    8.3036    9.8571   18.4133 C   0  0  0  0  0  0  0  0  0  0  0  0
    8.3694    7.6612   22.6703 C   0  0  0  0  0  0  0  0  0  0  0  0
    8.4143    6.6863   16.2273 C   0  0  0  0  0  0  0  0  0  0  0  0
   10.7581    6.5674   21.7636 C   0  0  0  0  0  0  0  0  0  0  0  0
    8.4452    8.7960   19.2958 O   0  0  0  0  0  0  0  0  0  0  0  0
    8.7122    6.7842   24.8569 C   0  0  0  0  0  0  0  0  0  0  0  0
   10.3400    6.1726   14.3081 C   0  0  0  0  0  0  0  0  0  0  0  0
    7.4297    7.5873   24.8962 C   0  0  0  0  0  0  0  0  0  0  0  0
    8.1566   10.0536   16.0516 O   0  0  0  0  0  0  0  0  0  0  0  0
   12.4989    6.2074   20.1776 C   0  0  0  0  0  0  0  0  0  0  0  0
    6.9192    9.1053   20.9073 O   0  0  0  0  0  0  0  0  0  0  0  0
   14.3979    6.0729   18.7784 C   0  0  0  0  0  0  0  0  0  0  0  0
    8.6811    9.5354   16.9998 C   0  0  0  0  0  0  0  0  0  0  0  0
    9.2512    4.2713   13.7653 O   0  0  0  0  0  0  0  0  0  0  0  0
    9.6495    8.6317   16.8332 N   0  0  0  0  0  0  0  0  0  0  0  0
    6.2934    8.6988   23.1988 O   0  0  0  0  0  0  0  0  0  0  0  0
    7.9806    8.6543   20.5437 C   0  0  0  0  0  0  0  0  0  0  0  0
   13.7270    5.7144   19.8610 O   0  0  0  0  0  0  0  0  0  0  0  0
    8.3351    5.5235   15.4478 C   0  0  0  0  0  0  0  0  0  0  0  0
    8.7700    7.8434   21.3915 C   0  0  0  0  0  0  0  0  0  0  0  0
   11.7856    6.8851   19.2401 C   0  0  0  0  0  0  0  0  0  0  0  0
   10.5281    7.4276   19.5649 C   0  0  0  0  0  0  0  0  0  0  0  0
   10.0256    7.2907   20.8484 C   0  0  0  0  0  0  0  0  0  0  0  0
    9.3113    5.3049   14.4911 C   0  0  0  0  0  0  0  0  0  0  0  0
    9.4607    7.5646   16.0139 C   0  0  0  0  0  0  0  0  0  0  0  0
   10.4192    7.3157   15.0955 C   0  0  0  0  0  0  0  0  0  0  0  0
   10.2489    6.4227   23.0218 N   0  0  0  0  0  0  0  0  0  0  0  0
    7.2472    8.0746   23.5050 C   0  0  0  0  0  0  0  0  0  0  0  0
    9.2051    6.9101   23.4604 C   0  0  0  0  0  0  0  0  0  0  0  0
   11.9646    6.0299   21.4251 C   0  0  0  0  0  0  0  0  0  0  0  0
  1  5  1  0
  1 13  1  0
  2 20  2  0
  2 28  1  0
  2 29  1  0
  3 19  4  0
  3 25  4  0
  4 23  4  0
  4 27  1  0
  4 30  4  0
  5 17  1  0
  6  8  1  0
  6 29  1  0
  7 24  4  0
  7 26  4  0
  8 28  1  0
  9 13  2  0
 10 18  1  0
 10 21  4  0
 10 30  4  0
 11 17  2  0
 12 18  1  0
 13 15  1  0
 14 24  1  0
 15 25  1  0
 16 28  2  0
 17 20  1  0
 19 24  4  0
 20 23  1  0
 21 22  4  0
 22 23  4  0
 25 26  4  0
 27 29  2  0
M  END
$$$$

 Created by Python create_sdf_string function

 30 33  0  0  0  0  0  0  0  0999 V2000
    8.3036    9.8571   18.4133 C   0  0  0  0  0  0  0  0  0  0  0  0
    8.3694    7.6612   22.6703 C   0  0  0  0  0  0  0  0  0  0  0  0
    8.4143    6.6863   16.2273 C   0  0  0  0  0  0  0  0  0  0  0  0
   10.7581    6.5674   21.7636 C   0  0  0  0  0  0  0  0  0  0  0  0
    8.4452    8.7960   19.2958 O   0  0  0  0  0  0  0  0  0  0  0  0
    8.7122    6.7842   24.8569 C   0  0  0  0  0  0  0  0  0  0  0  0
   10.3400    6.1726   14.3081 C   0  0  0  0  0  0  0  0  0  0  0  0
    7.4297    7.5873   24.8962 C   0  0  0  0  0  0  0  0  0  0  0  0
    8.1566   10.0536   16.0516 O   0  0  0  0  0  0  0  0  0  0  0  0
   12.4989    6.2074   20.1776 C   0  0  0  0  0  0  0  0  0  0  0  0
    6.9192    9.1053   20.9073 O   0  0  0  0  0  0  0  0  0  0  0  0
   14.3979    6.0729   18.7784 C   0  0  0  0  0  0  0  0  0  0  0  0
    8.6811    9.5354   16.9998 C   0  0  0  0  0  0  0  0  0  0  0  0
    9.2512    4.2713   13.7653 O   0  0  0  0  0  0  0  0  0  0  0  0
    9.6495    8.6317   16.8332 N   0  0  0  0  0  0  0  0  0  0  0  0
    6.2934    8.6988   23.1988 O   0  0  0  0  0  0  0  0  0  0  0  0
    7.9806    8.6543   20.5437 C   0  0  0  0  0  0  0  0  0  0  0  0
   13.7270    5.7144   19.8610 O   0  0  0  0  0  0  0  0  0  0  0  0
    8.3351    5.5235   15.4478 C   0  0  0  0  0  0  0  0  0  0  0  0
    8.7700    7.8434   21.3915 C   0  0  0  0  0  0  0  0  0  0  0  0
   11.7856    6.8851   19.2401 C   0  0  0  0  0  0  0  0  0  0  0  0
   10.5281    7.4276   19.5649 C   0  0  0  0  0  0  0  0  0  0  0  0
   10.0256    7.2907   20.8484 C   0  0  0  0  0  0  0  0  0  0  0  0
    9.3113    5.3049   14.4911 C   0  0  0  0  0  0  0  0  0  0  0  0
    9.4607    7.5646   16.0139 C   0  0  0  0  0  0  0  0  0  0  0  0
   10.4192    7.3157   15.0955 C   0  0  0  0  0  0  0  0  0  0  0  0
   10.2489    6.4227   23.0218 N   0  0  0  0  0  0  0  0  0  0  0  0
    7.2472    8.0746   23.5050 C   0  0  0  0  0  0  0  0  0  0  0  0
    9.2051    6.9101   23.4604 C   0  0  0  0  0  0  0  0  0  0  0  0
   11.9646    6.0299   21.4251 C   0  0  0  0  0  0  0  0  0  0  0  0
  1  5  1  0
  1 13  1  0
  2 20  2  0
  2 28  1  0
  2 29  1  0
  3 19  4  0
  3 25  4  0
  4 23  4  0
  4 27  1  0
  4 30  4  0
  5 17  1  0
  6  8  1  0
  6 29  1  0
  7 24  4  0
  7 26  4  0
  8 28  1  0
  9 13  2  0
 10 18  1  0
 10 21  4  0
 10 30  4  0
 11 17  2  0
 12 18  1  0
 13 15  1  0
 14 24  1  0
 15 25  1  0
 16 28  2  0
 17 20  1  0
 19 24  4  0
 20 23  1  0
 21 22  4  0
 22 23  4  0
 25 26  4  0
 27 29  2  0
M  END
$$$$

 Created by Python create_sdf_string function

 30 33  0  0  0  0  0  0  0  0999 V2000
    8.3036    9.8571   18.4133 C   0  0  0  0  0  0  0  0  0  0  0  0
    8.3694    7.6612   22.6703 C   0  0  0  0  0  0  0  0  0  0  0  0
    8.4143    6.6863   16.2273 C   0  0  0  0  0  0  0  0  0  0  0  0
   10.7581    6.5674   21.7636 C   0  0  0  0  0  0  0  0  0  0  0  0
    8.4452    8.7960   19.2958 O   0  0  0  0  0  0  0  0  0  0  0  0
    8.7122    6.7842   24.8569 C   0  0  0  0  0  0  0  0  0  0  0  0
   10.3400    6.1726   14.3081 C   0  0  0  0  0  0  0  0  0  0  0  0
    7.4297    7.5873   24.8962 C   0  0  0  0  0  0  0  0  0  0  0  0
    8.1566   10.0536   16.0516 O   0  0  0  0  0  0  0  0  0  0  0  0
   12.4989    6.2074   20.1776 C   0  0  0  0  0  0  0  0  0  0  0  0
    6.9192    9.1053   20.9073 O   0  0  0  0  0  0  0  0  0  0  0  0
   14.3979    6.0729   18.7784 C   0  0  0  0  0  0  0  0  0  0  0  0
    8.6811    9.5354   16.9998 C   0  0  0  0  0  0  0  0  0  0  0  0
    9.2512    4.2713   13.7653 O   0  0  0  0  0  0  0  0  0  0  0  0
    9.6495    8.6317   16.8332 N   0  0  0  0  0  0  0  0  0  0  0  0
    6.2934    8.6988   23.1988 O   0  0  0  0  0  0  0  0  0  0  0  0
    7.9806    8.6543   20.5437 C   0  0  0  0  0  0  0  0  0  0  0  0
   13.7270    5.7144   19.8610 O   0  0  0  0  0  0  0  0  0  0  0  0
    8.3351    5.5235   15.4478 C   0  0  0  0  0  0  0  0  0  0  0  0
    8.7700    7.8434   21.3915 C   0  0  0  0  0  0  0  0  0  0  0  0
   11.7856    6.8851   19.2401 C   0  0  0  0  0  0  0  0  0  0  0  0
   10.5281    7.4276   19.5649 C   0  0  0  0  0  0  0  0  0  0  0  0
   10.0256    7.2907   20.8484 C   0  0  0  0  0  0  0  0  0  0  0  0
    9.3113    5.3049   14.4911 C   0  0  0  0  0  0  0  0  0  0  0  0
    9.4607    7.5646   16.0139 C   0  0  0  0  0  0  0  0  0  0  0  0
   10.4192    7.3157   15.0955 C   0  0  0  0  0  0  0  0  0  0  0  0
   10.2489    6.4227   23.0218 N   0  0  0  0  0  0  0  0  0  0  0  0
    7.2472    8.0746   23.5050 C   0  0  0  0  0  0  0  0  0  0  0  0
    9.2051    6.9101   23.4604 C   0  0  0  0  0  0  0  0  0  0  0  0
   11.9646    6.0299   21.4251 C   0  0  0  0  0  0  0  0  0  0  0  0
  1  5  1  0
  1 13  1  0
  2 20  2  0
  2 28  1  0
  2 29  1  0
  3 19  4  0
  3 25  4  0
  4 23  4  0
  4 27  1  0
  4 30  4  0
  5 17  1  0
  6  8  1  0
  6 29  1  0
  7 24  4  0
  7 26  4  0
  8 28  1  0
  9 13  2  0
 10 18  1  0
 10 21  4  0
 10 30  4  0
 11 17  2  0
 12 18  1  0
 13 15  1  0
 14 24  1  0
 15 25  1  0
 16 28  2  0
 17 20  1  0
 19 24  4  0
 20 23  1  0
 21 22  4  0
 22 23  4  0
 25 26  4  0
 27 29  2  0
M  END
$$$$

 Created by Python create_sdf_string function

 30 33  0  0  0  0  0  0  0  0999 V2000
    8.3036    9.8571   18.4133 C   0  0  0  0  0  0  0  0  0  0  0  0
    8.3694    7.6612   22.6703 C   0  0  0  0  0  0  0  0  0  0  0  0
    8.4143    6.6863   16.2273 C   0  0  0  0  0  0  0  0  0  0  0  0
   10.7581    6.5674   21.7636 C   0  0  0  0  0  0  0  0  0  0  0  0
    8.4452    8.7960   19.2958 O   0  0  0  0  0  0  0  0  0  0  0  0
    8.7122    6.7842   24.8569 C   0  0  0  0  0  0  0  0  0  0  0  0
   10.3400    6.1726   14.3081 C   0  0  0  0  0  0  0  0  0  0  0  0
    7.4297    7.5873   24.8962 C   0  0  0  0  0  0  0  0  0  0  0  0
    8.1566   10.0536   16.0516 O   0  0  0  0  0  0  0  0  0  0  0  0
   12.4989    6.2074   20.1776 C   0  0  0  0  0  0  0  0  0  0  0  0
    6.9192    9.1053   20.9073 O   0  0  0  0  0  0  0  0  0  0  0  0
   14.3979    6.0729   18.7784 C   0  0  0  0  0  0  0  0  0  0  0  0
    8.6811    9.5354   16.9998 C   0  0  0  0  0  0  0  0  0  0  0  0
    9.2512    4.2713   13.7653 O   0  0  0  0  0  0  0  0  0  0  0  0
    9.6495    8.6317   16.8332 N   0  0  0  0  0  0  0  0  0  0  0  0
    6.2934    8.6988   23.1988 O   0  0  0  0  0  0  0  0  0  0  0  0
    7.9806    8.6543   20.5437 C   0  0  0  0  0  0  0  0  0  0  0  0
   13.7270    5.7144   19.8610 O   0  0  0  0  0  0  0  0  0  0  0  0
    8.3351    5.5235   15.4478 C   0  0  0  0  0  0  0  0  0  0  0  0
    8.7700    7.8434   21.3915 C   0  0  0  0  0  0  0  0  0  0  0  0
   11.7856    6.8851   19.2401 C   0  0  0  0  0  0  0  0  0  0  0  0
   10.5281    7.4276   19.5649 C   0  0  0  0  0  0  0  0  0  0  0  0
   10.0256    7.2907   20.8484 C   0  0  0  0  0  0  0  0  0  0  0  0
    9.3113    5.3049   14.4911 C   0  0  0  0  0  0  0  0  0  0  0  0
    9.4607    7.5646   16.0139 C   0  0  0  0  0  0  0  0  0  0  0  0
   10.4192    7.3157   15.0955 C   0  0  0  0  0  0  0  0  0  0  0  0
   10.2489    6.4227   23.0218 N   0  0  0  0  0  0  0  0  0  0  0  0
    7.2472    8.0746   23.5050 C   0  0  0  0  0  0  0  0  0  0  0  0
    9.2051    6.9101   23.4604 C   0  0  0  0  0  0  0  0  0  0  0  0
   11.9646    6.0299   21.4251 C   0  0  0  0  0  0  0  0  0  0  0  0
  1  5  1  0
  1 13  1  0
  2 20  2  0
  2 28  1  0
  2 29  1  0
  3 19  4  0
  3 25  4  0
  4 23  4  0
  4 27  1  0
  4 30  4  0
  5 17  1  0
  6  8  1  0
  6 29  1  0
  7 24  4  0
  7 26  4  0
  8 28  1  0
  9 13  2  0
 10 18  1  0
 10 21  4  0
 10 30  4  0
 11 17  2  0
 12 18  1  0
 13 15  1  0
 14 24  1  0
 15 25  1  0
 16 28  2  0
 17 20  1  0
 19 24  4  0
 20 23  1  0
 21 22  4  0
 22 23  4  0
 25 26  4  0
 27 29  2  0
M  END
$$$$

 Created by Python create_sdf_string function

 30 33  0  0  0  0  0  0  0  0999 V2000
    8.3036    9.8571   18.4133 C   0  0  0  0  0  0  0  0  0  0  0  0
    8.3694    7.6612   22.6703 C   0  0  0  0  0  0  0  0  0  0  0  0
    8.4143    6.6863   16.2273 C   0  0  0  0  0  0  0  0  0  0  0  0
   10.7581    6.5674   21.7636 C   0  0  0  0  0  0  0  0  0  0  0  0
    8.4452    8.7960   19.2958 O   0  0  0  0  0  0  0  0  0  0  0  0
    8.7122    6.7842   24.8569 C   0  0  0  0  0  0  0  0  0  0  0  0
   10.3400    6.1726   14.3081 C   0  0  0  0  0  0  0  0  0  0  0  0
    7.4297    7.5873   24.8962 C   0  0  0  0  0  0  0  0  0  0  0  0
    8.1566   10.0536   16.0516 O   0  0  0  0  0  0  0  0  0  0  0  0
   12.4989    6.2074   20.1776 C   0  0  0  0  0  0  0  0  0  0  0  0
    6.9192    9.1053   20.9073 O   0  0  0  0  0  0  0  0  0  0  0  0
   14.3979    6.0729   18.7784 C   0  0  0  0  0  0  0  0  0  0  0  0
    8.6811    9.5354   16.9998 C   0  0  0  0  0  0  0  0  0  0  0  0
    9.2512    4.2713   13.7653 O   0  0  0  0  0  0  0  0  0  0  0  0
    9.6495    8.6317   16.8332 N   0  0  0  0  0  0  0  0  0  0  0  0
    6.2934    8.6988   23.1988 O   0  0  0  0  0  0  0  0  0  0  0  0
    7.9806    8.6543   20.5437 C   0  0  0  0  0  0  0  0  0  0  0  0
   13.7270    5.7144   19.8610 O   0  0  0  0  0  0  0  0  0  0  0  0
    8.3351    5.5235   15.4478 C   0  0  0  0  0  0  0  0  0  0  0  0
    8.7700    7.8434   21.3915 C   0  0  0  0  0  0  0  0  0  0  0  0
   11.7856    6.8851   19.2401 C   0  0  0  0  0  0  0  0  0  0  0  0
   10.5281    7.4276   19.5649 C   0  0  0  0  0  0  0  0  0  0  0  0
   10.0256    7.2907   20.8484 C   0  0  0  0  0  0  0  0  0  0  0  0
    9.3113    5.3049   14.4911 C   0  0  0  0  0  0  0  0  0  0  0  0
    9.4607    7.5646   16.0139 C   0  0  0  0  0  0  0  0  0  0  0  0
   10.4192    7.3157   15.0955 C   0  0  0  0  0  0  0  0  0  0  0  0
   10.2489    6.4227   23.0218 N   0  0  0  0  0  0  0  0  0  0  0  0
    7.2472    8.0746   23.5050 C   0  0  0  0  0  0  0  0  0  0  0  0
    9.2051    6.9101   23.4604 C   0  0  0  0  0  0  0  0  0  0  0  0
   11.9646    6.0299   21.4251 C   0  0  0  0  0  0  0  0  0  0  0  0
  1  5  1  0
  1 13  1  0
  2 20  2  0
  2 28  1  0
  2 29  1  0
  3 19  4  0
  3 25  4  0
  4 23  4  0
  4 27  1  0
  4 30  4  0
  5 17  1  0
  6  8  1  0
  6 29  1  0
  7 24  4  0
  7 26  4  0
  8 28  1  0
  9 13  2  0
 10 18  1  0
 10 21  4  0
 10 30  4  0
 11 17  2  0
 12 18  1  0
 13 15  1  0
 14 24  1  0
 15 25  1  0
 16 28  2  0
 17 20  1  0
 19 24  4  0
 20 23  1  0
 21 22  4  0
 22 23  4  0
 25 26  4  0
 27 29  2  0
M  END
$$$$

 Created by Python create_sdf_string function

 30 33  0  0  0  0  0  0  0  0999 V2000
    8.3036    9.8571   18.4133 C   0  0  0  0  0  0  0  0  0  0  0  0
    8.3694    7.6612   22.6703 C   0  0  0  0  0  0  0  0  0  0  0  0
    8.4143    6.6863   16.2273 C   0  0  0  0  0  0  0  0  0  0  0  0
   10.7581    6.5674   21.7636 C   0  0  0  0  0  0  0  0  0  0  0  0
    8.4452    8.7960   19.2958 O   0  0  0  0  0  0  0  0  0  0  0  0
    8.7122    6.7842   24.8569 C   0  0  0  0  0  0  0  0  0  0  0  0
   10.3400    6.1726   14.3081 C   0  0  0  0  0  0  0  0  0  0  0  0
    7.4297    7.5873   24.8962 C   0  0  0  0  0  0  0  0  0  0  0  0
    8.1566   10.0536   16.0516 O   0  0  0  0  0  0  0  0  0  0  0  0
   12.4989    6.2074   20.1776 C   0  0  0  0  0  0  0  0  0  0  0  0
    6.9192    9.1053   20.9073 O   0  0  0  0  0  0  0  0  0  0  0  0
   14.3979    6.0729   18.7784 C   0  0  0  0  0  0  0  0  0  0  0  0
    8.6811    9.5354   16.9998 C   0  0  0  0  0  0  0  0  0  0  0  0
    9.2512    4.2713   13.7653 O   0  0  0  0  0  0  0  0  0  0  0  0
    9.6495    8.6317   16.8332 N   0  0  0  0  0  0  0  0  0  0  0  0
    6.2934    8.6988   23.1988 O   0  0  0  0  0  0  0  0  0  0  0  0
    7.9806    8.6543   20.5437 C   0  0  0  0  0  0  0  0  0  0  0  0
   13.7270    5.7144   19.8610 O   0  0  0  0  0  0  0  0  0  0  0  0
    8.3351    5.5235   15.4478 C   0  0  0  0  0  0  0  0  0  0  0  0
    8.7700    7.8434   21.3915 C   0  0  0  0  0  0  0  0  0  0  0  0
   11.7856    6.8851   19.2401 C   0  0  0  0  0  0  0  0  0  0  0  0
   10.5281    7.4276   19.5649 C   0  0  0  0  0  0  0  0  0  0  0  0
   10.0256    7.2907   20.8484 C   0  0  0  0  0  0  0  0  0  0  0  0
    9.3113    5.3049   14.4911 C   0  0  0  0  0  0  0  0  0  0  0  0
    9.4607    7.5646   16.0139 C   0  0  0  0  0  0  0  0  0  0  0  0
   10.4192    7.3157   15.0955 C   0  0  0  0  0  0  0  0  0  0  0  0
   10.2489    6.4227   23.0218 N   0  0  0  0  0  0  0  0  0  0  0  0
    7.2472    8.0746   23.5050 C   0  0  0  0  0  0  0  0  0  0  0  0
    9.2051    6.9101   23.4604 C   0  0  0  0  0  0  0  0  0  0  0  0
   11.9646    6.0299   21.4251 C   0  0  0  0  0  0  0  0  0  0  0  0
  1  5  1  0
  1 13  1  0
  2 20  2  0
  2 28  1  0
  2 29  1  0
  3 19  4  0
  3 25  4  0
  4 23  4  0
  4 27  1  0
  4 30  4  0
  5 17  1  0
  6  8  1  0
  6 29  1  0
  7 24  4  0
  7 26  4  0
  8 28  1  0
  9 13  2  0
 10 18  1  0
 10 21  4  0
 10 30  4  0
 11 17  2  0
 12 18  1  0
 13 15  1  0
 14 24  1  0
 15 25  1  0
 16 28  2  0
 17 20  1  0
 19 24  4  0
 20 23  1  0
 21 22  4  0
 22 23  4  0
 25 26  4  0
 27 29  2  0
M  END
$$$$

 Created by Python create_sdf_string function

 30 33  0  0  0  0  0  0  0  0999 V2000
    8.3036    9.8571   18.4133 C   0  0  0  0  0  0  0  0  0  0  0  0
    8.3694    7.6612   22.6703 C   0  0  0  0  0  0  0  0  0  0  0  0
    8.4143    6.6863   16.2273 C   0  0  0  0  0  0  0  0  0  0  0  0
   10.7581    6.5674   21.7636 C   0  0  0  0  0  0  0  0  0  0  0  0
    8.4452    8.7960   19.2958 O   0  0  0  0  0  0  0  0  0  0  0  0
    8.7122    6.7842   24.8569 C   0  0  0  0  0  0  0  0  0  0  0  0
   10.3400    6.1726   14.3081 C   0  0  0  0  0  0  0  0  0  0  0  0
    7.4297    7.5873   24.8962 C   0  0  0  0  0  0  0  0  0  0  0  0
    8.1566   10.0536   16.0516 O   0  0  0  0  0  0  0  0  0  0  0  0
   12.4989    6.2074   20.1776 C   0  0  0  0  0  0  0  0  0  0  0  0
    6.9192    9.1053   20.9073 O   0  0  0  0  0  0  0  0  0  0  0  0
   14.3979    6.0729   18.7784 C   0  0  0  0  0  0  0  0  0  0  0  0
    8.6811    9.5354   16.9998 C   0  0  0  0  0  0  0  0  0  0  0  0
    9.2512    4.2713   13.7653 O   0  0  0  0  0  0  0  0  0  0  0  0
    9.6495    8.6317   16.8332 N   0  0  0  0  0  0  0  0  0  0  0  0
    6.2934    8.6988   23.1988 O   0  0  0  0  0  0  0  0  0  0  0  0
    7.9806    8.6543   20.5437 C   0  0  0  0  0  0  0  0  0  0  0  0
   13.7270    5.7144   19.8610 O   0  0  0  0  0  0  0  0  0  0  0  0
    8.3351    5.5235   15.4478 C   0  0  0  0  0  0  0  0  0  0  0  0
    8.7700    7.8434   21.3915 C   0  0  0  0  0  0  0  0  0  0  0  0
   11.7856    6.8851   19.2401 C   0  0  0  0  0  0  0  0  0  0  0  0
   10.5281    7.4276   19.5649 C   0  0  0  0  0  0  0  0  0  0  0  0
   10.0256    7.2907   20.8484 C   0  0  0  0  0  0  0  0  0  0  0  0
    9.3113    5.3049   14.4911 C   0  0  0  0  0  0  0  0  0  0  0  0
    9.4607    7.5646   16.0139 C   0  0  0  0  0  0  0  0  0  0  0  0
   10.4192    7.3157   15.0955 C   0  0  0  0  0  0  0  0  0  0  0  0
   10.2489    6.4227   23.0218 N   0  0  0  0  0  0  0  0  0  0  0  0
    7.2472    8.0746   23.5050 C   0  0  0  0  0  0  0  0  0  0  0  0
    9.2051    6.9101   23.4604 C   0  0  0  0  0  0  0  0  0  0  0  0
   11.9646    6.0299   21.4251 C   0  0  0  0  0  0  0  0  0  0  0  0
  1  5  1  0
  1 13  1  0
  2 20  2  0
  2 28  1  0
  2 29  1  0
  3 19  4  0
  3 25  4  0
  4 23  4  0
  4 27  1  0
  4 30  4  0
  5 17  1  0
  6  8  1  0
  6 29  1  0
  7 24  4  0
  7 26  4  0
  8 28  1  0
  9 13  2  0
 10 18  1  0
 10 21  4  0
 10 30  4  0
 11 17  2  0
 12 18  1  0
 13 15  1  0
 14 24  1  0
 15 25  1  0
 16 28  2  0
 17 20  1  0
 19 24  4  0
 20 23  1  0
 21 22  4  0
 22 23  4  0
 25 26  4  0
 27 29  2  0
M  END
$$$$

 Created by Python create_sdf_string function

 30 33  0  0  0  0  0  0  0  0999 V2000
    8.3036    9.8571   18.4133 C   0  0  0  0  0  0  0  0  0  0  0  0
    8.3694    7.6612   22.6703 C   0  0  0  0  0  0  0  0  0  0  0  0
    8.4143    6.6863   16.2273 C   0  0  0  0  0  0  0  0  0  0  0  0
   10.7581    6.5674   21.7636 C   0  0  0  0  0  0  0  0  0  0  0  0
    8.4452    8.7960   19.2958 O   0  0  0  0  0  0  0  0  0  0  0  0
    8.7122    6.7842   24.8569 C   0  0  0  0  0  0  0  0  0  0  0  0
   10.3400    6.1726   14.3081 C   0  0  0  0  0  0  0  0  0  0  0  0
    7.4297    7.5873   24.8962 C   0  0  0  0  0  0  0  0  0  0  0  0
    8.1566   10.0536   16.0516 O   0  0  0  0  0  0  0  0  0  0  0  0
   12.4989    6.2074   20.1776 C   0  0  0  0  0  0  0  0  0  0  0  0
    6.9192    9.1053   20.9073 O   0  0  0  0  0  0  0  0  0  0  0  0
   14.3979    6.0729   18.7784 C   0  0  0  0  0  0  0  0  0  0  0  0
    8.6811    9.5354   16.9998 C   0  0  0  0  0  0  0  0  0  0  0  0
    9.2512    4.2713   13.7653 O   0  0  0  0  0  0  0  0  0  0  0  0
    9.6495    8.6317   16.8332 N   0  0  0  0  0  0  0  0  0  0  0  0
    6.2934    8.6988   23.1988 O   0  0  0  0  0  0  0  0  0  0  0  0
    7.9806    8.6543   20.5437 C   0  0  0  0  0  0  0  0  0  0  0  0
   13.7270    5.7144   19.8610 O   0  0  0  0  0  0  0  0  0  0  0  0
    8.3351    5.5235   15.4478 C   0  0  0  0  0  0  0  0  0  0  0  0
    8.7700    7.8434   21.3915 C   0  0  0  0  0  0  0  0  0  0  0  0
   11.7856    6.8851   19.2401 C   0  0  0  0  0  0  0  0  0  0  0  0
   10.5281    7.4276   19.5649 C   0  0  0  0  0  0  0  0  0  0  0  0
   10.0256    7.2907   20.8484 C   0  0  0  0  0  0  0  0  0  0  0  0
    9.3113    5.3049   14.4911 C   0  0  0  0  0  0  0  0  0  0  0  0
    9.4607    7.5646   16.0139 C   0  0  0  0  0  0  0  0  0  0  0  0
   10.4192    7.3157   15.0955 C   0  0  0  0  0  0  0  0  0  0  0  0
   10.2489    6.4227   23.0218 N   0  0  0  0  0  0  0  0  0  0  0  0
    7.2472    8.0746   23.5050 C   0  0  0  0  0  0  0  0  0  0  0  0
    9.2051    6.9101   23.4604 C   0  0  0  0  0  0  0  0  0  0  0  0
   11.9646    6.0299   21.4251 C   0  0  0  0  0  0  0  0  0  0  0  0
  1  5  1  0
  1 13  1  0
  2 20  2  0
  2 28  1  0
  2 29  1  0
  3 19  4  0
  3 25  4  0
  4 23  4  0
  4 27  1  0
  4 30  4  0
  5 17  1  0
  6  8  1  0
  6 29  1  0
  7 24  4  0
  7 26  4  0
  8 28  1  0
  9 13  2  0
 10 18  1  0
 10 21  4  0
 10 30  4  0
 11 17  2  0
 12 18  1  0
 13 15  1  0
 14 24  1  0
 15 25  1  0
 16 28  2  0
 17 20  1  0
 19 24  4  0
 20 23  1  0
 21 22  4  0
 22 23  4  0
 25 26  4  0
 27 29  2  0
M  END
$$$$

 Created by Python create_sdf_string function

 30 33  0  0  0  0  0  0  0  0999 V2000
    8.3036    9.8571   18.4133 C   0  0  0  0  0  0  0  0  0  0  0  0
    8.3694    7.6612   22.6703 C   0  0  0  0  0  0  0  0  0  0  0  0
    8.4143    6.6863   16.2273 C   0  0  0  0  0  0  0  0  0  0  0  0
   10.7581    6.5674   21.7636 C   0  0  0  0  0  0  0  0  0  0  0  0
    8.4452    8.7960   19.2958 O   0  0  0  0  0  0  0  0  0  0  0  0
    8.7122    6.7842   24.8569 C   0  0  0  0  0  0  0  0  0  0  0  0
   10.3400    6.1726   14.3081 C   0  0  0  0  0  0  0  0  0  0  0  0
    7.4297    7.5873   24.8962 C   0  0  0  0  0  0  0  0  0  0  0  0
    8.1566   10.0536   16.0516 O   0  0  0  0  0  0  0  0  0  0  0  0
   12.4989    6.2074   20.1776 C   0  0  0  0  0  0  0  0  0  0  0  0
    6.9192    9.1053   20.9073 O   0  0  0  0  0  0  0  0  0  0  0  0
   14.3979    6.0729   18.7784 C   0  0  0  0  0  0  0  0  0  0  0  0
    8.6811    9.5354   16.9998 C   0  0  0  0  0  0  0  0  0  0  0  0
    9.2512    4.2713   13.7653 O   0  0  0  0  0  0  0  0  0  0  0  0
    9.6495    8.6317   16.8332 N   0  0  0  0  0  0  0  0  0  0  0  0
    6.2934    8.6988   23.1988 O   0  0  0  0  0  0  0  0  0  0  0  0
    7.9806    8.6543   20.5437 C   0  0  0  0  0  0  0  0  0  0  0  0
   13.7270    5.7144   19.8610 O   0  0  0  0  0  0  0  0  0  0  0  0
    8.3351    5.5235   15.4478 C   0  0  0  0  0  0  0  0  0  0  0  0
    8.7700    7.8434   21.3915 C   0  0  0  0  0  0  0  0  0  0  0  0
   11.7856    6.8851   19.2401 C   0  0  0  0  0  0  0  0  0  0  0  0
   10.5281    7.4276   19.5649 C   0  0  0  0  0  0  0  0  0  0  0  0
   10.0256    7.2907   20.8484 C   0  0  0  0  0  0  0  0  0  0  0  0
    9.3113    5.3049   14.4911 C   0  0  0  0  0  0  0  0  0  0  0  0
    9.4607    7.5646   16.0139 C   0  0  0  0  0  0  0  0  0  0  0  0
   10.4192    7.3157   15.0955 C   0  0  0  0  0  0  0  0  0  0  0  0
   10.2489    6.4227   23.0218 N   0  0  0  0  0  0  0  0  0  0  0  0
    7.2472    8.0746   23.5050 C   0  0  0  0  0  0  0  0  0  0  0  0
    9.2051    6.9101   23.4604 C   0  0  0  0  0  0  0  0  0  0  0  0
   11.9646    6.0299   21.4251 C   0  0  0  0  0  0  0  0  0  0  0  0
  1  5  1  0
  1 13  1  0
  2 20  2  0
  2 28  1  0
  2 29  1  0
  3 19  4  0
  3 25  4  0
  4 23  4  0
  4 27  1  0
  4 30  4  0
  5 17  1  0
  6  8  1  0
  6 29  1  0
  7 24  4  0
  7 26  4  0
  8 28  1  0
  9 13  2  0
 10 18  1  0
 10 21  4  0
 10 30  4  0
 11 17  2  0
 12 18  1  0
 13 15  1  0
 14 24  1  0
 15 25  1  0
 16 28  2  0
 17 20  1  0
 19 24  4  0
 20 23  1  0
 21 22  4  0
 22 23  4  0
 25 26  4  0
 27 29  2  0
M  END
$$$$

 Created by Python create_sdf_string function

 30 33  0  0  0  0  0  0  0  0999 V2000
    8.3036    9.8571   18.4133 C   0  0  0  0  0  0  0  0  0  0  0  0
    8.3694    7.6612   22.6703 C   0  0  0  0  0  0  0  0  0  0  0  0
    8.4143    6.6863   16.2273 C   0  0  0  0  0  0  0  0  0  0  0  0
   10.7581    6.5674   21.7636 C   0  0  0  0  0  0  0  0  0  0  0  0
    8.4452    8.7960   19.2958 O   0  0  0  0  0  0  0  0  0  0  0  0
    8.7122    6.7842   24.8569 C   0  0  0  0  0  0  0  0  0  0  0  0
   10.3400    6.1726   14.3081 C   0  0  0  0  0  0  0  0  0  0  0  0
    7.4297    7.5873   24.8962 C   0  0  0  0  0  0  0  0  0  0  0  0
    8.1566   10.0536   16.0516 O   0  0  0  0  0  0  0  0  0  0  0  0
   12.4989    6.2074   20.1776 C   0  0  0  0  0  0  0  0  0  0  0  0
    6.9192    9.1053   20.9073 O   0  0  0  0  0  0  0  0  0  0  0  0
   14.3979    6.0729   18.7784 C   0  0  0  0  0  0  0  0  0  0  0  0
    8.6811    9.5354   16.9998 C   0  0  0  0  0  0  0  0  0  0  0  0
    9.2512    4.2713   13.7653 O   0  0  0  0  0  0  0  0  0  0  0  0
    9.6495    8.6317   16.8332 N   0  0  0  0  0  0  0  0  0  0  0  0
    6.2934    8.6988   23.1988 O   0  0  0  0  0  0  0  0  0  0  0  0
    7.9806    8.6543   20.5437 C   0  0  0  0  0  0  0  0  0  0  0  0
   13.7270    5.7144   19.8610 O   0  0  0  0  0  0  0  0  0  0  0  0
    8.3351    5.5235   15.4478 C   0  0  0  0  0  0  0  0  0  0  0  0
    8.7700    7.8434   21.3915 C   0  0  0  0  0  0  0  0  0  0  0  0
   11.7856    6.8851   19.2401 C   0  0  0  0  0  0  0  0  0  0  0  0
   10.5281    7.4276   19.5649 C   0  0  0  0  0  0  0  0  0  0  0  0
   10.0256    7.2907   20.8484 C   0  0  0  0  0  0  0  0  0  0  0  0
    9.3113    5.3049   14.4911 C   0  0  0  0  0  0  0  0  0  0  0  0
    9.4607    7.5646   16.0139 C   0  0  0  0  0  0  0  0  0  0  0  0
   10.4192    7.3157   15.0955 C   0  0  0  0  0  0  0  0  0  0  0  0
   10.2489    6.4227   23.0218 N   0  0  0  0  0  0  0  0  0  0  0  0
    7.2472    8.0746   23.5050 C   0  0  0  0  0  0  0  0  0  0  0  0
    9.2051    6.9101   23.4604 C   0  0  0  0  0  0  0  0  0  0  0  0
   11.9646    6.0299   21.4251 C   0  0  0  0  0  0  0  0  0  0  0  0
  1  5  1  0
  1 13  1  0
  2 20  2  0
  2 28  1  0
  2 29  1  0
  3 19  4  0
  3 25  4  0
  4 23  4  0
  4 27  1  0
  4 30  4  0
  5 17  1  0
  6  8  1  0
  6 29  1  0
  7 24  4  0
  7 26  4  0
  8 28  1  0
  9 13  2  0
 10 18  1  0
 10 21  4  0
 10 30  4  0
 11 17  2  0
 12 18  1  0
 13 15  1  0
 14 24  1  0
 15 25  1  0
 16 28  2  0
 17 20  1  0
 19 24  4  0
 20 23  1  0
 21 22  4  0
 22 23  4  0
 25 26  4  0
 27 29  2  0
M  END
$$$$

 Created by Python create_sdf_string function

 30 33  0  0  0  0  0  0  0  0999 V2000
    8.3036    9.8571   18.4133 C   0  0  0  0  0  0  0  0  0  0  0  0
    8.3694    7.6612   22.6703 C   0  0  0  0  0  0  0  0  0  0  0  0
    8.4143    6.6863   16.2273 C   0  0  0  0  0  0  0  0  0  0  0  0
   10.7581    6.5674   21.7636 C   0  0  0  0  0  0  0  0  0  0  0  0
    8.4452    8.7960   19.2958 O   0  0  0  0  0  0  0  0  0  0  0  0
    8.7122    6.7842   24.8569 C   0  0  0  0  0  0  0  0  0  0  0  0
   10.3400    6.1726   14.3081 C   0  0  0  0  0  0  0  0  0  0  0  0
    7.4297    7.5873   24.8962 C   0  0  0  0  0  0  0  0  0  0  0  0
    8.1566   10.0536   16.0516 O   0  0  0  0  0  0  0  0  0  0  0  0
   12.4989    6.2074   20.1776 C   0  0  0  0  0  0  0  0  0  0  0  0
    6.9192    9.1053   20.9073 O   0  0  0  0  0  0  0  0  0  0  0  0
   14.3979    6.0729   18.7784 C   0  0  0  0  0  0  0  0  0  0  0  0
    8.6811    9.5354   16.9998 C   0  0  0  0  0  0  0  0  0  0  0  0
    9.2512    4.2713   13.7653 O   0  0  0  0  0  0  0  0  0  0  0  0
    9.6495    8.6317   16.8332 N   0  0  0  0  0  0  0  0  0  0  0  0
    6.2934    8.6988   23.1988 O   0  0  0  0  0  0  0  0  0  0  0  0
    7.9806    8.6543   20.5437 C   0  0  0  0  0  0  0  0  0  0  0  0
   13.7270    5.7144   19.8610 O   0  0  0  0  0  0  0  0  0  0  0  0
    8.3351    5.5235   15.4478 C   0  0  0  0  0  0  0  0  0  0  0  0
    8.7700    7.8434   21.3915 C   0  0  0  0  0  0  0  0  0  0  0  0
   11.7856    6.8851   19.2401 C   0  0  0  0  0  0  0  0  0  0  0  0
   10.5281    7.4276   19.5649 C   0  0  0  0  0  0  0  0  0  0  0  0
   10.0256    7.2907   20.8484 C   0  0  0  0  0  0  0  0  0  0  0  0
    9.3113    5.3049   14.4911 C   0  0  0  0  0  0  0  0  0  0  0  0
    9.4607    7.5646   16.0139 C   0  0  0  0  0  0  0  0  0  0  0  0
   10.4192    7.3157   15.0955 C   0  0  0  0  0  0  0  0  0  0  0  0
   10.2489    6.4227   23.0218 N   0  0  0  0  0  0  0  0  0  0  0  0
    7.2472    8.0746   23.5050 C   0  0  0  0  0  0  0  0  0  0  0  0
    9.2051    6.9101   23.4604 C   0  0  0  0  0  0  0  0  0  0  0  0
   11.9646    6.0299   21.4251 C   0  0  0  0  0  0  0  0  0  0  0  0
  1  5  1  0
  1 13  1  0
  2 20  2  0
  2 28  1  0
  2 29  1  0
  3 19  4  0
  3 25  4  0
  4 23  4  0
  4 27  1  0
  4 30  4  0
  5 17  1  0
  6  8  1  0
  6 29  1  0
  7 24  4  0
  7 26  4  0
  8 28  1  0
  9 13  2  0
 10 18  1  0
 10 21  4  0
 10 30  4  0
 11 17  2  0
 12 18  1  0
 13 15  1  0
 14 24  1  0
 15 25  1  0
 16 28  2  0
 17 20  1  0
 19 24  4  0
 20 23  1  0
 21 22  4  0
 22 23  4  0
 25 26  4  0
 27 29  2  0
M  END
$$$$

 Created by Python create_sdf_string function

 30 33  0  0  0  0  0  0  0  0999 V2000
    8.3036    9.8571   18.4133 C   0  0  0  0  0  0  0  0  0  0  0  0
    8.3694    7.6612   22.6703 C   0  0  0  0  0  0  0  0  0  0  0  0
    8.4143    6.6863   16.2273 C   0  0  0  0  0  0  0  0  0  0  0  0
   10.7581    6.5674   21.7636 C   0  0  0  0  0  0  0  0  0  0  0  0
    8.4452    8.7960   19.2958 O   0  0  0  0  0  0  0  0  0  0  0  0
    8.7122    6.7842   24.8569 C   0  0  0  0  0  0  0  0  0  0  0  0
   10.3400    6.1726   14.3081 C   0  0  0  0  0  0  0  0  0  0  0  0
    7.4297    7.5873   24.8962 C   0  0  0  0  0  0  0  0  0  0  0  0
    8.1566   10.0536   16.0516 O   0  0  0  0  0  0  0  0  0  0  0  0
   12.4989    6.2074   20.1776 C   0  0  0  0  0  0  0  0  0  0  0  0
    6.9192    9.1053   20.9073 O   0  0  0  0  0  0  0  0  0  0  0  0
   14.3979    6.0729   18.7784 C   0  0  0  0  0  0  0  0  0  0  0  0
    8.6811    9.5354   16.9998 C   0  0  0  0  0  0  0  0  0  0  0  0
    9.2512    4.2713   13.7653 O   0  0  0  0  0  0  0  0  0  0  0  0
    9.6495    8.6317   16.8332 N   0  0  0  0  0  0  0  0  0  0  0  0
    6.2934    8.6988   23.1988 O   0  0  0  0  0  0  0  0  0  0  0  0
    7.9806    8.6543   20.5437 C   0  0  0  0  0  0  0  0  0  0  0  0
   13.7270    5.7144   19.8610 O   0  0  0  0  0  0  0  0  0  0  0  0
    8.3351    5.5235   15.4478 C   0  0  0  0  0  0  0  0  0  0  0  0
    8.7700    7.8434   21.3915 C   0  0  0  0  0  0  0  0  0  0  0  0
   11.7856    6.8851   19.2401 C   0  0  0  0  0  0  0  0  0  0  0  0
   10.5281    7.4276   19.5649 C   0  0  0  0  0  0  0  0  0  0  0  0
   10.0256    7.2907   20.8484 C   0  0  0  0  0  0  0  0  0  0  0  0
    9.3113    5.3049   14.4911 C   0  0  0  0  0  0  0  0  0  0  0  0
    9.4607    7.5646   16.0139 C   0  0  0  0  0  0  0  0  0  0  0  0
   10.4192    7.3157   15.0955 C   0  0  0  0  0  0  0  0  0  0  0  0
   10.2489    6.4227   23.0218 N   0  0  0  0  0  0  0  0  0  0  0  0
    7.2472    8.0746   23.5050 C   0  0  0  0  0  0  0  0  0  0  0  0
    9.2051    6.9101   23.4604 C   0  0  0  0  0  0  0  0  0  0  0  0
   11.9646    6.0299   21.4251 C   0  0  0  0  0  0  0  0  0  0  0  0
  1  5  1  0
  1 13  1  0
  2 20  2  0
  2 28  1  0
  2 29  1  0
  3 19  4  0
  3 25  4  0
  4 23  4  0
  4 27  1  0
  4 30  4  0
  5 17  1  0
  6  8  1  0
  6 29  1  0
  7 24  4  0
  7 26  4  0
  8 28  1  0
  9 13  2  0
 10 18  1  0
 10 21  4  0
 10 30  4  0
 11 17  2  0
 12 18  1  0
 13 15  1  0
 14 24  1  0
 15 25  1  0
 16 28  2  0
 17 20  1  0
 19 24  4  0
 20 23  1  0
 21 22  4  0
 22 23  4  0
 25 26  4  0
 27 29  2  0
M  END
$$$$

 Created by Python create_sdf_string function

 30 33  0  0  0  0  0  0  0  0999 V2000
    8.3036    9.8571   18.4133 C   0  0  0  0  0  0  0  0  0  0  0  0
    8.3694    7.6612   22.6703 C   0  0  0  0  0  0  0  0  0  0  0  0
    8.4143    6.6863   16.2273 C   0  0  0  0  0  0  0  0  0  0  0  0
   10.7581    6.5674   21.7636 C   0  0  0  0  0  0  0  0  0  0  0  0
    8.4452    8.7960   19.2958 O   0  0  0  0  0  0  0  0  0  0  0  0
    8.7122    6.7842   24.8569 C   0  0  0  0  0  0  0  0  0  0  0  0
   10.3400    6.1726   14.3081 C   0  0  0  0  0  0  0  0  0  0  0  0
    7.4297    7.5873   24.8962 C   0  0  0  0  0  0  0  0  0  0  0  0
    8.1566   10.0536   16.0516 O   0  0  0  0  0  0  0  0  0  0  0  0
   12.4989    6.2074   20.1776 C   0  0  0  0  0  0  0  0  0  0  0  0
    6.9192    9.1053   20.9073 O   0  0  0  0  0  0  0  0  0  0  0  0
   14.3979    6.0729   18.7784 C   0  0  0  0  0  0  0  0  0  0  0  0
    8.6811    9.5354   16.9998 C   0  0  0  0  0  0  0  0  0  0  0  0
    9.2512    4.2713   13.7653 O   0  0  0  0  0  0  0  0  0  0  0  0
    9.6495    8.6317   16.8332 N   0  0  0  0  0  0  0  0  0  0  0  0
    6.2934    8.6988   23.1988 O   0  0  0  0  0  0  0  0  0  0  0  0
    7.9806    8.6543   20.5437 C   0  0  0  0  0  0  0  0  0  0  0  0
   13.7270    5.7144   19.8610 O   0  0  0  0  0  0  0  0  0  0  0  0
    8.3351    5.5235   15.4478 C   0  0  0  0  0  0  0  0  0  0  0  0
    8.7700    7.8434   21.3915 C   0  0  0  0  0  0  0  0  0  0  0  0
   11.7856    6.8851   19.2401 C   0  0  0  0  0  0  0  0  0  0  0  0
   10.5281    7.4276   19.5649 C   0  0  0  0  0  0  0  0  0  0  0  0
   10.0256    7.2907   20.8484 C   0  0  0  0  0  0  0  0  0  0  0  0
    9.3113    5.3049   14.4911 C   0  0  0  0  0  0  0  0  0  0  0  0
    9.4607    7.5646   16.0139 C   0  0  0  0  0  0  0  0  0  0  0  0
   10.4192    7.3157   15.0955 C   0  0  0  0  0  0  0  0  0  0  0  0
   10.2489    6.4227   23.0218 N   0  0  0  0  0  0  0  0  0  0  0  0
    7.2472    8.0746   23.5050 C   0  0  0  0  0  0  0  0  0  0  0  0
    9.2051    6.9101   23.4604 C   0  0  0  0  0  0  0  0  0  0  0  0
   11.9646    6.0299   21.4251 C   0  0  0  0  0  0  0  0  0  0  0  0
  1  5  1  0
  1 13  1  0
  2 20  2  0
  2 28  1  0
  2 29  1  0
  3 19  4  0
  3 25  4  0
  4 23  4  0
  4 27  1  0
  4 30  4  0
  5 17  1  0
  6  8  1  0
  6 29  1  0
  7 24  4  0
  7 26  4  0
  8 28  1  0
  9 13  2  0
 10 18  1  0
 10 21  4  0
 10 30  4  0
 11 17  2  0
 12 18  1  0
 13 15  1  0
 14 24  1  0
 15 25  1  0
 16 28  2  0
 17 20  1  0
 19 24  4  0
 20 23  1  0
 21 22  4  0
 22 23  4  0
 25 26  4  0
 27 29  2  0
M  END
$$$$

 Created by Python create_sdf_string function

 30 33  0  0  0  0  0  0  0  0999 V2000
    8.3036    9.8571   18.4133 C   0  0  0  0  0  0  0  0  0  0  0  0
    8.3694    7.6612   22.6703 C   0  0  0  0  0  0  0  0  0  0  0  0
    8.4143    6.6863   16.2273 C   0  0  0  0  0  0  0  0  0  0  0  0
   10.7581    6.5674   21.7636 C   0  0  0  0  0  0  0  0  0  0  0  0
    8.4452    8.7960   19.2958 O   0  0  0  0  0  0  0  0  0  0  0  0
    8.7122    6.7842   24.8569 C   0  0  0  0  0  0  0  0  0  0  0  0
   10.3400    6.1726   14.3081 C   0  0  0  0  0  0  0  0  0  0  0  0
    7.4297    7.5873   24.8962 C   0  0  0  0  0  0  0  0  0  0  0  0
    8.1566   10.0536   16.0516 O   0  0  0  0  0  0  0  0  0  0  0  0
   12.4989    6.2074   20.1776 C   0  0  0  0  0  0  0  0  0  0  0  0
    6.9192    9.1053   20.9073 O   0  0  0  0  0  0  0  0  0  0  0  0
   14.3979    6.0729   18.7784 C   0  0  0  0  0  0  0  0  0  0  0  0
    8.6811    9.5354   16.9998 C   0  0  0  0  0  0  0  0  0  0  0  0
    9.2512    4.2713   13.7653 O   0  0  0  0  0  0  0  0  0  0  0  0
    9.6495    8.6317   16.8332 N   0  0  0  0  0  0  0  0  0  0  0  0
    6.2934    8.6988   23.1988 O   0  0  0  0  0  0  0  0  0  0  0  0
    7.9806    8.6543   20.5437 C   0  0  0  0  0  0  0  0  0  0  0  0
   13.7270    5.7144   19.8610 O   0  0  0  0  0  0  0  0  0  0  0  0
    8.3351    5.5235   15.4478 C   0  0  0  0  0  0  0  0  0  0  0  0
    8.7700    7.8434   21.3915 C   0  0  0  0  0  0  0  0  0  0  0  0
   11.7856    6.8851   19.2401 C   0  0  0  0  0  0  0  0  0  0  0  0
   10.5281    7.4276   19.5649 C   0  0  0  0  0  0  0  0  0  0  0  0
   10.0256    7.2907   20.8484 C   0  0  0  0  0  0  0  0  0  0  0  0
    9.3113    5.3049   14.4911 C   0  0  0  0  0  0  0  0  0  0  0  0
    9.4607    7.5646   16.0139 C   0  0  0  0  0  0  0  0  0  0  0  0
   10.4192    7.3157   15.0955 C   0  0  0  0  0  0  0  0  0  0  0  0
   10.2489    6.4227   23.0218 N   0  0  0  0  0  0  0  0  0  0  0  0
    7.2472    8.0746   23.5050 C   0  0  0  0  0  0  0  0  0  0  0  0
    9.2051    6.9101   23.4604 C   0  0  0  0  0  0  0  0  0  0  0  0
   11.9646    6.0299   21.4251 C   0  0  0  0  0  0  0  0  0  0  0  0
  1  5  1  0
  1 13  1  0
  2 20  2  0
  2 28  1  0
  2 29  1  0
  3 19  4  0
  3 25  4  0
  4 23  4  0
  4 27  1  0
  4 30  4  0
  5 17  1  0
  6  8  1  0
  6 29  1  0
  7 24  4  0
  7 26  4  0
  8 28  1  0
  9 13  2  0
 10 18  1  0
 10 21  4  0
 10 30  4  0
 11 17  2  0
 12 18  1  0
 13 15  1  0
 14 24  1  0
 15 25  1  0
 16 28  2  0
 17 20  1  0
 19 24  4  0
 20 23  1  0
 21 22  4  0
 22 23  4  0
 25 26  4  0
 27 29  2  0
M  END
$$$$

 Created by Python create_sdf_string function

 30 33  0  0  0  0  0  0  0  0999 V2000
    8.3036    9.8571   18.4133 C   0  0  0  0  0  0  0  0  0  0  0  0
    8.3694    7.6612   22.6703 C   0  0  0  0  0  0  0  0  0  0  0  0
    8.4143    6.6863   16.2273 C   0  0  0  0  0  0  0  0  0  0  0  0
   10.7581    6.5674   21.7636 C   0  0  0  0  0  0  0  0  0  0  0  0
    8.4452    8.7960   19.2958 O   0  0  0  0  0  0  0  0  0  0  0  0
    8.7122    6.7842   24.8569 C   0  0  0  0  0  0  0  0  0  0  0  0
   10.3400    6.1726   14.3081 C   0  0  0  0  0  0  0  0  0  0  0  0
    7.4297    7.5873   24.8962 C   0  0  0  0  0  0  0  0  0  0  0  0
    8.1566   10.0536   16.0516 O   0  0  0  0  0  0  0  0  0  0  0  0
   12.4989    6.2074   20.1776 C   0  0  0  0  0  0  0  0  0  0  0  0
    6.9192    9.1053   20.9073 O   0  0  0  0  0  0  0  0  0  0  0  0
   14.3979    6.0729   18.7784 C   0  0  0  0  0  0  0  0  0  0  0  0
    8.6811    9.5354   16.9998 C   0  0  0  0  0  0  0  0  0  0  0  0
    9.2512    4.2713   13.7653 O   0  0  0  0  0  0  0  0  0  0  0  0
    9.6495    8.6317   16.8332 N   0  0  0  0  0  0  0  0  0  0  0  0
    6.2934    8.6988   23.1988 O   0  0  0  0  0  0  0  0  0  0  0  0
    7.9806    8.6543   20.5437 C   0  0  0  0  0  0  0  0  0  0  0  0
   13.7270    5.7144   19.8610 O   0  0  0  0  0  0  0  0  0  0  0  0
    8.3351    5.5235   15.4478 C   0  0  0  0  0  0  0  0  0  0  0  0
    8.7700    7.8434   21.3915 C   0  0  0  0  0  0  0  0  0  0  0  0
   11.7856    6.8851   19.2401 C   0  0  0  0  0  0  0  0  0  0  0  0
   10.5281    7.4276   19.5649 C   0  0  0  0  0  0  0  0  0  0  0  0
   10.0256    7.2907   20.8484 C   0  0  0  0  0  0  0  0  0  0  0  0
    9.3113    5.3049   14.4911 C   0  0  0  0  0  0  0  0  0  0  0  0
    9.4607    7.5646   16.0139 C   0  0  0  0  0  0  0  0  0  0  0  0
   10.4192    7.3157   15.0955 C   0  0  0  0  0  0  0  0  0  0  0  0
   10.2489    6.4227   23.0218 N   0  0  0  0  0  0  0  0  0  0  0  0
    7.2472    8.0746   23.5050 C   0  0  0  0  0  0  0  0  0  0  0  0
    9.2051    6.9101   23.4604 C   0  0  0  0  0  0  0  0  0  0  0  0
   11.9646    6.0299   21.4251 C   0  0  0  0  0  0  0  0  0  0  0  0
  1  5  1  0
  1 13  1  0
  2 20  2  0
  2 28  1  0
  2 29  1  0
  3 19  4  0
  3 25  4  0
  4 23  4  0
  4 27  1  0
  4 30  4  0
  5 17  1  0
  6  8  1  0
  6 29  1  0
  7 24  4  0
  7 26  4  0
  8 28  1  0
  9 13  2  0
 10 18  1  0
 10 21  4  0
 10 30  4  0
 11 17  2  0
 12 18  1  0
 13 15  1  0
 14 24  1  0
 15 25  1  0
 16 28  2  0
 17 20  1  0
 19 24  4  0
 20 23  1  0
 21 22  4  0
 22 23  4  0
 25 26  4  0
 27 29  2  0
M  END
$$$$

 Created by Python create_sdf_string function

 30 33  0  0  0  0  0  0  0  0999 V2000
    8.3036    9.8571   18.4133 C   0  0  0  0  0  0  0  0  0  0  0  0
    8.3694    7.6612   22.6703 C   0  0  0  0  0  0  0  0  0  0  0  0
    8.4143    6.6863   16.2273 C   0  0  0  0  0  0  0  0  0  0  0  0
   10.7581    6.5674   21.7636 C   0  0  0  0  0  0  0  0  0  0  0  0
    8.4452    8.7960   19.2958 O   0  0  0  0  0  0  0  0  0  0  0  0
    8.7122    6.7842   24.8569 C   0  0  0  0  0  0  0  0  0  0  0  0
   10.3400    6.1726   14.3081 C   0  0  0  0  0  0  0  0  0  0  0  0
    7.4297    7.5873   24.8962 C   0  0  0  0  0  0  0  0  0  0  0  0
    8.1566   10.0536   16.0516 O   0  0  0  0  0  0  0  0  0  0  0  0
   12.4989    6.2074   20.1776 C   0  0  0  0  0  0  0  0  0  0  0  0
    6.9192    9.1053   20.9073 O   0  0  0  0  0  0  0  0  0  0  0  0
   14.3979    6.0729   18.7784 C   0  0  0  0  0  0  0  0  0  0  0  0
    8.6811    9.5354   16.9998 C   0  0  0  0  0  0  0  0  0  0  0  0
    9.2512    4.2713   13.7653 O   0  0  0  0  0  0  0  0  0  0  0  0
    9.6495    8.6317   16.8332 N   0  0  0  0  0  0  0  0  0  0  0  0
    6.2934    8.6988   23.1988 O   0  0  0  0  0  0  0  0  0  0  0  0
    7.9806    8.6543   20.5437 C   0  0  0  0  0  0  0  0  0  0  0  0
   13.7270    5.7144   19.8610 O   0  0  0  0  0  0  0  0  0  0  0  0
    8.3351    5.5235   15.4478 C   0  0  0  0  0  0  0  0  0  0  0  0
    8.7700    7.8434   21.3915 C   0  0  0  0  0  0  0  0  0  0  0  0
   11.7856    6.8851   19.2401 C   0  0  0  0  0  0  0  0  0  0  0  0
   10.5281    7.4276   19.5649 C   0  0  0  0  0  0  0  0  0  0  0  0
   10.0256    7.2907   20.8484 C   0  0  0  0  0  0  0  0  0  0  0  0
    9.3113    5.3049   14.4911 C   0  0  0  0  0  0  0  0  0  0  0  0
    9.4607    7.5646   16.0139 C   0  0  0  0  0  0  0  0  0  0  0  0
   10.4192    7.3157   15.0955 C   0  0  0  0  0  0  0  0  0  0  0  0
   10.2489    6.4227   23.0218 N   0  0  0  0  0  0  0  0  0  0  0  0
    7.2472    8.0746   23.5050 C   0  0  0  0  0  0  0  0  0  0  0  0
    9.2051    6.9101   23.4604 C   0  0  0  0  0  0  0  0  0  0  0  0
   11.9646    6.0299   21.4251 C   0  0  0  0  0  0  0  0  0  0  0  0
  1  5  1  0
  1 13  1  0
  2 20  2  0
  2 28  1  0
  2 29  1  0
  3 19  4  0
  3 25  4  0
  4 23  4  0
  4 27  1  0
  4 30  4  0
  5 17  1  0
  6  8  1  0
  6 29  1  0
  7 24  4  0
  7 26  4  0
  8 28  1  0
  9 13  2  0
 10 18  1  0
 10 21  4  0
 10 30  4  0
 11 17  2  0
 12 18  1  0
 13 15  1  0
 14 24  1  0
 15 25  1  0
 16 28  2  0
 17 20  1  0
 19 24  4  0
 20 23  1  0
 21 22  4  0
 22 23  4  0
 25 26  4  0
 27 29  2  0
M  END
$$$$

 Created by Python create_sdf_string function

 30 33  0  0  0  0  0  0  0  0999 V2000
    8.3036    9.8571   18.4133 C   0  0  0  0  0  0  0  0  0  0  0  0
    8.3694    7.6612   22.6703 C   0  0  0  0  0  0  0  0  0  0  0  0
    8.4143    6.6863   16.2273 C   0  0  0  0  0  0  0  0  0  0  0  0
   10.7581    6.5674   21.7636 C   0  0  0  0  0  0  0  0  0  0  0  0
    8.4452    8.7960   19.2958 O   0  0  0  0  0  0  0  0  0  0  0  0
    8.7122    6.7842   24.8569 C   0  0  0  0  0  0  0  0  0  0  0  0
   10.3400    6.1726   14.3081 C   0  0  0  0  0  0  0  0  0  0  0  0
    7.4297    7.5873   24.8962 C   0  0  0  0  0  0  0  0  0  0  0  0
    8.1566   10.0536   16.0516 O   0  0  0  0  0  0  0  0  0  0  0  0
   12.4989    6.2074   20.1776 C   0  0  0  0  0  0  0  0  0  0  0  0
    6.9192    9.1053   20.9073 O   0  0  0  0  0  0  0  0  0  0  0  0
   14.3979    6.0729   18.7784 C   0  0  0  0  0  0  0  0  0  0  0  0
    8.6811    9.5354   16.9998 C   0  0  0  0  0  0  0  0  0  0  0  0
    9.2512    4.2713   13.7653 O   0  0  0  0  0  0  0  0  0  0  0  0
    9.6495    8.6317   16.8332 N   0  0  0  0  0  0  0  0  0  0  0  0
    6.2934    8.6988   23.1988 O   0  0  0  0  0  0  0  0  0  0  0  0
    7.9806    8.6543   20.5437 C   0  0  0  0  0  0  0  0  0  0  0  0
   13.7270    5.7144   19.8610 O   0  0  0  0  0  0  0  0  0  0  0  0
    8.3351    5.5235   15.4478 C   0  0  0  0  0  0  0  0  0  0  0  0
    8.7700    7.8434   21.3915 C   0  0  0  0  0  0  0  0  0  0  0  0
   11.7856    6.8851   19.2401 C   0  0  0  0  0  0  0  0  0  0  0  0
   10.5281    7.4276   19.5649 C   0  0  0  0  0  0  0  0  0  0  0  0
   10.0256    7.2907   20.8484 C   0  0  0  0  0  0  0  0  0  0  0  0
    9.3113    5.3049   14.4911 C   0  0  0  0  0  0  0  0  0  0  0  0
    9.4607    7.5646   16.0139 C   0  0  0  0  0  0  0  0  0  0  0  0
   10.4192    7.3157   15.0955 C   0  0  0  0  0  0  0  0  0  0  0  0
   10.2489    6.4227   23.0218 N   0  0  0  0  0  0  0  0  0  0  0  0
    7.2472    8.0746   23.5050 C   0  0  0  0  0  0  0  0  0  0  0  0
    9.2051    6.9101   23.4604 C   0  0  0  0  0  0  0  0  0  0  0  0
   11.9646    6.0299   21.4251 C   0  0  0  0  0  0  0  0  0  0  0  0
  1  5  1  0
  1 13  1  0
  2 20  2  0
  2 28  1  0
  2 29  1  0
  3 19  4  0
  3 25  4  0
  4 23  4  0
  4 27  1  0
  4 30  4  0
  5 17  1  0
  6  8  1  0
  6 29  1  0
  7 24  4  0
  7 26  4  0
  8 28  1  0
  9 13  2  0
 10 18  1  0
 10 21  4  0
 10 30  4  0
 11 17  2  0
 12 18  1  0
 13 15  1  0
 14 24  1  0
 15 25  1  0
 16 28  2  0
 17 20  1  0
 19 24  4  0
 20 23  1  0
 21 22  4  0
 22 23  4  0
 25 26  4  0
 27 29  2  0
M  END
$$$$

 Created by Python create_sdf_string function

 30 33  0  0  0  0  0  0  0  0999 V2000
    8.3036    9.8571   18.4133 C   0  0  0  0  0  0  0  0  0  0  0  0
    8.3694    7.6612   22.6703 C   0  0  0  0  0  0  0  0  0  0  0  0
    8.4143    6.6863   16.2273 C   0  0  0  0  0  0  0  0  0  0  0  0
   10.7581    6.5674   21.7636 C   0  0  0  0  0  0  0  0  0  0  0  0
    8.4452    8.7960   19.2958 O   0  0  0  0  0  0  0  0  0  0  0  0
    8.7122    6.7842   24.8569 C   0  0  0  0  0  0  0  0  0  0  0  0
   10.3400    6.1726   14.3081 C   0  0  0  0  0  0  0  0  0  0  0  0
    7.4297    7.5873   24.8962 C   0  0  0  0  0  0  0  0  0  0  0  0
    8.1566   10.0536   16.0516 O   0  0  0  0  0  0  0  0  0  0  0  0
   12.4989    6.2074   20.1776 C   0  0  0  0  0  0  0  0  0  0  0  0
    6.9192    9.1053   20.9073 O   0  0  0  0  0  0  0  0  0  0  0  0
   14.3979    6.0729   18.7784 C   0  0  0  0  0  0  0  0  0  0  0  0
    8.6811    9.5354   16.9998 C   0  0  0  0  0  0  0  0  0  0  0  0
    9.2512    4.2713   13.7653 O   0  0  0  0  0  0  0  0  0  0  0  0
    9.6495    8.6317   16.8332 N   0  0  0  0  0  0  0  0  0  0  0  0
    6.2934    8.6988   23.1988 O   0  0  0  0  0  0  0  0  0  0  0  0
    7.9806    8.6543   20.5437 C   0  0  0  0  0  0  0  0  0  0  0  0
   13.7270    5.7144   19.8610 O   0  0  0  0  0  0  0  0  0  0  0  0
    8.3351    5.5235   15.4478 C   0  0  0  0  0  0  0  0  0  0  0  0
    8.7700    7.8434   21.3915 C   0  0  0  0  0  0  0  0  0  0  0  0
   11.7856    6.8851   19.2401 C   0  0  0  0  0  0  0  0  0  0  0  0
   10.5281    7.4276   19.5649 C   0  0  0  0  0  0  0  0  0  0  0  0
   10.0256    7.2907   20.8484 C   0  0  0  0  0  0  0  0  0  0  0  0
    9.3113    5.3049   14.4911 C   0  0  0  0  0  0  0  0  0  0  0  0
    9.4607    7.5646   16.0139 C   0  0  0  0  0  0  0  0  0  0  0  0
   10.4192    7.3157   15.0955 C   0  0  0  0  0  0  0  0  0  0  0  0
   10.2489    6.4227   23.0218 N   0  0  0  0  0  0  0  0  0  0  0  0
    7.2472    8.0746   23.5050 C   0  0  0  0  0  0  0  0  0  0  0  0
    9.2051    6.9101   23.4604 C   0  0  0  0  0  0  0  0  0  0  0  0
   11.9646    6.0299   21.4251 C   0  0  0  0  0  0  0  0  0  0  0  0
  1  5  1  0
  1 13  1  0
  2 20  2  0
  2 28  1  0
  2 29  1  0
  3 19  4  0
  3 25  4  0
  4 23  4  0
  4 27  1  0
  4 30  4  0
  5 17  1  0
  6  8  1  0
  6 29  1  0
  7 24  4  0
  7 26  4  0
  8 28  1  0
  9 13  2  0
 10 18  1  0
 10 21  4  0
 10 30  4  0
 11 17  2  0
 12 18  1  0
 13 15  1  0
 14 24  1  0
 15 25  1  0
 16 28  2  0
 17 20  1  0
 19 24  4  0
 20 23  1  0
 21 22  4  0
 22 23  4  0
 25 26  4  0
 27 29  2  0
M  END
$$$$

 Created by Python create_sdf_string function

 30 33  0  0  0  0  0  0  0  0999 V2000
    8.3036    9.8571   18.4133 C   0  0  0  0  0  0  0  0  0  0  0  0
    8.3694    7.6612   22.6703 C   0  0  0  0  0  0  0  0  0  0  0  0
    8.4143    6.6863   16.2273 C   0  0  0  0  0  0  0  0  0  0  0  0
   10.7581    6.5674   21.7636 C   0  0  0  0  0  0  0  0  0  0  0  0
    8.4452    8.7960   19.2958 O   0  0  0  0  0  0  0  0  0  0  0  0
    8.7122    6.7842   24.8569 C   0  0  0  0  0  0  0  0  0  0  0  0
   10.3400    6.1726   14.3081 C   0  0  0  0  0  0  0  0  0  0  0  0
    7.4297    7.5873   24.8962 C   0  0  0  0  0  0  0  0  0  0  0  0
    8.1566   10.0536   16.0516 O   0  0  0  0  0  0  0  0  0  0  0  0
   12.4989    6.2074   20.1776 C   0  0  0  0  0  0  0  0  0  0  0  0
    6.9192    9.1053   20.9073 O   0  0  0  0  0  0  0  0  0  0  0  0
   14.3979    6.0729   18.7784 C   0  0  0  0  0  0  0  0  0  0  0  0
    8.6811    9.5354   16.9998 C   0  0  0  0  0  0  0  0  0  0  0  0
    9.2512    4.2713   13.7653 O   0  0  0  0  0  0  0  0  0  0  0  0
    9.6495    8.6317   16.8332 N   0  0  0  0  0  0  0  0  0  0  0  0
    6.2934    8.6988   23.1988 O   0  0  0  0  0  0  0  0  0  0  0  0
    7.9806    8.6543   20.5437 C   0  0  0  0  0  0  0  0  0  0  0  0
   13.7270    5.7144   19.8610 O   0  0  0  0  0  0  0  0  0  0  0  0
    8.3351    5.5235   15.4478 C   0  0  0  0  0  0  0  0  0  0  0  0
    8.7700    7.8434   21.3915 C   0  0  0  0  0  0  0  0  0  0  0  0
   11.7856    6.8851   19.2401 C   0  0  0  0  0  0  0  0  0  0  0  0
   10.5281    7.4276   19.5649 C   0  0  0  0  0  0  0  0  0  0  0  0
   10.0256    7.2907   20.8484 C   0  0  0  0  0  0  0  0  0  0  0  0
    9.3113    5.3049   14.4911 C   0  0  0  0  0  0  0  0  0  0  0  0
    9.4607    7.5646   16.0139 C   0  0  0  0  0  0  0  0  0  0  0  0
   10.4192    7.3157   15.0955 C   0  0  0  0  0  0  0  0  0  0  0  0
   10.2489    6.4227   23.0218 N   0  0  0  0  0  0  0  0  0  0  0  0
    7.2472    8.0746   23.5050 C   0  0  0  0  0  0  0  0  0  0  0  0
    9.2051    6.9101   23.4604 C   0  0  0  0  0  0  0  0  0  0  0  0
   11.9646    6.0299   21.4251 C   0  0  0  0  0  0  0  0  0  0  0  0
  1  5  1  0
  1 13  1  0
  2 20  2  0
  2 28  1  0
  2 29  1  0
  3 19  4  0
  3 25  4  0
  4 23  4  0
  4 27  1  0
  4 30  4  0
  5 17  1  0
  6  8  1  0
  6 29  1  0
  7 24  4  0
  7 26  4  0
  8 28  1  0
  9 13  2  0
 10 18  1  0
 10 21  4  0
 10 30  4  0
 11 17  2  0
 12 18  1  0
 13 15  1  0
 14 24  1  0
 15 25  1  0
 16 28  2  0
 17 20  1  0
 19 24  4  0
 20 23  1  0
 21 22  4  0
 22 23  4  0
 25 26  4  0
 27 29  2  0
M  END
$$$$

 Created by Python create_sdf_string function

 30 33  0  0  0  0  0  0  0  0999 V2000
    8.3036    9.8571   18.4133 C   0  0  0  0  0  0  0  0  0  0  0  0
    8.3694    7.6612   22.6703 C   0  0  0  0  0  0  0  0  0  0  0  0
    8.4143    6.6863   16.2273 C   0  0  0  0  0  0  0  0  0  0  0  0
   10.7581    6.5674   21.7636 C   0  0  0  0  0  0  0  0  0  0  0  0
    8.4452    8.7960   19.2958 O   0  0  0  0  0  0  0  0  0  0  0  0
    8.7122    6.7842   24.8569 C   0  0  0  0  0  0  0  0  0  0  0  0
   10.3400    6.1726   14.3081 C   0  0  0  0  0  0  0  0  0  0  0  0
    7.4297    7.5873   24.8962 C   0  0  0  0  0  0  0  0  0  0  0  0
    8.1566   10.0536   16.0516 O   0  0  0  0  0  0  0  0  0  0  0  0
   12.4989    6.2074   20.1776 C   0  0  0  0  0  0  0  0  0  0  0  0
    6.9192    9.1053   20.9073 O   0  0  0  0  0  0  0  0  0  0  0  0
   14.3979    6.0729   18.7784 C   0  0  0  0  0  0  0  0  0  0  0  0
    8.6811    9.5354   16.9998 C   0  0  0  0  0  0  0  0  0  0  0  0
    9.2512    4.2713   13.7653 O   0  0  0  0  0  0  0  0  0  0  0  0
    9.6495    8.6317   16.8332 N   0  0  0  0  0  0  0  0  0  0  0  0
    6.2934    8.6988   23.1988 O   0  0  0  0  0  0  0  0  0  0  0  0
    7.9806    8.6543   20.5437 C   0  0  0  0  0  0  0  0  0  0  0  0
   13.7270    5.7144   19.8610 O   0  0  0  0  0  0  0  0  0  0  0  0
    8.3351    5.5235   15.4478 C   0  0  0  0  0  0  0  0  0  0  0  0
    8.7700    7.8434   21.3915 C   0  0  0  0  0  0  0  0  0  0  0  0
   11.7856    6.8851   19.2401 C   0  0  0  0  0  0  0  0  0  0  0  0
   10.5281    7.4276   19.5649 C   0  0  0  0  0  0  0  0  0  0  0  0
   10.0256    7.2907   20.8484 C   0  0  0  0  0  0  0  0  0  0  0  0
    9.3113    5.3049   14.4911 C   0  0  0  0  0  0  0  0  0  0  0  0
    9.4607    7.5646   16.0139 C   0  0  0  0  0  0  0  0  0  0  0  0
   10.4192    7.3157   15.0955 C   0  0  0  0  0  0  0  0  0  0  0  0
   10.2489    6.4227   23.0218 N   0  0  0  0  0  0  0  0  0  0  0  0
    7.2472    8.0746   23.5050 C   0  0  0  0  0  0  0  0  0  0  0  0
    9.2051    6.9101   23.4604 C   0  0  0  0  0  0  0  0  0  0  0  0
   11.9646    6.0299   21.4251 C   0  0  0  0  0  0  0  0  0  0  0  0
  1  5  1  0
  1 13  1  0
  2 20  2  0
  2 28  1  0
  2 29  1  0
  3 19  4  0
  3 25  4  0
  4 23  4  0
  4 27  1  0
  4 30  4  0
  5 17  1  0
  6  8  1  0
  6 29  1  0
  7 24  4  0
  7 26  4  0
  8 28  1  0
  9 13  2  0
 10 18  1  0
 10 21  4  0
 10 30  4  0
 11 17  2  0
 12 18  1  0
 13 15  1  0
 14 24  1  0
 15 25  1  0
 16 28  2  0
 17 20  1  0
 19 24  4  0
 20 23  1  0
 21 22  4  0
 22 23  4  0
 25 26  4  0
 27 29  2  0
M  END
$$$$

 Created by Python create_sdf_string function

 30 33  0  0  0  0  0  0  0  0999 V2000
    8.3036    9.8571   18.4133 C   0  0  0  0  0  0  0  0  0  0  0  0
    8.3694    7.6612   22.6703 C   0  0  0  0  0  0  0  0  0  0  0  0
    8.4143    6.6863   16.2273 C   0  0  0  0  0  0  0  0  0  0  0  0
   10.7581    6.5674   21.7636 C   0  0  0  0  0  0  0  0  0  0  0  0
    8.4452    8.7960   19.2958 O   0  0  0  0  0  0  0  0  0  0  0  0
    8.7122    6.7842   24.8569 C   0  0  0  0  0  0  0  0  0  0  0  0
   10.3400    6.1726   14.3081 C   0  0  0  0  0  0  0  0  0  0  0  0
    7.4297    7.5873   24.8962 C   0  0  0  0  0  0  0  0  0  0  0  0
    8.1566   10.0536   16.0516 O   0  0  0  0  0  0  0  0  0  0  0  0
   12.4989    6.2074   20.1776 C   0  0  0  0  0  0  0  0  0  0  0  0
    6.9192    9.1053   20.9073 O   0  0  0  0  0  0  0  0  0  0  0  0
   14.3979    6.0729   18.7784 C   0  0  0  0  0  0  0  0  0  0  0  0
    8.6811    9.5354   16.9998 C   0  0  0  0  0  0  0  0  0  0  0  0
    9.2512    4.2713   13.7653 O   0  0  0  0  0  0  0  0  0  0  0  0
    9.6495    8.6317   16.8332 N   0  0  0  0  0  0  0  0  0  0  0  0
    6.2934    8.6988   23.1988 O   0  0  0  0  0  0  0  0  0  0  0  0
    7.9806    8.6543   20.5437 C   0  0  0  0  0  0  0  0  0  0  0  0
   13.7270    5.7144   19.8610 O   0  0  0  0  0  0  0  0  0  0  0  0
    8.3351    5.5235   15.4478 C   0  0  0  0  0  0  0  0  0  0  0  0
    8.7700    7.8434   21.3915 C   0  0  0  0  0  0  0  0  0  0  0  0
   11.7856    6.8851   19.2401 C   0  0  0  0  0  0  0  0  0  0  0  0
   10.5281    7.4276   19.5649 C   0  0  0  0  0  0  0  0  0  0  0  0
   10.0256    7.2907   20.8484 C   0  0  0  0  0  0  0  0  0  0  0  0
    9.3113    5.3049   14.4911 C   0  0  0  0  0  0  0  0  0  0  0  0
    9.4607    7.5646   16.0139 C   0  0  0  0  0  0  0  0  0  0  0  0
   10.4192    7.3157   15.0955 C   0  0  0  0  0  0  0  0  0  0  0  0
   10.2489    6.4227   23.0218 N   0  0  0  0  0  0  0  0  0  0  0  0
    7.2472    8.0746   23.5050 C   0  0  0  0  0  0  0  0  0  0  0  0
    9.2051    6.9101   23.4604 C   0  0  0  0  0  0  0  0  0  0  0  0
   11.9646    6.0299   21.4251 C   0  0  0  0  0  0  0  0  0  0  0  0
  1  5  1  0
  1 13  1  0
  2 20  2  0
  2 28  1  0
  2 29  1  0
  3 19  4  0
  3 25  4  0
  4 23  4  0
  4 27  1  0
  4 30  4  0
  5 17  1  0
  6  8  1  0
  6 29  1  0
  7 24  4  0
  7 26  4  0
  8 28  1  0
  9 13  2  0
 10 18  1  0
 10 21  4  0
 10 30  4  0
 11 17  2  0
 12 18  1  0
 13 15  1  0
 14 24  1  0
 15 25  1  0
 16 28  2  0
 17 20  1  0
 19 24  4  0
 20 23  1  0
 21 22  4  0
 22 23  4  0
 25 26  4  0
 27 29  2  0
M  END
$$$$

 Created by Python create_sdf_string function

 30 33  0  0  0  0  0  0  0  0999 V2000
    8.3036    9.8571   18.4133 C   0  0  0  0  0  0  0  0  0  0  0  0
    8.3694    7.6612   22.6703 C   0  0  0  0  0  0  0  0  0  0  0  0
    8.4143    6.6863   16.2273 C   0  0  0  0  0  0  0  0  0  0  0  0
   10.7581    6.5674   21.7636 C   0  0  0  0  0  0  0  0  0  0  0  0
    8.4452    8.7960   19.2958 O   0  0  0  0  0  0  0  0  0  0  0  0
    8.7122    6.7842   24.8569 C   0  0  0  0  0  0  0  0  0  0  0  0
   10.3400    6.1726   14.3081 C   0  0  0  0  0  0  0  0  0  0  0  0
    7.4297    7.5873   24.8962 C   0  0  0  0  0  0  0  0  0  0  0  0
    8.1566   10.0536   16.0516 O   0  0  0  0  0  0  0  0  0  0  0  0
   12.4989    6.2074   20.1776 C   0  0  0  0  0  0  0  0  0  0  0  0
    6.9192    9.1053   20.9073 O   0  0  0  0  0  0  0  0  0  0  0  0
   14.3979    6.0729   18.7784 C   0  0  0  0  0  0  0  0  0  0  0  0
    8.6811    9.5354   16.9998 C   0  0  0  0  0  0  0  0  0  0  0  0
    9.2512    4.2713   13.7653 O   0  0  0  0  0  0  0  0  0  0  0  0
    9.6495    8.6317   16.8332 N   0  0  0  0  0  0  0  0  0  0  0  0
    6.2934    8.6988   23.1988 O   0  0  0  0  0  0  0  0  0  0  0  0
    7.9806    8.6543   20.5437 C   0  0  0  0  0  0  0  0  0  0  0  0
   13.7270    5.7144   19.8610 O   0  0  0  0  0  0  0  0  0  0  0  0
    8.3351    5.5235   15.4478 C   0  0  0  0  0  0  0  0  0  0  0  0
    8.7700    7.8434   21.3915 C   0  0  0  0  0  0  0  0  0  0  0  0
   11.7856    6.8851   19.2401 C   0  0  0  0  0  0  0  0  0  0  0  0
   10.5281    7.4276   19.5649 C   0  0  0  0  0  0  0  0  0  0  0  0
   10.0256    7.2907   20.8484 C   0  0  0  0  0  0  0  0  0  0  0  0
    9.3113    5.3049   14.4911 C   0  0  0  0  0  0  0  0  0  0  0  0
    9.4607    7.5646   16.0139 C   0  0  0  0  0  0  0  0  0  0  0  0
   10.4192    7.3157   15.0955 C   0  0  0  0  0  0  0  0  0  0  0  0
   10.2489    6.4227   23.0218 N   0  0  0  0  0  0  0  0  0  0  0  0
    7.2472    8.0746   23.5050 C   0  0  0  0  0  0  0  0  0  0  0  0
    9.2051    6.9101   23.4604 C   0  0  0  0  0  0  0  0  0  0  0  0
   11.9646    6.0299   21.4251 C   0  0  0  0  0  0  0  0  0  0  0  0
  1  5  1  0
  1 13  1  0
  2 20  2  0
  2 28  1  0
  2 29  1  0
  3 19  4  0
  3 25  4  0
  4 23  4  0
  4 27  1  0
  4 30  4  0
  5 17  1  0
  6  8  1  0
  6 29  1  0
  7 24  4  0
  7 26  4  0
  8 28  1  0
  9 13  2  0
 10 18  1  0
 10 21  4  0
 10 30  4  0
 11 17  2  0
 12 18  1  0
 13 15  1  0
 14 24  1  0
 15 25  1  0
 16 28  2  0
 17 20  1  0
 19 24  4  0
 20 23  1  0
 21 22  4  0
 22 23  4  0
 25 26  4  0
 27 29  2  0
M  END
$$$$

 Created by Python create_sdf_string function

 30 33  0  0  0  0  0  0  0  0999 V2000
    8.3036    9.8571   18.4133 C   0  0  0  0  0  0  0  0  0  0  0  0
    8.3694    7.6612   22.6703 C   0  0  0  0  0  0  0  0  0  0  0  0
    8.4143    6.6863   16.2273 C   0  0  0  0  0  0  0  0  0  0  0  0
   10.7581    6.5674   21.7636 C   0  0  0  0  0  0  0  0  0  0  0  0
    8.4452    8.7960   19.2958 O   0  0  0  0  0  0  0  0  0  0  0  0
    8.7122    6.7842   24.8569 C   0  0  0  0  0  0  0  0  0  0  0  0
   10.3400    6.1726   14.3081 C   0  0  0  0  0  0  0  0  0  0  0  0
    7.4297    7.5873   24.8962 C   0  0  0  0  0  0  0  0  0  0  0  0
    8.1566   10.0536   16.0516 O   0  0  0  0  0  0  0  0  0  0  0  0
   12.4989    6.2074   20.1776 C   0  0  0  0  0  0  0  0  0  0  0  0
    6.9192    9.1053   20.9073 O   0  0  0  0  0  0  0  0  0  0  0  0
   14.3979    6.0729   18.7784 C   0  0  0  0  0  0  0  0  0  0  0  0
    8.6811    9.5354   16.9998 C   0  0  0  0  0  0  0  0  0  0  0  0
    9.2512    4.2713   13.7653 O   0  0  0  0  0  0  0  0  0  0  0  0
    9.6495    8.6317   16.8332 N   0  0  0  0  0  0  0  0  0  0  0  0
    6.2934    8.6988   23.1988 O   0  0  0  0  0  0  0  0  0  0  0  0
    7.9806    8.6543   20.5437 C   0  0  0  0  0  0  0  0  0  0  0  0
   13.7270    5.7144   19.8610 O   0  0  0  0  0  0  0  0  0  0  0  0
    8.3351    5.5235   15.4478 C   0  0  0  0  0  0  0  0  0  0  0  0
    8.7700    7.8434   21.3915 C   0  0  0  0  0  0  0  0  0  0  0  0
   11.7856    6.8851   19.2401 C   0  0  0  0  0  0  0  0  0  0  0  0
   10.5281    7.4276   19.5649 C   0  0  0  0  0  0  0  0  0  0  0  0
   10.0256    7.2907   20.8484 C   0  0  0  0  0  0  0  0  0  0  0  0
    9.3113    5.3049   14.4911 C   0  0  0  0  0  0  0  0  0  0  0  0
    9.4607    7.5646   16.0139 C   0  0  0  0  0  0  0  0  0  0  0  0
   10.4192    7.3157   15.0955 C   0  0  0  0  0  0  0  0  0  0  0  0
   10.2489    6.4227   23.0218 N   0  0  0  0  0  0  0  0  0  0  0  0
    7.2472    8.0746   23.5050 C   0  0  0  0  0  0  0  0  0  0  0  0
    9.2051    6.9101   23.4604 C   0  0  0  0  0  0  0  0  0  0  0  0
   11.9646    6.0299   21.4251 C   0  0  0  0  0  0  0  0  0  0  0  0
  1  5  1  0
  1 13  1  0
  2 20  2  0
  2 28  1  0
  2 29  1  0
  3 19  4  0
  3 25  4  0
  4 23  4  0
  4 27  1  0
  4 30  4  0
  5 17  1  0
  6  8  1  0
  6 29  1  0
  7 24  4  0
  7 26  4  0
  8 28  1  0
  9 13  2  0
 10 18  1  0
 10 21  4  0
 10 30  4  0
 11 17  2  0
 12 18  1  0
 13 15  1  0
 14 24  1  0
 15 25  1  0
 16 28  2  0
 17 20  1  0
 19 24  4  0
 20 23  1  0
 21 22  4  0
 22 23  4  0
 25 26  4  0
 27 29  2  0
M  END
$$$$

 Created by Python create_sdf_string function

 30 33  0  0  0  0  0  0  0  0999 V2000
    8.3036    9.8571   18.4133 C   0  0  0  0  0  0  0  0  0  0  0  0
    8.3694    7.6612   22.6703 C   0  0  0  0  0  0  0  0  0  0  0  0
    8.4143    6.6863   16.2273 C   0  0  0  0  0  0  0  0  0  0  0  0
   10.7581    6.5674   21.7636 C   0  0  0  0  0  0  0  0  0  0  0  0
    8.4452    8.7960   19.2958 O   0  0  0  0  0  0  0  0  0  0  0  0
    8.7122    6.7842   24.8569 C   0  0  0  0  0  0  0  0  0  0  0  0
   10.3400    6.1726   14.3081 C   0  0  0  0  0  0  0  0  0  0  0  0
    7.4297    7.5873   24.8962 C   0  0  0  0  0  0  0  0  0  0  0  0
    8.1566   10.0536   16.0516 O   0  0  0  0  0  0  0  0  0  0  0  0
   12.4989    6.2074   20.1776 C   0  0  0  0  0  0  0  0  0  0  0  0
    6.9192    9.1053   20.9073 O   0  0  0  0  0  0  0  0  0  0  0  0
   14.3979    6.0729   18.7784 C   0  0  0  0  0  0  0  0  0  0  0  0
    8.6811    9.5354   16.9998 C   0  0  0  0  0  0  0  0  0  0  0  0
    9.2512    4.2713   13.7653 O   0  0  0  0  0  0  0  0  0  0  0  0
    9.6495    8.6317   16.8332 N   0  0  0  0  0  0  0  0  0  0  0  0
    6.2934    8.6988   23.1988 O   0  0  0  0  0  0  0  0  0  0  0  0
    7.9806    8.6543   20.5437 C   0  0  0  0  0  0  0  0  0  0  0  0
   13.7270    5.7144   19.8610 O   0  0  0  0  0  0  0  0  0  0  0  0
    8.3351    5.5235   15.4478 C   0  0  0  0  0  0  0  0  0  0  0  0
    8.7700    7.8434   21.3915 C   0  0  0  0  0  0  0  0  0  0  0  0
   11.7856    6.8851   19.2401 C   0  0  0  0  0  0  0  0  0  0  0  0
   10.5281    7.4276   19.5649 C   0  0  0  0  0  0  0  0  0  0  0  0
   10.0256    7.2907   20.8484 C   0  0  0  0  0  0  0  0  0  0  0  0
    9.3113    5.3049   14.4911 C   0  0  0  0  0  0  0  0  0  0  0  0
    9.4607    7.5646   16.0139 C   0  0  0  0  0  0  0  0  0  0  0  0
   10.4192    7.3157   15.0955 C   0  0  0  0  0  0  0  0  0  0  0  0
   10.2489    6.4227   23.0218 N   0  0  0  0  0  0  0  0  0  0  0  0
    7.2472    8.0746   23.5050 C   0  0  0  0  0  0  0  0  0  0  0  0
    9.2051    6.9101   23.4604 C   0  0  0  0  0  0  0  0  0  0  0  0
   11.9646    6.0299   21.4251 C   0  0  0  0  0  0  0  0  0  0  0  0
  1  5  1  0
  1 13  1  0
  2 20  2  0
  2 28  1  0
  2 29  1  0
  3 19  4  0
  3 25  4  0
  4 23  4  0
  4 27  1  0
  4 30  4  0
  5 17  1  0
  6  8  1  0
  6 29  1  0
  7 24  4  0
  7 26  4  0
  8 28  1  0
  9 13  2  0
 10 18  1  0
 10 21  4  0
 10 30  4  0
 11 17  2  0
 12 18  1  0
 13 15  1  0
 14 24  1  0
 15 25  1  0
 16 28  2  0
 17 20  1  0
 19 24  4  0
 20 23  1  0
 21 22  4  0
 22 23  4  0
 25 26  4  0
 27 29  2  0
M  END
$$$$

 Created by Python create_sdf_string function

 30 33  0  0  0  0  0  0  0  0999 V2000
    8.3036    9.8571   18.4133 C   0  0  0  0  0  0  0  0  0  0  0  0
    8.3694    7.6612   22.6703 C   0  0  0  0  0  0  0  0  0  0  0  0
    8.4143    6.6863   16.2273 C   0  0  0  0  0  0  0  0  0  0  0  0
   10.7581    6.5674   21.7636 C   0  0  0  0  0  0  0  0  0  0  0  0
    8.4452    8.7960   19.2958 O   0  0  0  0  0  0  0  0  0  0  0  0
    8.7122    6.7842   24.8569 C   0  0  0  0  0  0  0  0  0  0  0  0
   10.3400    6.1726   14.3081 C   0  0  0  0  0  0  0  0  0  0  0  0
    7.4297    7.5873   24.8962 C   0  0  0  0  0  0  0  0  0  0  0  0
    8.1566   10.0536   16.0516 O   0  0  0  0  0  0  0  0  0  0  0  0
   12.4989    6.2074   20.1776 C   0  0  0  0  0  0  0  0  0  0  0  0
    6.9192    9.1053   20.9073 O   0  0  0  0  0  0  0  0  0  0  0  0
   14.3979    6.0729   18.7784 C   0  0  0  0  0  0  0  0  0  0  0  0
    8.6811    9.5354   16.9998 C   0  0  0  0  0  0  0  0  0  0  0  0
    9.2512    4.2713   13.7653 O   0  0  0  0  0  0  0  0  0  0  0  0
    9.6495    8.6317   16.8332 N   0  0  0  0  0  0  0  0  0  0  0  0
    6.2934    8.6988   23.1988 O   0  0  0  0  0  0  0  0  0  0  0  0
    7.9806    8.6543   20.5437 C   0  0  0  0  0  0  0  0  0  0  0  0
   13.7270    5.7144   19.8610 O   0  0  0  0  0  0  0  0  0  0  0  0
    8.3351    5.5235   15.4478 C   0  0  0  0  0  0  0  0  0  0  0  0
    8.7700    7.8434   21.3915 C   0  0  0  0  0  0  0  0  0  0  0  0
   11.7856    6.8851   19.2401 C   0  0  0  0  0  0  0  0  0  0  0  0
   10.5281    7.4276   19.5649 C   0  0  0  0  0  0  0  0  0  0  0  0
   10.0256    7.2907   20.8484 C   0  0  0  0  0  0  0  0  0  0  0  0
    9.3113    5.3049   14.4911 C   0  0  0  0  0  0  0  0  0  0  0  0
    9.4607    7.5646   16.0139 C   0  0  0  0  0  0  0  0  0  0  0  0
   10.4192    7.3157   15.0955 C   0  0  0  0  0  0  0  0  0  0  0  0
   10.2489    6.4227   23.0218 N   0  0  0  0  0  0  0  0  0  0  0  0
    7.2472    8.0746   23.5050 C   0  0  0  0  0  0  0  0  0  0  0  0
    9.2051    6.9101   23.4604 C   0  0  0  0  0  0  0  0  0  0  0  0
   11.9646    6.0299   21.4251 C   0  0  0  0  0  0  0  0  0  0  0  0
  1  5  1  0
  1 13  1  0
  2 20  2  0
  2 28  1  0
  2 29  1  0
  3 19  4  0
  3 25  4  0
  4 23  4  0
  4 27  1  0
  4 30  4  0
  5 17  1  0
  6  8  1  0
  6 29  1  0
  7 24  4  0
  7 26  4  0
  8 28  1  0
  9 13  2  0
 10 18  1  0
 10 21  4  0
 10 30  4  0
 11 17  2  0
 12 18  1  0
 13 15  1  0
 14 24  1  0
 15 25  1  0
 16 28  2  0
 17 20  1  0
 19 24  4  0
 20 23  1  0
 21 22  4  0
 22 23  4  0
 25 26  4  0
 27 29  2  0
M  END
$$$$

 Created by Python create_sdf_string function

 30 33  0  0  0  0  0  0  0  0999 V2000
    8.3036    9.8571   18.4133 C   0  0  0  0  0  0  0  0  0  0  0  0
    8.3694    7.6612   22.6703 C   0  0  0  0  0  0  0  0  0  0  0  0
    8.4143    6.6863   16.2273 C   0  0  0  0  0  0  0  0  0  0  0  0
   10.7581    6.5674   21.7636 C   0  0  0  0  0  0  0  0  0  0  0  0
    8.4452    8.7960   19.2958 O   0  0  0  0  0  0  0  0  0  0  0  0
    8.7122    6.7842   24.8569 C   0  0  0  0  0  0  0  0  0  0  0  0
   10.3400    6.1726   14.3081 C   0  0  0  0  0  0  0  0  0  0  0  0
    7.4297    7.5873   24.8962 C   0  0  0  0  0  0  0  0  0  0  0  0
    8.1566   10.0536   16.0516 O   0  0  0  0  0  0  0  0  0  0  0  0
   12.4989    6.2074   20.1776 C   0  0  0  0  0  0  0  0  0  0  0  0
    6.9192    9.1053   20.9073 O   0  0  0  0  0  0  0  0  0  0  0  0
   14.3979    6.0729   18.7784 C   0  0  0  0  0  0  0  0  0  0  0  0
    8.6811    9.5354   16.9998 C   0  0  0  0  0  0  0  0  0  0  0  0
    9.2512    4.2713   13.7653 O   0  0  0  0  0  0  0  0  0  0  0  0
    9.6495    8.6317   16.8332 N   0  0  0  0  0  0  0  0  0  0  0  0
    6.2934    8.6988   23.1988 O   0  0  0  0  0  0  0  0  0  0  0  0
    7.9806    8.6543   20.5437 C   0  0  0  0  0  0  0  0  0  0  0  0
   13.7270    5.7144   19.8610 O   0  0  0  0  0  0  0  0  0  0  0  0
    8.3351    5.5235   15.4478 C   0  0  0  0  0  0  0  0  0  0  0  0
    8.7700    7.8434   21.3915 C   0  0  0  0  0  0  0  0  0  0  0  0
   11.7856    6.8851   19.2401 C   0  0  0  0  0  0  0  0  0  0  0  0
   10.5281    7.4276   19.5649 C   0  0  0  0  0  0  0  0  0  0  0  0
   10.0256    7.2907   20.8484 C   0  0  0  0  0  0  0  0  0  0  0  0
    9.3113    5.3049   14.4911 C   0  0  0  0  0  0  0  0  0  0  0  0
    9.4607    7.5646   16.0139 C   0  0  0  0  0  0  0  0  0  0  0  0
   10.4192    7.3157   15.0955 C   0  0  0  0  0  0  0  0  0  0  0  0
   10.2489    6.4227   23.0218 N   0  0  0  0  0  0  0  0  0  0  0  0
    7.2472    8.0746   23.5050 C   0  0  0  0  0  0  0  0  0  0  0  0
    9.2051    6.9101   23.4604 C   0  0  0  0  0  0  0  0  0  0  0  0
   11.9646    6.0299   21.4251 C   0  0  0  0  0  0  0  0  0  0  0  0
  1  5  1  0
  1 13  1  0
  2 20  2  0
  2 28  1  0
  2 29  1  0
  3 19  4  0
  3 25  4  0
  4 23  4  0
  4 27  1  0
  4 30  4  0
  5 17  1  0
  6  8  1  0
  6 29  1  0
  7 24  4  0
  7 26  4  0
  8 28  1  0
  9 13  2  0
 10 18  1  0
 10 21  4  0
 10 30  4  0
 11 17  2  0
 12 18  1  0
 13 15  1  0
 14 24  1  0
 15 25  1  0
 16 28  2  0
 17 20  1  0
 19 24  4  0
 20 23  1  0
 21 22  4  0
 22 23  4  0
 25 26  4  0
 27 29  2  0
M  END
$$$$

 Created by Python create_sdf_string function

 30 33  0  0  0  0  0  0  0  0999 V2000
    8.3036    9.8571   18.4133 C   0  0  0  0  0  0  0  0  0  0  0  0
    8.3694    7.6612   22.6703 C   0  0  0  0  0  0  0  0  0  0  0  0
    8.4143    6.6863   16.2273 C   0  0  0  0  0  0  0  0  0  0  0  0
   10.7581    6.5674   21.7636 C   0  0  0  0  0  0  0  0  0  0  0  0
    8.4452    8.7960   19.2958 O   0  0  0  0  0  0  0  0  0  0  0  0
    8.7122    6.7842   24.8569 C   0  0  0  0  0  0  0  0  0  0  0  0
   10.3400    6.1726   14.3081 C   0  0  0  0  0  0  0  0  0  0  0  0
    7.4297    7.5873   24.8962 C   0  0  0  0  0  0  0  0  0  0  0  0
    8.1566   10.0536   16.0516 O   0  0  0  0  0  0  0  0  0  0  0  0
   12.4989    6.2074   20.1776 C   0  0  0  0  0  0  0  0  0  0  0  0
    6.9192    9.1053   20.9073 O   0  0  0  0  0  0  0  0  0  0  0  0
   14.3979    6.0729   18.7784 C   0  0  0  0  0  0  0  0  0  0  0  0
    8.6811    9.5354   16.9998 C   0  0  0  0  0  0  0  0  0  0  0  0
    9.2512    4.2713   13.7653 O   0  0  0  0  0  0  0  0  0  0  0  0
    9.6495    8.6317   16.8332 N   0  0  0  0  0  0  0  0  0  0  0  0
    6.2934    8.6988   23.1988 O   0  0  0  0  0  0  0  0  0  0  0  0
    7.9806    8.6543   20.5437 C   0  0  0  0  0  0  0  0  0  0  0  0
   13.7270    5.7144   19.8610 O   0  0  0  0  0  0  0  0  0  0  0  0
    8.3351    5.5235   15.4478 C   0  0  0  0  0  0  0  0  0  0  0  0
    8.7700    7.8434   21.3915 C   0  0  0  0  0  0  0  0  0  0  0  0
   11.7856    6.8851   19.2401 C   0  0  0  0  0  0  0  0  0  0  0  0
   10.5281    7.4276   19.5649 C   0  0  0  0  0  0  0  0  0  0  0  0
   10.0256    7.2907   20.8484 C   0  0  0  0  0  0  0  0  0  0  0  0
    9.3113    5.3049   14.4911 C   0  0  0  0  0  0  0  0  0  0  0  0
    9.4607    7.5646   16.0139 C   0  0  0  0  0  0  0  0  0  0  0  0
   10.4192    7.3157   15.0955 C   0  0  0  0  0  0  0  0  0  0  0  0
   10.2489    6.4227   23.0218 N   0  0  0  0  0  0  0  0  0  0  0  0
    7.2472    8.0746   23.5050 C   0  0  0  0  0  0  0  0  0  0  0  0
    9.2051    6.9101   23.4604 C   0  0  0  0  0  0  0  0  0  0  0  0
   11.9646    6.0299   21.4251 C   0  0  0  0  0  0  0  0  0  0  0  0
  1  5  1  0
  1 13  1  0
  2 20  2  0
  2 28  1  0
  2 29  1  0
  3 19  4  0
  3 25  4  0
  4 23  4  0
  4 27  1  0
  4 30  4  0
  5 17  1  0
  6  8  1  0
  6 29  1  0
  7 24  4  0
  7 26  4  0
  8 28  1  0
  9 13  2  0
 10 18  1  0
 10 21  4  0
 10 30  4  0
 11 17  2  0
 12 18  1  0
 13 15  1  0
 14 24  1  0
 15 25  1  0
 16 28  2  0
 17 20  1  0
 19 24  4  0
 20 23  1  0
 21 22  4  0
 22 23  4  0
 25 26  4  0
 27 29  2  0
M  END
$$$$

 Created by Python create_sdf_string function

 30 33  0  0  0  0  0  0  0  0999 V2000
    8.3036    9.8571   18.4133 C   0  0  0  0  0  0  0  0  0  0  0  0
    8.3694    7.6612   22.6703 C   0  0  0  0  0  0  0  0  0  0  0  0
    8.4143    6.6863   16.2273 C   0  0  0  0  0  0  0  0  0  0  0  0
   10.7581    6.5674   21.7636 C   0  0  0  0  0  0  0  0  0  0  0  0
    8.4452    8.7960   19.2958 O   0  0  0  0  0  0  0  0  0  0  0  0
    8.7122    6.7842   24.8569 C   0  0  0  0  0  0  0  0  0  0  0  0
   10.3400    6.1726   14.3081 C   0  0  0  0  0  0  0  0  0  0  0  0
    7.4297    7.5873   24.8962 C   0  0  0  0  0  0  0  0  0  0  0  0
    8.1566   10.0536   16.0516 O   0  0  0  0  0  0  0  0  0  0  0  0
   12.4989    6.2074   20.1776 C   0  0  0  0  0  0  0  0  0  0  0  0
    6.9192    9.1053   20.9073 O   0  0  0  0  0  0  0  0  0  0  0  0
   14.3979    6.0729   18.7784 C   0  0  0  0  0  0  0  0  0  0  0  0
    8.6811    9.5354   16.9998 C   0  0  0  0  0  0  0  0  0  0  0  0
    9.2512    4.2713   13.7653 O   0  0  0  0  0  0  0  0  0  0  0  0
    9.6495    8.6317   16.8332 N   0  0  0  0  0  0  0  0  0  0  0  0
    6.2934    8.6988   23.1988 O   0  0  0  0  0  0  0  0  0  0  0  0
    7.9806    8.6543   20.5437 C   0  0  0  0  0  0  0  0  0  0  0  0
   13.7270    5.7144   19.8610 O   0  0  0  0  0  0  0  0  0  0  0  0
    8.3351    5.5235   15.4478 C   0  0  0  0  0  0  0  0  0  0  0  0
    8.7700    7.8434   21.3915 C   0  0  0  0  0  0  0  0  0  0  0  0
   11.7856    6.8851   19.2401 C   0  0  0  0  0  0  0  0  0  0  0  0
   10.5281    7.4276   19.5649 C   0  0  0  0  0  0  0  0  0  0  0  0
   10.0256    7.2907   20.8484 C   0  0  0  0  0  0  0  0  0  0  0  0
    9.3113    5.3049   14.4911 C   0  0  0  0  0  0  0  0  0  0  0  0
    9.4607    7.5646   16.0139 C   0  0  0  0  0  0  0  0  0  0  0  0
   10.4192    7.3157   15.0955 C   0  0  0  0  0  0  0  0  0  0  0  0
   10.2489    6.4227   23.0218 N   0  0  0  0  0  0  0  0  0  0  0  0
    7.2472    8.0746   23.5050 C   0  0  0  0  0  0  0  0  0  0  0  0
    9.2051    6.9101   23.4604 C   0  0  0  0  0  0  0  0  0  0  0  0
   11.9646    6.0299   21.4251 C   0  0  0  0  0  0  0  0  0  0  0  0
  1  5  1  0
  1 13  1  0
  2 20  2  0
  2 28  1  0
  2 29  1  0
  3 19  4  0
  3 25  4  0
  4 23  4  0
  4 27  1  0
  4 30  4  0
  5 17  1  0
  6  8  1  0
  6 29  1  0
  7 24  4  0
  7 26  4  0
  8 28  1  0
  9 13  2  0
 10 18  1  0
 10 21  4  0
 10 30  4  0
 11 17  2  0
 12 18  1  0
 13 15  1  0
 14 24  1  0
 15 25  1  0
 16 28  2  0
 17 20  1  0
 19 24  4  0
 20 23  1  0
 21 22  4  0
 22 23  4  0
 25 26  4  0
 27 29  2  0
M  END
$$$$

 Created by Python create_sdf_string function

 30 33  0  0  0  0  0  0  0  0999 V2000
    8.3036    9.8571   18.4133 C   0  0  0  0  0  0  0  0  0  0  0  0
    8.3694    7.6612   22.6703 C   0  0  0  0  0  0  0  0  0  0  0  0
    8.4143    6.6863   16.2273 C   0  0  0  0  0  0  0  0  0  0  0  0
   10.7581    6.5674   21.7636 C   0  0  0  0  0  0  0  0  0  0  0  0
    8.4452    8.7960   19.2958 O   0  0  0  0  0  0  0  0  0  0  0  0
    8.7122    6.7842   24.8569 C   0  0  0  0  0  0  0  0  0  0  0  0
   10.3400    6.1726   14.3081 C   0  0  0  0  0  0  0  0  0  0  0  0
    7.4297    7.5873   24.8962 C   0  0  0  0  0  0  0  0  0  0  0  0
    8.1566   10.0536   16.0516 O   0  0  0  0  0  0  0  0  0  0  0  0
   12.4989    6.2074   20.1776 C   0  0  0  0  0  0  0  0  0  0  0  0
    6.9192    9.1053   20.9073 O   0  0  0  0  0  0  0  0  0  0  0  0
   14.3979    6.0729   18.7784 C   0  0  0  0  0  0  0  0  0  0  0  0
    8.6811    9.5354   16.9998 C   0  0  0  0  0  0  0  0  0  0  0  0
    9.2512    4.2713   13.7653 O   0  0  0  0  0  0  0  0  0  0  0  0
    9.6495    8.6317   16.8332 N   0  0  0  0  0  0  0  0  0  0  0  0
    6.2934    8.6988   23.1988 O   0  0  0  0  0  0  0  0  0  0  0  0
    7.9806    8.6543   20.5437 C   0  0  0  0  0  0  0  0  0  0  0  0
   13.7270    5.7144   19.8610 O   0  0  0  0  0  0  0  0  0  0  0  0
    8.3351    5.5235   15.4478 C   0  0  0  0  0  0  0  0  0  0  0  0
    8.7700    7.8434   21.3915 C   0  0  0  0  0  0  0  0  0  0  0  0
   11.7856    6.8851   19.2401 C   0  0  0  0  0  0  0  0  0  0  0  0
   10.5281    7.4276   19.5649 C   0  0  0  0  0  0  0  0  0  0  0  0
   10.0256    7.2907   20.8484 C   0  0  0  0  0  0  0  0  0  0  0  0
    9.3113    5.3049   14.4911 C   0  0  0  0  0  0  0  0  0  0  0  0
    9.4607    7.5646   16.0139 C   0  0  0  0  0  0  0  0  0  0  0  0
   10.4192    7.3157   15.0955 C   0  0  0  0  0  0  0  0  0  0  0  0
   10.2489    6.4227   23.0218 N   0  0  0  0  0  0  0  0  0  0  0  0
    7.2472    8.0746   23.5050 C   0  0  0  0  0  0  0  0  0  0  0  0
    9.2051    6.9101   23.4604 C   0  0  0  0  0  0  0  0  0  0  0  0
   11.9646    6.0299   21.4251 C   0  0  0  0  0  0  0  0  0  0  0  0
  1  5  1  0
  1 13  1  0
  2 20  2  0
  2 28  1  0
  2 29  1  0
  3 19  4  0
  3 25  4  0
  4 23  4  0
  4 27  1  0
  4 30  4  0
  5 17  1  0
  6  8  1  0
  6 29  1  0
  7 24  4  0
  7 26  4  0
  8 28  1  0
  9 13  2  0
 10 18  1  0
 10 21  4  0
 10 30  4  0
 11 17  2  0
 12 18  1  0
 13 15  1  0
 14 24  1  0
 15 25  1  0
 16 28  2  0
 17 20  1  0
 19 24  4  0
 20 23  1  0
 21 22  4  0
 22 23  4  0
 25 26  4  0
 27 29  2  0
M  END
$$$$

 Created by Python create_sdf_string function

 30 33  0  0  0  0  0  0  0  0999 V2000
    8.3036    9.8571   18.4133 C   0  0  0  0  0  0  0  0  0  0  0  0
    8.3694    7.6612   22.6703 C   0  0  0  0  0  0  0  0  0  0  0  0
    8.4143    6.6863   16.2273 C   0  0  0  0  0  0  0  0  0  0  0  0
   10.7581    6.5674   21.7636 C   0  0  0  0  0  0  0  0  0  0  0  0
    8.4452    8.7960   19.2958 O   0  0  0  0  0  0  0  0  0  0  0  0
    8.7122    6.7842   24.8569 C   0  0  0  0  0  0  0  0  0  0  0  0
   10.3400    6.1726   14.3081 C   0  0  0  0  0  0  0  0  0  0  0  0
    7.4297    7.5873   24.8962 C   0  0  0  0  0  0  0  0  0  0  0  0
    8.1566   10.0536   16.0516 O   0  0  0  0  0  0  0  0  0  0  0  0
   12.4989    6.2074   20.1776 C   0  0  0  0  0  0  0  0  0  0  0  0
    6.9192    9.1053   20.9073 O   0  0  0  0  0  0  0  0  0  0  0  0
   14.3979    6.0729   18.7784 C   0  0  0  0  0  0  0  0  0  0  0  0
    8.6811    9.5354   16.9998 C   0  0  0  0  0  0  0  0  0  0  0  0
    9.2512    4.2713   13.7653 O   0  0  0  0  0  0  0  0  0  0  0  0
    9.6495    8.6317   16.8332 N   0  0  0  0  0  0  0  0  0  0  0  0
    6.2934    8.6988   23.1988 O   0  0  0  0  0  0  0  0  0  0  0  0
    7.9806    8.6543   20.5437 C   0  0  0  0  0  0  0  0  0  0  0  0
   13.7270    5.7144   19.8610 O   0  0  0  0  0  0  0  0  0  0  0  0
    8.3351    5.5235   15.4478 C   0  0  0  0  0  0  0  0  0  0  0  0
    8.7700    7.8434   21.3915 C   0  0  0  0  0  0  0  0  0  0  0  0
   11.7856    6.8851   19.2401 C   0  0  0  0  0  0  0  0  0  0  0  0
   10.5281    7.4276   19.5649 C   0  0  0  0  0  0  0  0  0  0  0  0
   10.0256    7.2907   20.8484 C   0  0  0  0  0  0  0  0  0  0  0  0
    9.3113    5.3049   14.4911 C   0  0  0  0  0  0  0  0  0  0  0  0
    9.4607    7.5646   16.0139 C   0  0  0  0  0  0  0  0  0  0  0  0
   10.4192    7.3157   15.0955 C   0  0  0  0  0  0  0  0  0  0  0  0
   10.2489    6.4227   23.0218 N   0  0  0  0  0  0  0  0  0  0  0  0
    7.2472    8.0746   23.5050 C   0  0  0  0  0  0  0  0  0  0  0  0
    9.2051    6.9101   23.4604 C   0  0  0  0  0  0  0  0  0  0  0  0
   11.9646    6.0299   21.4251 C   0  0  0  0  0  0  0  0  0  0  0  0
  1  5  1  0
  1 13  1  0
  2 20  2  0
  2 28  1  0
  2 29  1  0
  3 19  4  0
  3 25  4  0
  4 23  4  0
  4 27  1  0
  4 30  4  0
  5 17  1  0
  6  8  1  0
  6 29  1  0
  7 24  4  0
  7 26  4  0
  8 28  1  0
  9 13  2  0
 10 18  1  0
 10 21  4  0
 10 30  4  0
 11 17  2  0
 12 18  1  0
 13 15  1  0
 14 24  1  0
 15 25  1  0
 16 28  2  0
 17 20  1  0
 19 24  4  0
 20 23  1  0
 21 22  4  0
 22 23  4  0
 25 26  4  0
 27 29  2  0
M  END
$$$$

 Created by Python create_sdf_string function

 30 33  0  0  0  0  0  0  0  0999 V2000
    8.3036    9.8571   18.4133 C   0  0  0  0  0  0  0  0  0  0  0  0
    8.3694    7.6612   22.6703 C   0  0  0  0  0  0  0  0  0  0  0  0
    8.4143    6.6863   16.2273 C   0  0  0  0  0  0  0  0  0  0  0  0
   10.7581    6.5674   21.7636 C   0  0  0  0  0  0  0  0  0  0  0  0
    8.4452    8.7960   19.2958 O   0  0  0  0  0  0  0  0  0  0  0  0
    8.7122    6.7842   24.8569 C   0  0  0  0  0  0  0  0  0  0  0  0
   10.3400    6.1726   14.3081 C   0  0  0  0  0  0  0  0  0  0  0  0
    7.4297    7.5873   24.8962 C   0  0  0  0  0  0  0  0  0  0  0  0
    8.1566   10.0536   16.0516 O   0  0  0  0  0  0  0  0  0  0  0  0
   12.4989    6.2074   20.1776 C   0  0  0  0  0  0  0  0  0  0  0  0
    6.9192    9.1053   20.9073 O   0  0  0  0  0  0  0  0  0  0  0  0
   14.3979    6.0729   18.7784 C   0  0  0  0  0  0  0  0  0  0  0  0
    8.6811    9.5354   16.9998 C   0  0  0  0  0  0  0  0  0  0  0  0
    9.2512    4.2713   13.7653 O   0  0  0  0  0  0  0  0  0  0  0  0
    9.6495    8.6317   16.8332 N   0  0  0  0  0  0  0  0  0  0  0  0
    6.2934    8.6988   23.1988 O   0  0  0  0  0  0  0  0  0  0  0  0
    7.9806    8.6543   20.5437 C   0  0  0  0  0  0  0  0  0  0  0  0
   13.7270    5.7144   19.8610 O   0  0  0  0  0  0  0  0  0  0  0  0
    8.3351    5.5235   15.4478 C   0  0  0  0  0  0  0  0  0  0  0  0
    8.7700    7.8434   21.3915 C   0  0  0  0  0  0  0  0  0  0  0  0
   11.7856    6.8851   19.2401 C   0  0  0  0  0  0  0  0  0  0  0  0
   10.5281    7.4276   19.5649 C   0  0  0  0  0  0  0  0  0  0  0  0
   10.0256    7.2907   20.8484 C   0  0  0  0  0  0  0  0  0  0  0  0
    9.3113    5.3049   14.4911 C   0  0  0  0  0  0  0  0  0  0  0  0
    9.4607    7.5646   16.0139 C   0  0  0  0  0  0  0  0  0  0  0  0
   10.4192    7.3157   15.0955 C   0  0  0  0  0  0  0  0  0  0  0  0
   10.2489    6.4227   23.0218 N   0  0  0  0  0  0  0  0  0  0  0  0
    7.2472    8.0746   23.5050 C   0  0  0  0  0  0  0  0  0  0  0  0
    9.2051    6.9101   23.4604 C   0  0  0  0  0  0  0  0  0  0  0  0
   11.9646    6.0299   21.4251 C   0  0  0  0  0  0  0  0  0  0  0  0
  1  5  1  0
  1 13  1  0
  2 20  2  0
  2 28  1  0
  2 29  1  0
  3 19  4  0
  3 25  4  0
  4 23  4  0
  4 27  1  0
  4 30  4  0
  5 17  1  0
  6  8  1  0
  6 29  1  0
  7 24  4  0
  7 26  4  0
  8 28  1  0
  9 13  2  0
 10 18  1  0
 10 21  4  0
 10 30  4  0
 11 17  2  0
 12 18  1  0
 13 15  1  0
 14 24  1  0
 15 25  1  0
 16 28  2  0
 17 20  1  0
 19 24  4  0
 20 23  1  0
 21 22  4  0
 22 23  4  0
 25 26  4  0
 27 29  2  0
M  END
$$$$

 Created by Python create_sdf_string function

 30 33  0  0  0  0  0  0  0  0999 V2000
    8.3036    9.8571   18.4133 C   0  0  0  0  0  0  0  0  0  0  0  0
    8.3694    7.6612   22.6703 C   0  0  0  0  0  0  0  0  0  0  0  0
    8.4143    6.6863   16.2273 C   0  0  0  0  0  0  0  0  0  0  0  0
   10.7581    6.5674   21.7636 C   0  0  0  0  0  0  0  0  0  0  0  0
    8.4452    8.7960   19.2958 O   0  0  0  0  0  0  0  0  0  0  0  0
    8.7122    6.7842   24.8569 C   0  0  0  0  0  0  0  0  0  0  0  0
   10.3400    6.1726   14.3081 C   0  0  0  0  0  0  0  0  0  0  0  0
    7.4297    7.5873   24.8962 C   0  0  0  0  0  0  0  0  0  0  0  0
    8.1566   10.0536   16.0516 O   0  0  0  0  0  0  0  0  0  0  0  0
   12.4989    6.2074   20.1776 C   0  0  0  0  0  0  0  0  0  0  0  0
    6.9192    9.1053   20.9073 O   0  0  0  0  0  0  0  0  0  0  0  0
   14.3979    6.0729   18.7784 C   0  0  0  0  0  0  0  0  0  0  0  0
    8.6811    9.5354   16.9998 C   0  0  0  0  0  0  0  0  0  0  0  0
    9.2512    4.2713   13.7653 O   0  0  0  0  0  0  0  0  0  0  0  0
    9.6495    8.6317   16.8332 N   0  0  0  0  0  0  0  0  0  0  0  0
    6.2934    8.6988   23.1988 O   0  0  0  0  0  0  0  0  0  0  0  0
    7.9806    8.6543   20.5437 C   0  0  0  0  0  0  0  0  0  0  0  0
   13.7270    5.7144   19.8610 O   0  0  0  0  0  0  0  0  0  0  0  0
    8.3351    5.5235   15.4478 C   0  0  0  0  0  0  0  0  0  0  0  0
    8.7700    7.8434   21.3915 C   0  0  0  0  0  0  0  0  0  0  0  0
   11.7856    6.8851   19.2401 C   0  0  0  0  0  0  0  0  0  0  0  0
   10.5281    7.4276   19.5649 C   0  0  0  0  0  0  0  0  0  0  0  0
   10.0256    7.2907   20.8484 C   0  0  0  0  0  0  0  0  0  0  0  0
    9.3113    5.3049   14.4911 C   0  0  0  0  0  0  0  0  0  0  0  0
    9.4607    7.5646   16.0139 C   0  0  0  0  0  0  0  0  0  0  0  0
   10.4192    7.3157   15.0955 C   0  0  0  0  0  0  0  0  0  0  0  0
   10.2489    6.4227   23.0218 N   0  0  0  0  0  0  0  0  0  0  0  0
    7.2472    8.0746   23.5050 C   0  0  0  0  0  0  0  0  0  0  0  0
    9.2051    6.9101   23.4604 C   0  0  0  0  0  0  0  0  0  0  0  0
   11.9646    6.0299   21.4251 C   0  0  0  0  0  0  0  0  0  0  0  0
  1  5  1  0
  1 13  1  0
  2 20  2  0
  2 28  1  0
  2 29  1  0
  3 19  4  0
  3 25  4  0
  4 23  4  0
  4 27  1  0
  4 30  4  0
  5 17  1  0
  6  8  1  0
  6 29  1  0
  7 24  4  0
  7 26  4  0
  8 28  1  0
  9 13  2  0
 10 18  1  0
 10 21  4  0
 10 30  4  0
 11 17  2  0
 12 18  1  0
 13 15  1  0
 14 24  1  0
 15 25  1  0
 16 28  2  0
 17 20  1  0
 19 24  4  0
 20 23  1  0
 21 22  4  0
 22 23  4  0
 25 26  4  0
 27 29  2  0
M  END
$$$$

 Created by Python create_sdf_string function

 30 33  0  0  0  0  0  0  0  0999 V2000
    8.3036    9.8571   18.4133 C   0  0  0  0  0  0  0  0  0  0  0  0
    8.3694    7.6612   22.6703 C   0  0  0  0  0  0  0  0  0  0  0  0
    8.4143    6.6863   16.2273 C   0  0  0  0  0  0  0  0  0  0  0  0
   10.7581    6.5674   21.7636 C   0  0  0  0  0  0  0  0  0  0  0  0
    8.4452    8.7960   19.2958 O   0  0  0  0  0  0  0  0  0  0  0  0
    8.7122    6.7842   24.8569 C   0  0  0  0  0  0  0  0  0  0  0  0
   10.3400    6.1726   14.3081 C   0  0  0  0  0  0  0  0  0  0  0  0
    7.4297    7.5873   24.8962 C   0  0  0  0  0  0  0  0  0  0  0  0
    8.1566   10.0536   16.0516 O   0  0  0  0  0  0  0  0  0  0  0  0
   12.4989    6.2074   20.1776 C   0  0  0  0  0  0  0  0  0  0  0  0
    6.9192    9.1053   20.9073 O   0  0  0  0  0  0  0  0  0  0  0  0
   14.3979    6.0729   18.7784 C   0  0  0  0  0  0  0  0  0  0  0  0
    8.6811    9.5354   16.9998 C   0  0  0  0  0  0  0  0  0  0  0  0
    9.2512    4.2713   13.7653 O   0  0  0  0  0  0  0  0  0  0  0  0
    9.6495    8.6317   16.8332 N   0  0  0  0  0  0  0  0  0  0  0  0
    6.2934    8.6988   23.1988 O   0  0  0  0  0  0  0  0  0  0  0  0
    7.9806    8.6543   20.5437 C   0  0  0  0  0  0  0  0  0  0  0  0
   13.7270    5.7144   19.8610 O   0  0  0  0  0  0  0  0  0  0  0  0
    8.3351    5.5235   15.4478 C   0  0  0  0  0  0  0  0  0  0  0  0
    8.7700    7.8434   21.3915 C   0  0  0  0  0  0  0  0  0  0  0  0
   11.7856    6.8851   19.2401 C   0  0  0  0  0  0  0  0  0  0  0  0
   10.5281    7.4276   19.5649 C   0  0  0  0  0  0  0  0  0  0  0  0
   10.0256    7.2907   20.8484 C   0  0  0  0  0  0  0  0  0  0  0  0
    9.3113    5.3049   14.4911 C   0  0  0  0  0  0  0  0  0  0  0  0
    9.4607    7.5646   16.0139 C   0  0  0  0  0  0  0  0  0  0  0  0
   10.4192    7.3157   15.0955 C   0  0  0  0  0  0  0  0  0  0  0  0
   10.2489    6.4227   23.0218 N   0  0  0  0  0  0  0  0  0  0  0  0
    7.2472    8.0746   23.5050 C   0  0  0  0  0  0  0  0  0  0  0  0
    9.2051    6.9101   23.4604 C   0  0  0  0  0  0  0  0  0  0  0  0
   11.9646    6.0299   21.4251 C   0  0  0  0  0  0  0  0  0  0  0  0
  1  5  1  0
  1 13  1  0
  2 20  2  0
  2 28  1  0
  2 29  1  0
  3 19  4  0
  3 25  4  0
  4 23  4  0
  4 27  1  0
  4 30  4  0
  5 17  1  0
  6  8  1  0
  6 29  1  0
  7 24  4  0
  7 26  4  0
  8 28  1  0
  9 13  2  0
 10 18  1  0
 10 21  4  0
 10 30  4  0
 11 17  2  0
 12 18  1  0
 13 15  1  0
 14 24  1  0
 15 25  1  0
 16 28  2  0
 17 20  1  0
 19 24  4  0
 20 23  1  0
 21 22  4  0
 22 23  4  0
 25 26  4  0
 27 29  2  0
M  END
$$$$

 Created by Python create_sdf_string function

 30 33  0  0  0  0  0  0  0  0999 V2000
    8.3036    9.8571   18.4133 C   0  0  0  0  0  0  0  0  0  0  0  0
    8.3694    7.6612   22.6703 C   0  0  0  0  0  0  0  0  0  0  0  0
    8.4143    6.6863   16.2273 C   0  0  0  0  0  0  0  0  0  0  0  0
   10.7581    6.5674   21.7636 C   0  0  0  0  0  0  0  0  0  0  0  0
    8.4452    8.7960   19.2958 O   0  0  0  0  0  0  0  0  0  0  0  0
    8.7122    6.7842   24.8569 C   0  0  0  0  0  0  0  0  0  0  0  0
   10.3400    6.1726   14.3081 C   0  0  0  0  0  0  0  0  0  0  0  0
    7.4297    7.5873   24.8962 C   0  0  0  0  0  0  0  0  0  0  0  0
    8.1566   10.0536   16.0516 O   0  0  0  0  0  0  0  0  0  0  0  0
   12.4989    6.2074   20.1776 C   0  0  0  0  0  0  0  0  0  0  0  0
    6.9192    9.1053   20.9073 O   0  0  0  0  0  0  0  0  0  0  0  0
   14.3979    6.0729   18.7784 C   0  0  0  0  0  0  0  0  0  0  0  0
    8.6811    9.5354   16.9998 C   0  0  0  0  0  0  0  0  0  0  0  0
    9.2512    4.2713   13.7653 O   0  0  0  0  0  0  0  0  0  0  0  0
    9.6495    8.6317   16.8332 N   0  0  0  0  0  0  0  0  0  0  0  0
    6.2934    8.6988   23.1988 O   0  0  0  0  0  0  0  0  0  0  0  0
    7.9806    8.6543   20.5437 C   0  0  0  0  0  0  0  0  0  0  0  0
   13.7270    5.7144   19.8610 O   0  0  0  0  0  0  0  0  0  0  0  0
    8.3351    5.5235   15.4478 C   0  0  0  0  0  0  0  0  0  0  0  0
    8.7700    7.8434   21.3915 C   0  0  0  0  0  0  0  0  0  0  0  0
   11.7856    6.8851   19.2401 C   0  0  0  0  0  0  0  0  0  0  0  0
   10.5281    7.4276   19.5649 C   0  0  0  0  0  0  0  0  0  0  0  0
   10.0256    7.2907   20.8484 C   0  0  0  0  0  0  0  0  0  0  0  0
    9.3113    5.3049   14.4911 C   0  0  0  0  0  0  0  0  0  0  0  0
    9.4607    7.5646   16.0139 C   0  0  0  0  0  0  0  0  0  0  0  0
   10.4192    7.3157   15.0955 C   0  0  0  0  0  0  0  0  0  0  0  0
   10.2489    6.4227   23.0218 N   0  0  0  0  0  0  0  0  0  0  0  0
    7.2472    8.0746   23.5050 C   0  0  0  0  0  0  0  0  0  0  0  0
    9.2051    6.9101   23.4604 C   0  0  0  0  0  0  0  0  0  0  0  0
   11.9646    6.0299   21.4251 C   0  0  0  0  0  0  0  0  0  0  0  0
  1  5  1  0
  1 13  1  0
  2 20  2  0
  2 28  1  0
  2 29  1  0
  3 19  4  0
  3 25  4  0
  4 23  4  0
  4 27  1  0
  4 30  4  0
  5 17  1  0
  6  8  1  0
  6 29  1  0
  7 24  4  0
  7 26  4  0
  8 28  1  0
  9 13  2  0
 10 18  1  0
 10 21  4  0
 10 30  4  0
 11 17  2  0
 12 18  1  0
 13 15  1  0
 14 24  1  0
 15 25  1  0
 16 28  2  0
 17 20  1  0
 19 24  4  0
 20 23  1  0
 21 22  4  0
 22 23  4  0
 25 26  4  0
 27 29  2  0
M  END
$$$$

 Created by Python create_sdf_string function

 30 33  0  0  0  0  0  0  0  0999 V2000
    8.3036    9.8571   18.4133 C   0  0  0  0  0  0  0  0  0  0  0  0
    8.3694    7.6612   22.6703 C   0  0  0  0  0  0  0  0  0  0  0  0
    8.4143    6.6863   16.2273 C   0  0  0  0  0  0  0  0  0  0  0  0
   10.7581    6.5674   21.7636 C   0  0  0  0  0  0  0  0  0  0  0  0
    8.4452    8.7960   19.2958 O   0  0  0  0  0  0  0  0  0  0  0  0
    8.7122    6.7842   24.8569 C   0  0  0  0  0  0  0  0  0  0  0  0
   10.3400    6.1726   14.3081 C   0  0  0  0  0  0  0  0  0  0  0  0
    7.4297    7.5873   24.8962 C   0  0  0  0  0  0  0  0  0  0  0  0
    8.1566   10.0536   16.0516 O   0  0  0  0  0  0  0  0  0  0  0  0
   12.4989    6.2074   20.1776 C   0  0  0  0  0  0  0  0  0  0  0  0
    6.9192    9.1053   20.9073 O   0  0  0  0  0  0  0  0  0  0  0  0
   14.3979    6.0729   18.7784 C   0  0  0  0  0  0  0  0  0  0  0  0
    8.6811    9.5354   16.9998 C   0  0  0  0  0  0  0  0  0  0  0  0
    9.2512    4.2713   13.7653 O   0  0  0  0  0  0  0  0  0  0  0  0
    9.6495    8.6317   16.8332 N   0  0  0  0  0  0  0  0  0  0  0  0
    6.2934    8.6988   23.1988 O   0  0  0  0  0  0  0  0  0  0  0  0
    7.9806    8.6543   20.5437 C   0  0  0  0  0  0  0  0  0  0  0  0
   13.7270    5.7144   19.8610 O   0  0  0  0  0  0  0  0  0  0  0  0
    8.3351    5.5235   15.4478 C   0  0  0  0  0  0  0  0  0  0  0  0
    8.7700    7.8434   21.3915 C   0  0  0  0  0  0  0  0  0  0  0  0
   11.7856    6.8851   19.2401 C   0  0  0  0  0  0  0  0  0  0  0  0
   10.5281    7.4276   19.5649 C   0  0  0  0  0  0  0  0  0  0  0  0
   10.0256    7.2907   20.8484 C   0  0  0  0  0  0  0  0  0  0  0  0
    9.3113    5.3049   14.4911 C   0  0  0  0  0  0  0  0  0  0  0  0
    9.4607    7.5646   16.0139 C   0  0  0  0  0  0  0  0  0  0  0  0
   10.4192    7.3157   15.0955 C   0  0  0  0  0  0  0  0  0  0  0  0
   10.2489    6.4227   23.0218 N   0  0  0  0  0  0  0  0  0  0  0  0
    7.2472    8.0746   23.5050 C   0  0  0  0  0  0  0  0  0  0  0  0
    9.2051    6.9101   23.4604 C   0  0  0  0  0  0  0  0  0  0  0  0
   11.9646    6.0299   21.4251 C   0  0  0  0  0  0  0  0  0  0  0  0
  1  5  1  0
  1 13  1  0
  2 20  2  0
  2 28  1  0
  2 29  1  0
  3 19  4  0
  3 25  4  0
  4 23  4  0
  4 27  1  0
  4 30  4  0
  5 17  1  0
  6  8  1  0
  6 29  1  0
  7 24  4  0
  7 26  4  0
  8 28  1  0
  9 13  2  0
 10 18  1  0
 10 21  4  0
 10 30  4  0
 11 17  2  0
 12 18  1  0
 13 15  1  0
 14 24  1  0
 15 25  1  0
 16 28  2  0
 17 20  1  0
 19 24  4  0
 20 23  1  0
 21 22  4  0
 22 23  4  0
 25 26  4  0
 27 29  2  0
M  END
$$$$

 Created by Python create_sdf_string function

 30 33  0  0  0  0  0  0  0  0999 V2000
    8.3036    9.8571   18.4133 C   0  0  0  0  0  0  0  0  0  0  0  0
    8.3694    7.6612   22.6703 C   0  0  0  0  0  0  0  0  0  0  0  0
    8.4143    6.6863   16.2273 C   0  0  0  0  0  0  0  0  0  0  0  0
   10.7581    6.5674   21.7636 C   0  0  0  0  0  0  0  0  0  0  0  0
    8.4452    8.7960   19.2958 O   0  0  0  0  0  0  0  0  0  0  0  0
    8.7122    6.7842   24.8569 C   0  0  0  0  0  0  0  0  0  0  0  0
   10.3400    6.1726   14.3081 C   0  0  0  0  0  0  0  0  0  0  0  0
    7.4297    7.5873   24.8962 C   0  0  0  0  0  0  0  0  0  0  0  0
    8.1566   10.0536   16.0516 O   0  0  0  0  0  0  0  0  0  0  0  0
   12.4989    6.2074   20.1776 C   0  0  0  0  0  0  0  0  0  0  0  0
    6.9192    9.1053   20.9073 O   0  0  0  0  0  0  0  0  0  0  0  0
   14.3979    6.0729   18.7784 C   0  0  0  0  0  0  0  0  0  0  0  0
    8.6811    9.5354   16.9998 C   0  0  0  0  0  0  0  0  0  0  0  0
    9.2512    4.2713   13.7653 O   0  0  0  0  0  0  0  0  0  0  0  0
    9.6495    8.6317   16.8332 N   0  0  0  0  0  0  0  0  0  0  0  0
    6.2934    8.6988   23.1988 O   0  0  0  0  0  0  0  0  0  0  0  0
    7.9806    8.6543   20.5437 C   0  0  0  0  0  0  0  0  0  0  0  0
   13.7270    5.7144   19.8610 O   0  0  0  0  0  0  0  0  0  0  0  0
    8.3351    5.5235   15.4478 C   0  0  0  0  0  0  0  0  0  0  0  0
    8.7700    7.8434   21.3915 C   0  0  0  0  0  0  0  0  0  0  0  0
   11.7856    6.8851   19.2401 C   0  0  0  0  0  0  0  0  0  0  0  0
   10.5281    7.4276   19.5649 C   0  0  0  0  0  0  0  0  0  0  0  0
   10.0256    7.2907   20.8484 C   0  0  0  0  0  0  0  0  0  0  0  0
    9.3113    5.3049   14.4911 C   0  0  0  0  0  0  0  0  0  0  0  0
    9.4607    7.5646   16.0139 C   0  0  0  0  0  0  0  0  0  0  0  0
   10.4192    7.3157   15.0955 C   0  0  0  0  0  0  0  0  0  0  0  0
   10.2489    6.4227   23.0218 N   0  0  0  0  0  0  0  0  0  0  0  0
    7.2472    8.0746   23.5050 C   0  0  0  0  0  0  0  0  0  0  0  0
    9.2051    6.9101   23.4604 C   0  0  0  0  0  0  0  0  0  0  0  0
   11.9646    6.0299   21.4251 C   0  0  0  0  0  0  0  0  0  0  0  0
  1  5  1  0
  1 13  1  0
  2 20  2  0
  2 28  1  0
  2 29  1  0
  3 19  4  0
  3 25  4  0
  4 23  4  0
  4 27  1  0
  4 30  4  0
  5 17  1  0
  6  8  1  0
  6 29  1  0
  7 24  4  0
  7 26  4  0
  8 28  1  0
  9 13  2  0
 10 18  1  0
 10 21  4  0
 10 30  4  0
 11 17  2  0
 12 18  1  0
 13 15  1  0
 14 24  1  0
 15 25  1  0
 16 28  2  0
 17 20  1  0
 19 24  4  0
 20 23  1  0
 21 22  4  0
 22 23  4  0
 25 26  4  0
 27 29  2  0
M  END
$$$$

 Created by Python create_sdf_string function

 30 33  0  0  0  0  0  0  0  0999 V2000
    8.3036    9.8571   18.4133 C   0  0  0  0  0  0  0  0  0  0  0  0
    8.3694    7.6612   22.6703 C   0  0  0  0  0  0  0  0  0  0  0  0
    8.4143    6.6863   16.2273 C   0  0  0  0  0  0  0  0  0  0  0  0
   10.7581    6.5674   21.7636 C   0  0  0  0  0  0  0  0  0  0  0  0
    8.4452    8.7960   19.2958 O   0  0  0  0  0  0  0  0  0  0  0  0
    8.7122    6.7842   24.8569 C   0  0  0  0  0  0  0  0  0  0  0  0
   10.3400    6.1726   14.3081 C   0  0  0  0  0  0  0  0  0  0  0  0
    7.4297    7.5873   24.8962 C   0  0  0  0  0  0  0  0  0  0  0  0
    8.1566   10.0536   16.0516 O   0  0  0  0  0  0  0  0  0  0  0  0
   12.4989    6.2074   20.1776 C   0  0  0  0  0  0  0  0  0  0  0  0
    6.9192    9.1053   20.9073 O   0  0  0  0  0  0  0  0  0  0  0  0
   14.3979    6.0729   18.7784 C   0  0  0  0  0  0  0  0  0  0  0  0
    8.6811    9.5354   16.9998 C   0  0  0  0  0  0  0  0  0  0  0  0
    9.2512    4.2713   13.7653 O   0  0  0  0  0  0  0  0  0  0  0  0
    9.6495    8.6317   16.8332 N   0  0  0  0  0  0  0  0  0  0  0  0
    6.2934    8.6988   23.1988 O   0  0  0  0  0  0  0  0  0  0  0  0
    7.9806    8.6543   20.5437 C   0  0  0  0  0  0  0  0  0  0  0  0
   13.7270    5.7144   19.8610 O   0  0  0  0  0  0  0  0  0  0  0  0
    8.3351    5.5235   15.4478 C   0  0  0  0  0  0  0  0  0  0  0  0
    8.7700    7.8434   21.3915 C   0  0  0  0  0  0  0  0  0  0  0  0
   11.7856    6.8851   19.2401 C   0  0  0  0  0  0  0  0  0  0  0  0
   10.5281    7.4276   19.5649 C   0  0  0  0  0  0  0  0  0  0  0  0
   10.0256    7.2907   20.8484 C   0  0  0  0  0  0  0  0  0  0  0  0
    9.3113    5.3049   14.4911 C   0  0  0  0  0  0  0  0  0  0  0  0
    9.4607    7.5646   16.0139 C   0  0  0  0  0  0  0  0  0  0  0  0
   10.4192    7.3157   15.0955 C   0  0  0  0  0  0  0  0  0  0  0  0
   10.2489    6.4227   23.0218 N   0  0  0  0  0  0  0  0  0  0  0  0
    7.2472    8.0746   23.5050 C   0  0  0  0  0  0  0  0  0  0  0  0
    9.2051    6.9101   23.4604 C   0  0  0  0  0  0  0  0  0  0  0  0
   11.9646    6.0299   21.4251 C   0  0  0  0  0  0  0  0  0  0  0  0
  1  5  1  0
  1 13  1  0
  2 20  2  0
  2 28  1  0
  2 29  1  0
  3 19  4  0
  3 25  4  0
  4 23  4  0
  4 27  1  0
  4 30  4  0
  5 17  1  0
  6  8  1  0
  6 29  1  0
  7 24  4  0
  7 26  4  0
  8 28  1  0
  9 13  2  0
 10 18  1  0
 10 21  4  0
 10 30  4  0
 11 17  2  0
 12 18  1  0
 13 15  1  0
 14 24  1  0
 15 25  1  0
 16 28  2  0
 17 20  1  0
 19 24  4  0
 20 23  1  0
 21 22  4  0
 22 23  4  0
 25 26  4  0
 27 29  2  0
M  END
$$$$

 Created by Python create_sdf_string function

 30 33  0  0  0  0  0  0  0  0999 V2000
    8.3036    9.8571   18.4133 C   0  0  0  0  0  0  0  0  0  0  0  0
    8.3694    7.6612   22.6703 C   0  0  0  0  0  0  0  0  0  0  0  0
    8.4143    6.6863   16.2273 C   0  0  0  0  0  0  0  0  0  0  0  0
   10.7581    6.5674   21.7636 C   0  0  0  0  0  0  0  0  0  0  0  0
    8.4452    8.7960   19.2958 O   0  0  0  0  0  0  0  0  0  0  0  0
    8.7122    6.7842   24.8569 C   0  0  0  0  0  0  0  0  0  0  0  0
   10.3400    6.1726   14.3081 C   0  0  0  0  0  0  0  0  0  0  0  0
    7.4297    7.5873   24.8962 C   0  0  0  0  0  0  0  0  0  0  0  0
    8.1566   10.0536   16.0516 O   0  0  0  0  0  0  0  0  0  0  0  0
   12.4989    6.2074   20.1776 C   0  0  0  0  0  0  0  0  0  0  0  0
    6.9192    9.1053   20.9073 O   0  0  0  0  0  0  0  0  0  0  0  0
   14.3979    6.0729   18.7784 C   0  0  0  0  0  0  0  0  0  0  0  0
    8.6811    9.5354   16.9998 C   0  0  0  0  0  0  0  0  0  0  0  0
    9.2512    4.2713   13.7653 O   0  0  0  0  0  0  0  0  0  0  0  0
    9.6495    8.6317   16.8332 N   0  0  0  0  0  0  0  0  0  0  0  0
    6.2934    8.6988   23.1988 O   0  0  0  0  0  0  0  0  0  0  0  0
    7.9806    8.6543   20.5437 C   0  0  0  0  0  0  0  0  0  0  0  0
   13.7270    5.7144   19.8610 O   0  0  0  0  0  0  0  0  0  0  0  0
    8.3351    5.5235   15.4478 C   0  0  0  0  0  0  0  0  0  0  0  0
    8.7700    7.8434   21.3915 C   0  0  0  0  0  0  0  0  0  0  0  0
   11.7856    6.8851   19.2401 C   0  0  0  0  0  0  0  0  0  0  0  0
   10.5281    7.4276   19.5649 C   0  0  0  0  0  0  0  0  0  0  0  0
   10.0256    7.2907   20.8484 C   0  0  0  0  0  0  0  0  0  0  0  0
    9.3113    5.3049   14.4911 C   0  0  0  0  0  0  0  0  0  0  0  0
    9.4607    7.5646   16.0139 C   0  0  0  0  0  0  0  0  0  0  0  0
   10.4192    7.3157   15.0955 C   0  0  0  0  0  0  0  0  0  0  0  0
   10.2489    6.4227   23.0218 N   0  0  0  0  0  0  0  0  0  0  0  0
    7.2472    8.0746   23.5050 C   0  0  0  0  0  0  0  0  0  0  0  0
    9.2051    6.9101   23.4604 C   0  0  0  0  0  0  0  0  0  0  0  0
   11.9646    6.0299   21.4251 C   0  0  0  0  0  0  0  0  0  0  0  0
  1  5  1  0
  1 13  1  0
  2 20  2  0
  2 28  1  0
  2 29  1  0
  3 19  4  0
  3 25  4  0
  4 23  4  0
  4 27  1  0
  4 30  4  0
  5 17  1  0
  6  8  1  0
  6 29  1  0
  7 24  4  0
  7 26  4  0
  8 28  1  0
  9 13  2  0
 10 18  1  0
 10 21  4  0
 10 30  4  0
 11 17  2  0
 12 18  1  0
 13 15  1  0
 14 24  1  0
 15 25  1  0
 16 28  2  0
 17 20  1  0
 19 24  4  0
 20 23  1  0
 21 22  4  0
 22 23  4  0
 25 26  4  0
 27 29  2  0
M  END
$$$$

 Created by Python create_sdf_string function

 30 33  0  0  0  0  0  0  0  0999 V2000
    8.3036    9.8571   18.4133 C   0  0  0  0  0  0  0  0  0  0  0  0
    8.3694    7.6612   22.6703 C   0  0  0  0  0  0  0  0  0  0  0  0
    8.4143    6.6863   16.2273 C   0  0  0  0  0  0  0  0  0  0  0  0
   10.7581    6.5674   21.7636 C   0  0  0  0  0  0  0  0  0  0  0  0
    8.4452    8.7960   19.2958 O   0  0  0  0  0  0  0  0  0  0  0  0
    8.7122    6.7842   24.8569 C   0  0  0  0  0  0  0  0  0  0  0  0
   10.3400    6.1726   14.3081 C   0  0  0  0  0  0  0  0  0  0  0  0
    7.4297    7.5873   24.8962 C   0  0  0  0  0  0  0  0  0  0  0  0
    8.1566   10.0536   16.0516 O   0  0  0  0  0  0  0  0  0  0  0  0
   12.4989    6.2074   20.1776 C   0  0  0  0  0  0  0  0  0  0  0  0
    6.9192    9.1053   20.9073 O   0  0  0  0  0  0  0  0  0  0  0  0
   14.3979    6.0729   18.7784 C   0  0  0  0  0  0  0  0  0  0  0  0
    8.6811    9.5354   16.9998 C   0  0  0  0  0  0  0  0  0  0  0  0
    9.2512    4.2713   13.7653 O   0  0  0  0  0  0  0  0  0  0  0  0
    9.6495    8.6317   16.8332 N   0  0  0  0  0  0  0  0  0  0  0  0
    6.2934    8.6988   23.1988 O   0  0  0  0  0  0  0  0  0  0  0  0
    7.9806    8.6543   20.5437 C   0  0  0  0  0  0  0  0  0  0  0  0
   13.7270    5.7144   19.8610 O   0  0  0  0  0  0  0  0  0  0  0  0
    8.3351    5.5235   15.4478 C   0  0  0  0  0  0  0  0  0  0  0  0
    8.7700    7.8434   21.3915 C   0  0  0  0  0  0  0  0  0  0  0  0
   11.7856    6.8851   19.2401 C   0  0  0  0  0  0  0  0  0  0  0  0
   10.5281    7.4276   19.5649 C   0  0  0  0  0  0  0  0  0  0  0  0
   10.0256    7.2907   20.8484 C   0  0  0  0  0  0  0  0  0  0  0  0
    9.3113    5.3049   14.4911 C   0  0  0  0  0  0  0  0  0  0  0  0
    9.4607    7.5646   16.0139 C   0  0  0  0  0  0  0  0  0  0  0  0
   10.4192    7.3157   15.0955 C   0  0  0  0  0  0  0  0  0  0  0  0
   10.2489    6.4227   23.0218 N   0  0  0  0  0  0  0  0  0  0  0  0
    7.2472    8.0746   23.5050 C   0  0  0  0  0  0  0  0  0  0  0  0
    9.2051    6.9101   23.4604 C   0  0  0  0  0  0  0  0  0  0  0  0
   11.9646    6.0299   21.4251 C   0  0  0  0  0  0  0  0  0  0  0  0
  1  5  1  0
  1 13  1  0
  2 20  2  0
  2 28  1  0
  2 29  1  0
  3 19  4  0
  3 25  4  0
  4 23  4  0
  4 27  1  0
  4 30  4  0
  5 17  1  0
  6  8  1  0
  6 29  1  0
  7 24  4  0
  7 26  4  0
  8 28  1  0
  9 13  2  0
 10 18  1  0
 10 21  4  0
 10 30  4  0
 11 17  2  0
 12 18  1  0
 13 15  1  0
 14 24  1  0
 15 25  1  0
 16 28  2  0
 17 20  1  0
 19 24  4  0
 20 23  1  0
 21 22  4  0
 22 23  4  0
 25 26  4  0
 27 29  2  0
M  END
$$$$

 Created by Python create_sdf_string function

 30 33  0  0  0  0  0  0  0  0999 V2000
    8.3036    9.8571   18.4133 C   0  0  0  0  0  0  0  0  0  0  0  0
    8.3694    7.6612   22.6703 C   0  0  0  0  0  0  0  0  0  0  0  0
    8.4143    6.6863   16.2273 C   0  0  0  0  0  0  0  0  0  0  0  0
   10.7581    6.5674   21.7636 C   0  0  0  0  0  0  0  0  0  0  0  0
    8.4452    8.7960   19.2958 O   0  0  0  0  0  0  0  0  0  0  0  0
    8.7122    6.7842   24.8569 C   0  0  0  0  0  0  0  0  0  0  0  0
   10.3400    6.1726   14.3081 C   0  0  0  0  0  0  0  0  0  0  0  0
    7.4297    7.5873   24.8962 C   0  0  0  0  0  0  0  0  0  0  0  0
    8.1566   10.0536   16.0516 O   0  0  0  0  0  0  0  0  0  0  0  0
   12.4989    6.2074   20.1776 C   0  0  0  0  0  0  0  0  0  0  0  0
    6.9192    9.1053   20.9073 O   0  0  0  0  0  0  0  0  0  0  0  0
   14.3979    6.0729   18.7784 C   0  0  0  0  0  0  0  0  0  0  0  0
    8.6811    9.5354   16.9998 C   0  0  0  0  0  0  0  0  0  0  0  0
    9.2512    4.2713   13.7653 O   0  0  0  0  0  0  0  0  0  0  0  0
    9.6495    8.6317   16.8332 N   0  0  0  0  0  0  0  0  0  0  0  0
    6.2934    8.6988   23.1988 O   0  0  0  0  0  0  0  0  0  0  0  0
    7.9806    8.6543   20.5437 C   0  0  0  0  0  0  0  0  0  0  0  0
   13.7270    5.7144   19.8610 O   0  0  0  0  0  0  0  0  0  0  0  0
    8.3351    5.5235   15.4478 C   0  0  0  0  0  0  0  0  0  0  0  0
    8.7700    7.8434   21.3915 C   0  0  0  0  0  0  0  0  0  0  0  0
   11.7856    6.8851   19.2401 C   0  0  0  0  0  0  0  0  0  0  0  0
   10.5281    7.4276   19.5649 C   0  0  0  0  0  0  0  0  0  0  0  0
   10.0256    7.2907   20.8484 C   0  0  0  0  0  0  0  0  0  0  0  0
    9.3113    5.3049   14.4911 C   0  0  0  0  0  0  0  0  0  0  0  0
    9.4607    7.5646   16.0139 C   0  0  0  0  0  0  0  0  0  0  0  0
   10.4192    7.3157   15.0955 C   0  0  0  0  0  0  0  0  0  0  0  0
   10.2489    6.4227   23.0218 N   0  0  0  0  0  0  0  0  0  0  0  0
    7.2472    8.0746   23.5050 C   0  0  0  0  0  0  0  0  0  0  0  0
    9.2051    6.9101   23.4604 C   0  0  0  0  0  0  0  0  0  0  0  0
   11.9646    6.0299   21.4251 C   0  0  0  0  0  0  0  0  0  0  0  0
  1  5  1  0
  1 13  1  0
  2 20  2  0
  2 28  1  0
  2 29  1  0
  3 19  4  0
  3 25  4  0
  4 23  4  0
  4 27  1  0
  4 30  4  0
  5 17  1  0
  6  8  1  0
  6 29  1  0
  7 24  4  0
  7 26  4  0
  8 28  1  0
  9 13  2  0
 10 18  1  0
 10 21  4  0
 10 30  4  0
 11 17  2  0
 12 18  1  0
 13 15  1  0
 14 24  1  0
 15 25  1  0
 16 28  2  0
 17 20  1  0
 19 24  4  0
 20 23  1  0
 21 22  4  0
 22 23  4  0
 25 26  4  0
 27 29  2  0
M  END
$$$$

 Created by Python create_sdf_string function

 30 33  0  0  0  0  0  0  0  0999 V2000
    8.3036    9.8571   18.4133 C   0  0  0  0  0  0  0  0  0  0  0  0
    8.3694    7.6612   22.6703 C   0  0  0  0  0  0  0  0  0  0  0  0
    8.4143    6.6863   16.2273 C   0  0  0  0  0  0  0  0  0  0  0  0
   10.7581    6.5674   21.7636 C   0  0  0  0  0  0  0  0  0  0  0  0
    8.4452    8.7960   19.2958 O   0  0  0  0  0  0  0  0  0  0  0  0
    8.7122    6.7842   24.8569 C   0  0  0  0  0  0  0  0  0  0  0  0
   10.3400    6.1726   14.3081 C   0  0  0  0  0  0  0  0  0  0  0  0
    7.4297    7.5873   24.8962 C   0  0  0  0  0  0  0  0  0  0  0  0
    8.1566   10.0536   16.0516 O   0  0  0  0  0  0  0  0  0  0  0  0
   12.4989    6.2074   20.1776 C   0  0  0  0  0  0  0  0  0  0  0  0
    6.9192    9.1053   20.9073 O   0  0  0  0  0  0  0  0  0  0  0  0
   14.3979    6.0729   18.7784 C   0  0  0  0  0  0  0  0  0  0  0  0
    8.6811    9.5354   16.9998 C   0  0  0  0  0  0  0  0  0  0  0  0
    9.2512    4.2713   13.7653 O   0  0  0  0  0  0  0  0  0  0  0  0
    9.6495    8.6317   16.8332 N   0  0  0  0  0  0  0  0  0  0  0  0
    6.2934    8.6988   23.1988 O   0  0  0  0  0  0  0  0  0  0  0  0
    7.9806    8.6543   20.5437 C   0  0  0  0  0  0  0  0  0  0  0  0
   13.7270    5.7144   19.8610 O   0  0  0  0  0  0  0  0  0  0  0  0
    8.3351    5.5235   15.4478 C   0  0  0  0  0  0  0  0  0  0  0  0
    8.7700    7.8434   21.3915 C   0  0  0  0  0  0  0  0  0  0  0  0
   11.7856    6.8851   19.2401 C   0  0  0  0  0  0  0  0  0  0  0  0
   10.5281    7.4276   19.5649 C   0  0  0  0  0  0  0  0  0  0  0  0
   10.0256    7.2907   20.8484 C   0  0  0  0  0  0  0  0  0  0  0  0
    9.3113    5.3049   14.4911 C   0  0  0  0  0  0  0  0  0  0  0  0
    9.4607    7.5646   16.0139 C   0  0  0  0  0  0  0  0  0  0  0  0
   10.4192    7.3157   15.0955 C   0  0  0  0  0  0  0  0  0  0  0  0
   10.2489    6.4227   23.0218 N   0  0  0  0  0  0  0  0  0  0  0  0
    7.2472    8.0746   23.5050 C   0  0  0  0  0  0  0  0  0  0  0  0
    9.2051    6.9101   23.4604 C   0  0  0  0  0  0  0  0  0  0  0  0
   11.9646    6.0299   21.4251 C   0  0  0  0  0  0  0  0  0  0  0  0
  1  5  1  0
  1 13  1  0
  2 20  2  0
  2 28  1  0
  2 29  1  0
  3 19  4  0
  3 25  4  0
  4 23  4  0
  4 27  1  0
  4 30  4  0
  5 17  1  0
  6  8  1  0
  6 29  1  0
  7 24  4  0
  7 26  4  0
  8 28  1  0
  9 13  2  0
 10 18  1  0
 10 21  4  0
 10 30  4  0
 11 17  2  0
 12 18  1  0
 13 15  1  0
 14 24  1  0
 15 25  1  0
 16 28  2  0
 17 20  1  0
 19 24  4  0
 20 23  1  0
 21 22  4  0
 22 23  4  0
 25 26  4  0
 27 29  2  0
M  END
$$$$

 Created by Python create_sdf_string function

 30 33  0  0  0  0  0  0  0  0999 V2000
    8.3036    9.8571   18.4133 C   0  0  0  0  0  0  0  0  0  0  0  0
    8.3694    7.6612   22.6703 C   0  0  0  0  0  0  0  0  0  0  0  0
    8.4143    6.6863   16.2273 C   0  0  0  0  0  0  0  0  0  0  0  0
   10.7581    6.5674   21.7636 C   0  0  0  0  0  0  0  0  0  0  0  0
    8.4452    8.7960   19.2958 O   0  0  0  0  0  0  0  0  0  0  0  0
    8.7122    6.7842   24.8569 C   0  0  0  0  0  0  0  0  0  0  0  0
   10.3400    6.1726   14.3081 C   0  0  0  0  0  0  0  0  0  0  0  0
    7.4297    7.5873   24.8962 C   0  0  0  0  0  0  0  0  0  0  0  0
    8.1566   10.0536   16.0516 O   0  0  0  0  0  0  0  0  0  0  0  0
   12.4989    6.2074   20.1776 C   0  0  0  0  0  0  0  0  0  0  0  0
    6.9192    9.1053   20.9073 O   0  0  0  0  0  0  0  0  0  0  0  0
   14.3979    6.0729   18.7784 C   0  0  0  0  0  0  0  0  0  0  0  0
    8.6811    9.5354   16.9998 C   0  0  0  0  0  0  0  0  0  0  0  0
    9.2512    4.2713   13.7653 O   0  0  0  0  0  0  0  0  0  0  0  0
    9.6495    8.6317   16.8332 N   0  0  0  0  0  0  0  0  0  0  0  0
    6.2934    8.6988   23.1988 O   0  0  0  0  0  0  0  0  0  0  0  0
    7.9806    8.6543   20.5437 C   0  0  0  0  0  0  0  0  0  0  0  0
   13.7270    5.7144   19.8610 O   0  0  0  0  0  0  0  0  0  0  0  0
    8.3351    5.5235   15.4478 C   0  0  0  0  0  0  0  0  0  0  0  0
    8.7700    7.8434   21.3915 C   0  0  0  0  0  0  0  0  0  0  0  0
   11.7856    6.8851   19.2401 C   0  0  0  0  0  0  0  0  0  0  0  0
   10.5281    7.4276   19.5649 C   0  0  0  0  0  0  0  0  0  0  0  0
   10.0256    7.2907   20.8484 C   0  0  0  0  0  0  0  0  0  0  0  0
    9.3113    5.3049   14.4911 C   0  0  0  0  0  0  0  0  0  0  0  0
    9.4607    7.5646   16.0139 C   0  0  0  0  0  0  0  0  0  0  0  0
   10.4192    7.3157   15.0955 C   0  0  0  0  0  0  0  0  0  0  0  0
   10.2489    6.4227   23.0218 N   0  0  0  0  0  0  0  0  0  0  0  0
    7.2472    8.0746   23.5050 C   0  0  0  0  0  0  0  0  0  0  0  0
    9.2051    6.9101   23.4604 C   0  0  0  0  0  0  0  0  0  0  0  0
   11.9646    6.0299   21.4251 C   0  0  0  0  0  0  0  0  0  0  0  0
  1  5  1  0
  1 13  1  0
  2 20  2  0
  2 28  1  0
  2 29  1  0
  3 19  4  0
  3 25  4  0
  4 23  4  0
  4 27  1  0
  4 30  4  0
  5 17  1  0
  6  8  1  0
  6 29  1  0
  7 24  4  0
  7 26  4  0
  8 28  1  0
  9 13  2  0
 10 18  1  0
 10 21  4  0
 10 30  4  0
 11 17  2  0
 12 18  1  0
 13 15  1  0
 14 24  1  0
 15 25  1  0
 16 28  2  0
 17 20  1  0
 19 24  4  0
 20 23  1  0
 21 22  4  0
 22 23  4  0
 25 26  4  0
 27 29  2  0
M  END
$$$$

 Created by Python create_sdf_string function

 30 33  0  0  0  0  0  0  0  0999 V2000
    8.3036    9.8571   18.4133 C   0  0  0  0  0  0  0  0  0  0  0  0
    8.3694    7.6612   22.6703 C   0  0  0  0  0  0  0  0  0  0  0  0
    8.4143    6.6863   16.2273 C   0  0  0  0  0  0  0  0  0  0  0  0
   10.7581    6.5674   21.7636 C   0  0  0  0  0  0  0  0  0  0  0  0
    8.4452    8.7960   19.2958 O   0  0  0  0  0  0  0  0  0  0  0  0
    8.7122    6.7842   24.8569 C   0  0  0  0  0  0  0  0  0  0  0  0
   10.3400    6.1726   14.3081 C   0  0  0  0  0  0  0  0  0  0  0  0
    7.4297    7.5873   24.8962 C   0  0  0  0  0  0  0  0  0  0  0  0
    8.1566   10.0536   16.0516 O   0  0  0  0  0  0  0  0  0  0  0  0
   12.4989    6.2074   20.1776 C   0  0  0  0  0  0  0  0  0  0  0  0
    6.9192    9.1053   20.9073 O   0  0  0  0  0  0  0  0  0  0  0  0
   14.3979    6.0729   18.7784 C   0  0  0  0  0  0  0  0  0  0  0  0
    8.6811    9.5354   16.9998 C   0  0  0  0  0  0  0  0  0  0  0  0
    9.2512    4.2713   13.7653 O   0  0  0  0  0  0  0  0  0  0  0  0
    9.6495    8.6317   16.8332 N   0  0  0  0  0  0  0  0  0  0  0  0
    6.2934    8.6988   23.1988 O   0  0  0  0  0  0  0  0  0  0  0  0
    7.9806    8.6543   20.5437 C   0  0  0  0  0  0  0  0  0  0  0  0
   13.7270    5.7144   19.8610 O   0  0  0  0  0  0  0  0  0  0  0  0
    8.3351    5.5235   15.4478 C   0  0  0  0  0  0  0  0  0  0  0  0
    8.7700    7.8434   21.3915 C   0  0  0  0  0  0  0  0  0  0  0  0
   11.7856    6.8851   19.2401 C   0  0  0  0  0  0  0  0  0  0  0  0
   10.5281    7.4276   19.5649 C   0  0  0  0  0  0  0  0  0  0  0  0
   10.0256    7.2907   20.8484 C   0  0  0  0  0  0  0  0  0  0  0  0
    9.3113    5.3049   14.4911 C   0  0  0  0  0  0  0  0  0  0  0  0
    9.4607    7.5646   16.0139 C   0  0  0  0  0  0  0  0  0  0  0  0
   10.4192    7.3157   15.0955 C   0  0  0  0  0  0  0  0  0  0  0  0
   10.2489    6.4227   23.0218 N   0  0  0  0  0  0  0  0  0  0  0  0
    7.2472    8.0746   23.5050 C   0  0  0  0  0  0  0  0  0  0  0  0
    9.2051    6.9101   23.4604 C   0  0  0  0  0  0  0  0  0  0  0  0
   11.9646    6.0299   21.4251 C   0  0  0  0  0  0  0  0  0  0  0  0
  1  5  1  0
  1 13  1  0
  2 20  2  0
  2 28  1  0
  2 29  1  0
  3 19  4  0
  3 25  4  0
  4 23  4  0
  4 27  1  0
  4 30  4  0
  5 17  1  0
  6  8  1  0
  6 29  1  0
  7 24  4  0
  7 26  4  0
  8 28  1  0
  9 13  2  0
 10 18  1  0
 10 21  4  0
 10 30  4  0
 11 17  2  0
 12 18  1  0
 13 15  1  0
 14 24  1  0
 15 25  1  0
 16 28  2  0
 17 20  1  0
 19 24  4  0
 20 23  1  0
 21 22  4  0
 22 23  4  0
 25 26  4  0
 27 29  2  0
M  END
$$$$

 Created by Python create_sdf_string function

 30 33  0  0  0  0  0  0  0  0999 V2000
    8.3036    9.8571   18.4133 C   0  0  0  0  0  0  0  0  0  0  0  0
    8.3694    7.6612   22.6703 C   0  0  0  0  0  0  0  0  0  0  0  0
    8.4143    6.6863   16.2273 C   0  0  0  0  0  0  0  0  0  0  0  0
   10.7581    6.5674   21.7636 C   0  0  0  0  0  0  0  0  0  0  0  0
    8.4452    8.7960   19.2958 O   0  0  0  0  0  0  0  0  0  0  0  0
    8.7122    6.7842   24.8569 C   0  0  0  0  0  0  0  0  0  0  0  0
   10.3400    6.1726   14.3081 C   0  0  0  0  0  0  0  0  0  0  0  0
    7.4297    7.5873   24.8962 C   0  0  0  0  0  0  0  0  0  0  0  0
    8.1566   10.0536   16.0516 O   0  0  0  0  0  0  0  0  0  0  0  0
   12.4989    6.2074   20.1776 C   0  0  0  0  0  0  0  0  0  0  0  0
    6.9192    9.1053   20.9073 O   0  0  0  0  0  0  0  0  0  0  0  0
   14.3979    6.0729   18.7784 C   0  0  0  0  0  0  0  0  0  0  0  0
    8.6811    9.5354   16.9998 C   0  0  0  0  0  0  0  0  0  0  0  0
    9.2512    4.2713   13.7653 O   0  0  0  0  0  0  0  0  0  0  0  0
    9.6495    8.6317   16.8332 N   0  0  0  0  0  0  0  0  0  0  0  0
    6.2934    8.6988   23.1988 O   0  0  0  0  0  0  0  0  0  0  0  0
    7.9806    8.6543   20.5437 C   0  0  0  0  0  0  0  0  0  0  0  0
   13.7270    5.7144   19.8610 O   0  0  0  0  0  0  0  0  0  0  0  0
    8.3351    5.5235   15.4478 C   0  0  0  0  0  0  0  0  0  0  0  0
    8.7700    7.8434   21.3915 C   0  0  0  0  0  0  0  0  0  0  0  0
   11.7856    6.8851   19.2401 C   0  0  0  0  0  0  0  0  0  0  0  0
   10.5281    7.4276   19.5649 C   0  0  0  0  0  0  0  0  0  0  0  0
   10.0256    7.2907   20.8484 C   0  0  0  0  0  0  0  0  0  0  0  0
    9.3113    5.3049   14.4911 C   0  0  0  0  0  0  0  0  0  0  0  0
    9.4607    7.5646   16.0139 C   0  0  0  0  0  0  0  0  0  0  0  0
   10.4192    7.3157   15.0955 C   0  0  0  0  0  0  0  0  0  0  0  0
   10.2489    6.4227   23.0218 N   0  0  0  0  0  0  0  0  0  0  0  0
    7.2472    8.0746   23.5050 C   0  0  0  0  0  0  0  0  0  0  0  0
    9.2051    6.9101   23.4604 C   0  0  0  0  0  0  0  0  0  0  0  0
   11.9646    6.0299   21.4251 C   0  0  0  0  0  0  0  0  0  0  0  0
  1  5  1  0
  1 13  1  0
  2 20  2  0
  2 28  1  0
  2 29  1  0
  3 19  4  0
  3 25  4  0
  4 23  4  0
  4 27  1  0
  4 30  4  0
  5 17  1  0
  6  8  1  0
  6 29  1  0
  7 24  4  0
  7 26  4  0
  8 28  1  0
  9 13  2  0
 10 18  1  0
 10 21  4  0
 10 30  4  0
 11 17  2  0
 12 18  1  0
 13 15  1  0
 14 24  1  0
 15 25  1  0
 16 28  2  0
 17 20  1  0
 19 24  4  0
 20 23  1  0
 21 22  4  0
 22 23  4  0
 25 26  4  0
 27 29  2  0
M  END
$$$$

 Created by Python create_sdf_string function

 30 33  0  0  0  0  0  0  0  0999 V2000
    8.3036    9.8571   18.4133 C   0  0  0  0  0  0  0  0  0  0  0  0
    8.3694    7.6612   22.6703 C   0  0  0  0  0  0  0  0  0  0  0  0
    8.4143    6.6863   16.2273 C   0  0  0  0  0  0  0  0  0  0  0  0
   10.7581    6.5674   21.7636 C   0  0  0  0  0  0  0  0  0  0  0  0
    8.4452    8.7960   19.2958 O   0  0  0  0  0  0  0  0  0  0  0  0
    8.7122    6.7842   24.8569 C   0  0  0  0  0  0  0  0  0  0  0  0
   10.3400    6.1726   14.3081 C   0  0  0  0  0  0  0  0  0  0  0  0
    7.4297    7.5873   24.8962 C   0  0  0  0  0  0  0  0  0  0  0  0
    8.1566   10.0536   16.0516 O   0  0  0  0  0  0  0  0  0  0  0  0
   12.4989    6.2074   20.1776 C   0  0  0  0  0  0  0  0  0  0  0  0
    6.9192    9.1053   20.9073 O   0  0  0  0  0  0  0  0  0  0  0  0
   14.3979    6.0729   18.7784 C   0  0  0  0  0  0  0  0  0  0  0  0
    8.6811    9.5354   16.9998 C   0  0  0  0  0  0  0  0  0  0  0  0
    9.2512    4.2713   13.7653 O   0  0  0  0  0  0  0  0  0  0  0  0
    9.6495    8.6317   16.8332 N   0  0  0  0  0  0  0  0  0  0  0  0
    6.2934    8.6988   23.1988 O   0  0  0  0  0  0  0  0  0  0  0  0
    7.9806    8.6543   20.5437 C   0  0  0  0  0  0  0  0  0  0  0  0
   13.7270    5.7144   19.8610 O   0  0  0  0  0  0  0  0  0  0  0  0
    8.3351    5.5235   15.4478 C   0  0  0  0  0  0  0  0  0  0  0  0
    8.7700    7.8434   21.3915 C   0  0  0  0  0  0  0  0  0  0  0  0
   11.7856    6.8851   19.2401 C   0  0  0  0  0  0  0  0  0  0  0  0
   10.5281    7.4276   19.5649 C   0  0  0  0  0  0  0  0  0  0  0  0
   10.0256    7.2907   20.8484 C   0  0  0  0  0  0  0  0  0  0  0  0
    9.3113    5.3049   14.4911 C   0  0  0  0  0  0  0  0  0  0  0  0
    9.4607    7.5646   16.0139 C   0  0  0  0  0  0  0  0  0  0  0  0
   10.4192    7.3157   15.0955 C   0  0  0  0  0  0  0  0  0  0  0  0
   10.2489    6.4227   23.0218 N   0  0  0  0  0  0  0  0  0  0  0  0
    7.2472    8.0746   23.5050 C   0  0  0  0  0  0  0  0  0  0  0  0
    9.2051    6.9101   23.4604 C   0  0  0  0  0  0  0  0  0  0  0  0
   11.9646    6.0299   21.4251 C   0  0  0  0  0  0  0  0  0  0  0  0
  1  5  1  0
  1 13  1  0
  2 20  2  0
  2 28  1  0
  2 29  1  0
  3 19  4  0
  3 25  4  0
  4 23  4  0
  4 27  1  0
  4 30  4  0
  5 17  1  0
  6  8  1  0
  6 29  1  0
  7 24  4  0
  7 26  4  0
  8 28  1  0
  9 13  2  0
 10 18  1  0
 10 21  4  0
 10 30  4  0
 11 17  2  0
 12 18  1  0
 13 15  1  0
 14 24  1  0
 15 25  1  0
 16 28  2  0
 17 20  1  0
 19 24  4  0
 20 23  1  0
 21 22  4  0
 22 23  4  0
 25 26  4  0
 27 29  2  0
M  END
$$$$

 Created by Python create_sdf_string function

 30 33  0  0  0  0  0  0  0  0999 V2000
    8.3036    9.8571   18.4133 C   0  0  0  0  0  0  0  0  0  0  0  0
    8.3694    7.6612   22.6703 C   0  0  0  0  0  0  0  0  0  0  0  0
    8.4143    6.6863   16.2273 C   0  0  0  0  0  0  0  0  0  0  0  0
   10.7581    6.5674   21.7636 C   0  0  0  0  0  0  0  0  0  0  0  0
    8.4452    8.7960   19.2958 O   0  0  0  0  0  0  0  0  0  0  0  0
    8.7122    6.7842   24.8569 C   0  0  0  0  0  0  0  0  0  0  0  0
   10.3400    6.1726   14.3081 C   0  0  0  0  0  0  0  0  0  0  0  0
    7.4297    7.5873   24.8962 C   0  0  0  0  0  0  0  0  0  0  0  0
    8.1566   10.0536   16.0516 O   0  0  0  0  0  0  0  0  0  0  0  0
   12.4989    6.2074   20.1776 C   0  0  0  0  0  0  0  0  0  0  0  0
    6.9192    9.1053   20.9073 O   0  0  0  0  0  0  0  0  0  0  0  0
   14.3979    6.0729   18.7784 C   0  0  0  0  0  0  0  0  0  0  0  0
    8.6811    9.5354   16.9998 C   0  0  0  0  0  0  0  0  0  0  0  0
    9.2512    4.2713   13.7653 O   0  0  0  0  0  0  0  0  0  0  0  0
    9.6495    8.6317   16.8332 N   0  0  0  0  0  0  0  0  0  0  0  0
    6.2934    8.6988   23.1988 O   0  0  0  0  0  0  0  0  0  0  0  0
    7.9806    8.6543   20.5437 C   0  0  0  0  0  0  0  0  0  0  0  0
   13.7270    5.7144   19.8610 O   0  0  0  0  0  0  0  0  0  0  0  0
    8.3351    5.5235   15.4478 C   0  0  0  0  0  0  0  0  0  0  0  0
    8.7700    7.8434   21.3915 C   0  0  0  0  0  0  0  0  0  0  0  0
   11.7856    6.8851   19.2401 C   0  0  0  0  0  0  0  0  0  0  0  0
   10.5281    7.4276   19.5649 C   0  0  0  0  0  0  0  0  0  0  0  0
   10.0256    7.2907   20.8484 C   0  0  0  0  0  0  0  0  0  0  0  0
    9.3113    5.3049   14.4911 C   0  0  0  0  0  0  0  0  0  0  0  0
    9.4607    7.5646   16.0139 C   0  0  0  0  0  0  0  0  0  0  0  0
   10.4192    7.3157   15.0955 C   0  0  0  0  0  0  0  0  0  0  0  0
   10.2489    6.4227   23.0218 N   0  0  0  0  0  0  0  0  0  0  0  0
    7.2472    8.0746   23.5050 C   0  0  0  0  0  0  0  0  0  0  0  0
    9.2051    6.9101   23.4604 C   0  0  0  0  0  0  0  0  0  0  0  0
   11.9646    6.0299   21.4251 C   0  0  0  0  0  0  0  0  0  0  0  0
  1  5  1  0
  1 13  1  0
  2 20  2  0
  2 28  1  0
  2 29  1  0
  3 19  4  0
  3 25  4  0
  4 23  4  0
  4 27  1  0
  4 30  4  0
  5 17  1  0
  6  8  1  0
  6 29  1  0
  7 24  4  0
  7 26  4  0
  8 28  1  0
  9 13  2  0
 10 18  1  0
 10 21  4  0
 10 30  4  0
 11 17  2  0
 12 18  1  0
 13 15  1  0
 14 24  1  0
 15 25  1  0
 16 28  2  0
 17 20  1  0
 19 24  4  0
 20 23  1  0
 21 22  4  0
 22 23  4  0
 25 26  4  0
 27 29  2  0
M  END
$$$$

 Created by Python create_sdf_string function

 30 33  0  0  0  0  0  0  0  0999 V2000
    8.3036    9.8571   18.4133 C   0  0  0  0  0  0  0  0  0  0  0  0
    8.3694    7.6612   22.6703 C   0  0  0  0  0  0  0  0  0  0  0  0
    8.4143    6.6863   16.2273 C   0  0  0  0  0  0  0  0  0  0  0  0
   10.7581    6.5674   21.7636 C   0  0  0  0  0  0  0  0  0  0  0  0
    8.4452    8.7960   19.2958 O   0  0  0  0  0  0  0  0  0  0  0  0
    8.7122    6.7842   24.8569 C   0  0  0  0  0  0  0  0  0  0  0  0
   10.3400    6.1726   14.3081 C   0  0  0  0  0  0  0  0  0  0  0  0
    7.4297    7.5873   24.8962 C   0  0  0  0  0  0  0  0  0  0  0  0
    8.1566   10.0536   16.0516 O   0  0  0  0  0  0  0  0  0  0  0  0
   12.4989    6.2074   20.1776 C   0  0  0  0  0  0  0  0  0  0  0  0
    6.9192    9.1053   20.9073 O   0  0  0  0  0  0  0  0  0  0  0  0
   14.3979    6.0729   18.7784 C   0  0  0  0  0  0  0  0  0  0  0  0
    8.6811    9.5354   16.9998 C   0  0  0  0  0  0  0  0  0  0  0  0
    9.2512    4.2713   13.7653 O   0  0  0  0  0  0  0  0  0  0  0  0
    9.6495    8.6317   16.8332 N   0  0  0  0  0  0  0  0  0  0  0  0
    6.2934    8.6988   23.1988 O   0  0  0  0  0  0  0  0  0  0  0  0
    7.9806    8.6543   20.5437 C   0  0  0  0  0  0  0  0  0  0  0  0
   13.7270    5.7144   19.8610 O   0  0  0  0  0  0  0  0  0  0  0  0
    8.3351    5.5235   15.4478 C   0  0  0  0  0  0  0  0  0  0  0  0
    8.7700    7.8434   21.3915 C   0  0  0  0  0  0  0  0  0  0  0  0
   11.7856    6.8851   19.2401 C   0  0  0  0  0  0  0  0  0  0  0  0
   10.5281    7.4276   19.5649 C   0  0  0  0  0  0  0  0  0  0  0  0
   10.0256    7.2907   20.8484 C   0  0  0  0  0  0  0  0  0  0  0  0
    9.3113    5.3049   14.4911 C   0  0  0  0  0  0  0  0  0  0  0  0
    9.4607    7.5646   16.0139 C   0  0  0  0  0  0  0  0  0  0  0  0
   10.4192    7.3157   15.0955 C   0  0  0  0  0  0  0  0  0  0  0  0
   10.2489    6.4227   23.0218 N   0  0  0  0  0  0  0  0  0  0  0  0
    7.2472    8.0746   23.5050 C   0  0  0  0  0  0  0  0  0  0  0  0
    9.2051    6.9101   23.4604 C   0  0  0  0  0  0  0  0  0  0  0  0
   11.9646    6.0299   21.4251 C   0  0  0  0  0  0  0  0  0  0  0  0
  1  5  1  0
  1 13  1  0
  2 20  2  0
  2 28  1  0
  2 29  1  0
  3 19  4  0
  3 25  4  0
  4 23  4  0
  4 27  1  0
  4 30  4  0
  5 17  1  0
  6  8  1  0
  6 29  1  0
  7 24  4  0
  7 26  4  0
  8 28  1  0
  9 13  2  0
 10 18  1  0
 10 21  4  0
 10 30  4  0
 11 17  2  0
 12 18  1  0
 13 15  1  0
 14 24  1  0
 15 25  1  0
 16 28  2  0
 17 20  1  0
 19 24  4  0
 20 23  1  0
 21 22  4  0
 22 23  4  0
 25 26  4  0
 27 29  2  0
M  END
$$$$

 Created by Python create_sdf_string function

 30 33  0  0  0  0  0  0  0  0999 V2000
    8.3036    9.8571   18.4133 C   0  0  0  0  0  0  0  0  0  0  0  0
    8.3694    7.6612   22.6703 C   0  0  0  0  0  0  0  0  0  0  0  0
    8.4143    6.6863   16.2273 C   0  0  0  0  0  0  0  0  0  0  0  0
   10.7581    6.5674   21.7636 C   0  0  0  0  0  0  0  0  0  0  0  0
    8.4452    8.7960   19.2958 O   0  0  0  0  0  0  0  0  0  0  0  0
    8.7122    6.7842   24.8569 C   0  0  0  0  0  0  0  0  0  0  0  0
   10.3400    6.1726   14.3081 C   0  0  0  0  0  0  0  0  0  0  0  0
    7.4297    7.5873   24.8962 C   0  0  0  0  0  0  0  0  0  0  0  0
    8.1566   10.0536   16.0516 O   0  0  0  0  0  0  0  0  0  0  0  0
   12.4989    6.2074   20.1776 C   0  0  0  0  0  0  0  0  0  0  0  0
    6.9192    9.1053   20.9073 O   0  0  0  0  0  0  0  0  0  0  0  0
   14.3979    6.0729   18.7784 C   0  0  0  0  0  0  0  0  0  0  0  0
    8.6811    9.5354   16.9998 C   0  0  0  0  0  0  0  0  0  0  0  0
    9.2512    4.2713   13.7653 O   0  0  0  0  0  0  0  0  0  0  0  0
    9.6495    8.6317   16.8332 N   0  0  0  0  0  0  0  0  0  0  0  0
    6.2934    8.6988   23.1988 O   0  0  0  0  0  0  0  0  0  0  0  0
    7.9806    8.6543   20.5437 C   0  0  0  0  0  0  0  0  0  0  0  0
   13.7270    5.7144   19.8610 O   0  0  0  0  0  0  0  0  0  0  0  0
    8.3351    5.5235   15.4478 C   0  0  0  0  0  0  0  0  0  0  0  0
    8.7700    7.8434   21.3915 C   0  0  0  0  0  0  0  0  0  0  0  0
   11.7856    6.8851   19.2401 C   0  0  0  0  0  0  0  0  0  0  0  0
   10.5281    7.4276   19.5649 C   0  0  0  0  0  0  0  0  0  0  0  0
   10.0256    7.2907   20.8484 C   0  0  0  0  0  0  0  0  0  0  0  0
    9.3113    5.3049   14.4911 C   0  0  0  0  0  0  0  0  0  0  0  0
    9.4607    7.5646   16.0139 C   0  0  0  0  0  0  0  0  0  0  0  0
   10.4192    7.3157   15.0955 C   0  0  0  0  0  0  0  0  0  0  0  0
   10.2489    6.4227   23.0218 N   0  0  0  0  0  0  0  0  0  0  0  0
    7.2472    8.0746   23.5050 C   0  0  0  0  0  0  0  0  0  0  0  0
    9.2051    6.9101   23.4604 C   0  0  0  0  0  0  0  0  0  0  0  0
   11.9646    6.0299   21.4251 C   0  0  0  0  0  0  0  0  0  0  0  0
  1  5  1  0
  1 13  1  0
  2 20  2  0
  2 28  1  0
  2 29  1  0
  3 19  4  0
  3 25  4  0
  4 23  4  0
  4 27  1  0
  4 30  4  0
  5 17  1  0
  6  8  1  0
  6 29  1  0
  7 24  4  0
  7 26  4  0
  8 28  1  0
  9 13  2  0
 10 18  1  0
 10 21  4  0
 10 30  4  0
 11 17  2  0
 12 18  1  0
 13 15  1  0
 14 24  1  0
 15 25  1  0
 16 28  2  0
 17 20  1  0
 19 24  4  0
 20 23  1  0
 21 22  4  0
 22 23  4  0
 25 26  4  0
 27 29  2  0
M  END
$$$$

 Created by Python create_sdf_string function

 30 33  0  0  0  0  0  0  0  0999 V2000
    8.3036    9.8571   18.4133 C   0  0  0  0  0  0  0  0  0  0  0  0
    8.3694    7.6612   22.6703 C   0  0  0  0  0  0  0  0  0  0  0  0
    8.4143    6.6863   16.2273 C   0  0  0  0  0  0  0  0  0  0  0  0
   10.7581    6.5674   21.7636 C   0  0  0  0  0  0  0  0  0  0  0  0
    8.4452    8.7960   19.2958 O   0  0  0  0  0  0  0  0  0  0  0  0
    8.7122    6.7842   24.8569 C   0  0  0  0  0  0  0  0  0  0  0  0
   10.3400    6.1726   14.3081 C   0  0  0  0  0  0  0  0  0  0  0  0
    7.4297    7.5873   24.8962 C   0  0  0  0  0  0  0  0  0  0  0  0
    8.1566   10.0536   16.0516 O   0  0  0  0  0  0  0  0  0  0  0  0
   12.4989    6.2074   20.1776 C   0  0  0  0  0  0  0  0  0  0  0  0
    6.9192    9.1053   20.9073 O   0  0  0  0  0  0  0  0  0  0  0  0
   14.3979    6.0729   18.7784 C   0  0  0  0  0  0  0  0  0  0  0  0
    8.6811    9.5354   16.9998 C   0  0  0  0  0  0  0  0  0  0  0  0
    9.2512    4.2713   13.7653 O   0  0  0  0  0  0  0  0  0  0  0  0
    9.6495    8.6317   16.8332 N   0  0  0  0  0  0  0  0  0  0  0  0
    6.2934    8.6988   23.1988 O   0  0  0  0  0  0  0  0  0  0  0  0
    7.9806    8.6543   20.5437 C   0  0  0  0  0  0  0  0  0  0  0  0
   13.7270    5.7144   19.8610 O   0  0  0  0  0  0  0  0  0  0  0  0
    8.3351    5.5235   15.4478 C   0  0  0  0  0  0  0  0  0  0  0  0
    8.7700    7.8434   21.3915 C   0  0  0  0  0  0  0  0  0  0  0  0
   11.7856    6.8851   19.2401 C   0  0  0  0  0  0  0  0  0  0  0  0
   10.5281    7.4276   19.5649 C   0  0  0  0  0  0  0  0  0  0  0  0
   10.0256    7.2907   20.8484 C   0  0  0  0  0  0  0  0  0  0  0  0
    9.3113    5.3049   14.4911 C   0  0  0  0  0  0  0  0  0  0  0  0
    9.4607    7.5646   16.0139 C   0  0  0  0  0  0  0  0  0  0  0  0
   10.4192    7.3157   15.0955 C   0  0  0  0  0  0  0  0  0  0  0  0
   10.2489    6.4227   23.0218 N   0  0  0  0  0  0  0  0  0  0  0  0
    7.2472    8.0746   23.5050 C   0  0  0  0  0  0  0  0  0  0  0  0
    9.2051    6.9101   23.4604 C   0  0  0  0  0  0  0  0  0  0  0  0
   11.9646    6.0299   21.4251 C   0  0  0  0  0  0  0  0  0  0  0  0
  1  5  1  0
  1 13  1  0
  2 20  2  0
  2 28  1  0
  2 29  1  0
  3 19  4  0
  3 25  4  0
  4 23  4  0
  4 27  1  0
  4 30  4  0
  5 17  1  0
  6  8  1  0
  6 29  1  0
  7 24  4  0
  7 26  4  0
  8 28  1  0
  9 13  2  0
 10 18  1  0
 10 21  4  0
 10 30  4  0
 11 17  2  0
 12 18  1  0
 13 15  1  0
 14 24  1  0
 15 25  1  0
 16 28  2  0
 17 20  1  0
 19 24  4  0
 20 23  1  0
 21 22  4  0
 22 23  4  0
 25 26  4  0
 27 29  2  0
M  END
$$$$

 Created by Python create_sdf_string function

 30 33  0  0  0  0  0  0  0  0999 V2000
    8.3036    9.8571   18.4133 C   0  0  0  0  0  0  0  0  0  0  0  0
    8.3694    7.6612   22.6703 C   0  0  0  0  0  0  0  0  0  0  0  0
    8.4143    6.6863   16.2273 C   0  0  0  0  0  0  0  0  0  0  0  0
   10.7581    6.5674   21.7636 C   0  0  0  0  0  0  0  0  0  0  0  0
    8.4452    8.7960   19.2958 O   0  0  0  0  0  0  0  0  0  0  0  0
    8.7122    6.7842   24.8569 C   0  0  0  0  0  0  0  0  0  0  0  0
   10.3400    6.1726   14.3081 C   0  0  0  0  0  0  0  0  0  0  0  0
    7.4297    7.5873   24.8962 C   0  0  0  0  0  0  0  0  0  0  0  0
    8.1566   10.0536   16.0516 O   0  0  0  0  0  0  0  0  0  0  0  0
   12.4989    6.2074   20.1776 C   0  0  0  0  0  0  0  0  0  0  0  0
    6.9192    9.1053   20.9073 O   0  0  0  0  0  0  0  0  0  0  0  0
   14.3979    6.0729   18.7784 C   0  0  0  0  0  0  0  0  0  0  0  0
    8.6811    9.5354   16.9998 C   0  0  0  0  0  0  0  0  0  0  0  0
    9.2512    4.2713   13.7653 O   0  0  0  0  0  0  0  0  0  0  0  0
    9.6495    8.6317   16.8332 N   0  0  0  0  0  0  0  0  0  0  0  0
    6.2934    8.6988   23.1988 O   0  0  0  0  0  0  0  0  0  0  0  0
    7.9806    8.6543   20.5437 C   0  0  0  0  0  0  0  0  0  0  0  0
   13.7270    5.7144   19.8610 O   0  0  0  0  0  0  0  0  0  0  0  0
    8.3351    5.5235   15.4478 C   0  0  0  0  0  0  0  0  0  0  0  0
    8.7700    7.8434   21.3915 C   0  0  0  0  0  0  0  0  0  0  0  0
   11.7856    6.8851   19.2401 C   0  0  0  0  0  0  0  0  0  0  0  0
   10.5281    7.4276   19.5649 C   0  0  0  0  0  0  0  0  0  0  0  0
   10.0256    7.2907   20.8484 C   0  0  0  0  0  0  0  0  0  0  0  0
    9.3113    5.3049   14.4911 C   0  0  0  0  0  0  0  0  0  0  0  0
    9.4607    7.5646   16.0139 C   0  0  0  0  0  0  0  0  0  0  0  0
   10.4192    7.3157   15.0955 C   0  0  0  0  0  0  0  0  0  0  0  0
   10.2489    6.4227   23.0218 N   0  0  0  0  0  0  0  0  0  0  0  0
    7.2472    8.0746   23.5050 C   0  0  0  0  0  0  0  0  0  0  0  0
    9.2051    6.9101   23.4604 C   0  0  0  0  0  0  0  0  0  0  0  0
   11.9646    6.0299   21.4251 C   0  0  0  0  0  0  0  0  0  0  0  0
  1  5  1  0
  1 13  1  0
  2 20  2  0
  2 28  1  0
  2 29  1  0
  3 19  4  0
  3 25  4  0
  4 23  4  0
  4 27  1  0
  4 30  4  0
  5 17  1  0
  6  8  1  0
  6 29  1  0
  7 24  4  0
  7 26  4  0
  8 28  1  0
  9 13  2  0
 10 18  1  0
 10 21  4  0
 10 30  4  0
 11 17  2  0
 12 18  1  0
 13 15  1  0
 14 24  1  0
 15 25  1  0
 16 28  2  0
 17 20  1  0
 19 24  4  0
 20 23  1  0
 21 22  4  0
 22 23  4  0
 25 26  4  0
 27 29  2  0
M  END
$$$$

 Created by Python create_sdf_string function

 30 33  0  0  0  0  0  0  0  0999 V2000
    8.3036    9.8571   18.4133 C   0  0  0  0  0  0  0  0  0  0  0  0
    8.3694    7.6612   22.6703 C   0  0  0  0  0  0  0  0  0  0  0  0
    8.4143    6.6863   16.2273 C   0  0  0  0  0  0  0  0  0  0  0  0
   10.7581    6.5674   21.7636 C   0  0  0  0  0  0  0  0  0  0  0  0
    8.4452    8.7960   19.2958 O   0  0  0  0  0  0  0  0  0  0  0  0
    8.7122    6.7842   24.8569 C   0  0  0  0  0  0  0  0  0  0  0  0
   10.3400    6.1726   14.3081 C   0  0  0  0  0  0  0  0  0  0  0  0
    7.4297    7.5873   24.8962 C   0  0  0  0  0  0  0  0  0  0  0  0
    8.1566   10.0536   16.0516 O   0  0  0  0  0  0  0  0  0  0  0  0
   12.4989    6.2074   20.1776 C   0  0  0  0  0  0  0  0  0  0  0  0
    6.9192    9.1053   20.9073 O   0  0  0  0  0  0  0  0  0  0  0  0
   14.3979    6.0729   18.7784 C   0  0  0  0  0  0  0  0  0  0  0  0
    8.6811    9.5354   16.9998 C   0  0  0  0  0  0  0  0  0  0  0  0
    9.2512    4.2713   13.7653 O   0  0  0  0  0  0  0  0  0  0  0  0
    9.6495    8.6317   16.8332 N   0  0  0  0  0  0  0  0  0  0  0  0
    6.2934    8.6988   23.1988 O   0  0  0  0  0  0  0  0  0  0  0  0
    7.9806    8.6543   20.5437 C   0  0  0  0  0  0  0  0  0  0  0  0
   13.7270    5.7144   19.8610 O   0  0  0  0  0  0  0  0  0  0  0  0
    8.3351    5.5235   15.4478 C   0  0  0  0  0  0  0  0  0  0  0  0
    8.7700    7.8434   21.3915 C   0  0  0  0  0  0  0  0  0  0  0  0
   11.7856    6.8851   19.2401 C   0  0  0  0  0  0  0  0  0  0  0  0
   10.5281    7.4276   19.5649 C   0  0  0  0  0  0  0  0  0  0  0  0
   10.0256    7.2907   20.8484 C   0  0  0  0  0  0  0  0  0  0  0  0
    9.3113    5.3049   14.4911 C   0  0  0  0  0  0  0  0  0  0  0  0
    9.4607    7.5646   16.0139 C   0  0  0  0  0  0  0  0  0  0  0  0
   10.4192    7.3157   15.0955 C   0  0  0  0  0  0  0  0  0  0  0  0
   10.2489    6.4227   23.0218 N   0  0  0  0  0  0  0  0  0  0  0  0
    7.2472    8.0746   23.5050 C   0  0  0  0  0  0  0  0  0  0  0  0
    9.2051    6.9101   23.4604 C   0  0  0  0  0  0  0  0  0  0  0  0
   11.9646    6.0299   21.4251 C   0  0  0  0  0  0  0  0  0  0  0  0
  1  5  1  0
  1 13  1  0
  2 20  2  0
  2 28  1  0
  2 29  1  0
  3 19  4  0
  3 25  4  0
  4 23  4  0
  4 27  1  0
  4 30  4  0
  5 17  1  0
  6  8  1  0
  6 29  1  0
  7 24  4  0
  7 26  4  0
  8 28  1  0
  9 13  2  0
 10 18  1  0
 10 21  4  0
 10 30  4  0
 11 17  2  0
 12 18  1  0
 13 15  1  0
 14 24  1  0
 15 25  1  0
 16 28  2  0
 17 20  1  0
 19 24  4  0
 20 23  1  0
 21 22  4  0
 22 23  4  0
 25 26  4  0
 27 29  2  0
M  END
$$$$

 Created by Python create_sdf_string function

 30 33  0  0  0  0  0  0  0  0999 V2000
    8.3036    9.8571   18.4133 C   0  0  0  0  0  0  0  0  0  0  0  0
    8.3694    7.6612   22.6703 C   0  0  0  0  0  0  0  0  0  0  0  0
    8.4143    6.6863   16.2273 C   0  0  0  0  0  0  0  0  0  0  0  0
   10.7581    6.5674   21.7636 C   0  0  0  0  0  0  0  0  0  0  0  0
    8.4452    8.7960   19.2958 O   0  0  0  0  0  0  0  0  0  0  0  0
    8.7122    6.7842   24.8569 C   0  0  0  0  0  0  0  0  0  0  0  0
   10.3400    6.1726   14.3081 C   0  0  0  0  0  0  0  0  0  0  0  0
    7.4297    7.5873   24.8962 C   0  0  0  0  0  0  0  0  0  0  0  0
    8.1566   10.0536   16.0516 O   0  0  0  0  0  0  0  0  0  0  0  0
   12.4989    6.2074   20.1776 C   0  0  0  0  0  0  0  0  0  0  0  0
    6.9192    9.1053   20.9073 O   0  0  0  0  0  0  0  0  0  0  0  0
   14.3979    6.0729   18.7784 C   0  0  0  0  0  0  0  0  0  0  0  0
    8.6811    9.5354   16.9998 C   0  0  0  0  0  0  0  0  0  0  0  0
    9.2512    4.2713   13.7653 O   0  0  0  0  0  0  0  0  0  0  0  0
    9.6495    8.6317   16.8332 N   0  0  0  0  0  0  0  0  0  0  0  0
    6.2934    8.6988   23.1988 O   0  0  0  0  0  0  0  0  0  0  0  0
    7.9806    8.6543   20.5437 C   0  0  0  0  0  0  0  0  0  0  0  0
   13.7270    5.7144   19.8610 O   0  0  0  0  0  0  0  0  0  0  0  0
    8.3351    5.5235   15.4478 C   0  0  0  0  0  0  0  0  0  0  0  0
    8.7700    7.8434   21.3915 C   0  0  0  0  0  0  0  0  0  0  0  0
   11.7856    6.8851   19.2401 C   0  0  0  0  0  0  0  0  0  0  0  0
   10.5281    7.4276   19.5649 C   0  0  0  0  0  0  0  0  0  0  0  0
   10.0256    7.2907   20.8484 C   0  0  0  0  0  0  0  0  0  0  0  0
    9.3113    5.3049   14.4911 C   0  0  0  0  0  0  0  0  0  0  0  0
    9.4607    7.5646   16.0139 C   0  0  0  0  0  0  0  0  0  0  0  0
   10.4192    7.3157   15.0955 C   0  0  0  0  0  0  0  0  0  0  0  0
   10.2489    6.4227   23.0218 N   0  0  0  0  0  0  0  0  0  0  0  0
    7.2472    8.0746   23.5050 C   0  0  0  0  0  0  0  0  0  0  0  0
    9.2051    6.9101   23.4604 C   0  0  0  0  0  0  0  0  0  0  0  0
   11.9646    6.0299   21.4251 C   0  0  0  0  0  0  0  0  0  0  0  0
  1  5  1  0
  1 13  1  0
  2 20  2  0
  2 28  1  0
  2 29  1  0
  3 19  4  0
  3 25  4  0
  4 23  4  0
  4 27  1  0
  4 30  4  0
  5 17  1  0
  6  8  1  0
  6 29  1  0
  7 24  4  0
  7 26  4  0
  8 28  1  0
  9 13  2  0
 10 18  1  0
 10 21  4  0
 10 30  4  0
 11 17  2  0
 12 18  1  0
 13 15  1  0
 14 24  1  0
 15 25  1  0
 16 28  2  0
 17 20  1  0
 19 24  4  0
 20 23  1  0
 21 22  4  0
 22 23  4  0
 25 26  4  0
 27 29  2  0
M  END
$$$$

 Created by Python create_sdf_string function

 30 33  0  0  0  0  0  0  0  0999 V2000
    8.3036    9.8571   18.4133 C   0  0  0  0  0  0  0  0  0  0  0  0
    8.3694    7.6612   22.6703 C   0  0  0  0  0  0  0  0  0  0  0  0
    8.4143    6.6863   16.2273 C   0  0  0  0  0  0  0  0  0  0  0  0
   10.7581    6.5674   21.7636 C   0  0  0  0  0  0  0  0  0  0  0  0
    8.4452    8.7960   19.2958 O   0  0  0  0  0  0  0  0  0  0  0  0
    8.7122    6.7842   24.8569 C   0  0  0  0  0  0  0  0  0  0  0  0
   10.3400    6.1726   14.3081 C   0  0  0  0  0  0  0  0  0  0  0  0
    7.4297    7.5873   24.8962 C   0  0  0  0  0  0  0  0  0  0  0  0
    8.1566   10.0536   16.0516 O   0  0  0  0  0  0  0  0  0  0  0  0
   12.4989    6.2074   20.1776 C   0  0  0  0  0  0  0  0  0  0  0  0
    6.9192    9.1053   20.9073 O   0  0  0  0  0  0  0  0  0  0  0  0
   14.3979    6.0729   18.7784 C   0  0  0  0  0  0  0  0  0  0  0  0
    8.6811    9.5354   16.9998 C   0  0  0  0  0  0  0  0  0  0  0  0
    9.2512    4.2713   13.7653 O   0  0  0  0  0  0  0  0  0  0  0  0
    9.6495    8.6317   16.8332 N   0  0  0  0  0  0  0  0  0  0  0  0
    6.2934    8.6988   23.1988 O   0  0  0  0  0  0  0  0  0  0  0  0
    7.9806    8.6543   20.5437 C   0  0  0  0  0  0  0  0  0  0  0  0
   13.7270    5.7144   19.8610 O   0  0  0  0  0  0  0  0  0  0  0  0
    8.3351    5.5235   15.4478 C   0  0  0  0  0  0  0  0  0  0  0  0
    8.7700    7.8434   21.3915 C   0  0  0  0  0  0  0  0  0  0  0  0
   11.7856    6.8851   19.2401 C   0  0  0  0  0  0  0  0  0  0  0  0
   10.5281    7.4276   19.5649 C   0  0  0  0  0  0  0  0  0  0  0  0
   10.0256    7.2907   20.8484 C   0  0  0  0  0  0  0  0  0  0  0  0
    9.3113    5.3049   14.4911 C   0  0  0  0  0  0  0  0  0  0  0  0
    9.4607    7.5646   16.0139 C   0  0  0  0  0  0  0  0  0  0  0  0
   10.4192    7.3157   15.0955 C   0  0  0  0  0  0  0  0  0  0  0  0
   10.2489    6.4227   23.0218 N   0  0  0  0  0  0  0  0  0  0  0  0
    7.2472    8.0746   23.5050 C   0  0  0  0  0  0  0  0  0  0  0  0
    9.2051    6.9101   23.4604 C   0  0  0  0  0  0  0  0  0  0  0  0
   11.9646    6.0299   21.4251 C   0  0  0  0  0  0  0  0  0  0  0  0
  1  5  1  0
  1 13  1  0
  2 20  2  0
  2 28  1  0
  2 29  1  0
  3 19  4  0
  3 25  4  0
  4 23  4  0
  4 27  1  0
  4 30  4  0
  5 17  1  0
  6  8  1  0
  6 29  1  0
  7 24  4  0
  7 26  4  0
  8 28  1  0
  9 13  2  0
 10 18  1  0
 10 21  4  0
 10 30  4  0
 11 17  2  0
 12 18  1  0
 13 15  1  0
 14 24  1  0
 15 25  1  0
 16 28  2  0
 17 20  1  0
 19 24  4  0
 20 23  1  0
 21 22  4  0
 22 23  4  0
 25 26  4  0
 27 29  2  0
M  END
$$$$

 Created by Python create_sdf_string function

 30 33  0  0  0  0  0  0  0  0999 V2000
    8.3036    9.8571   18.4133 C   0  0  0  0  0  0  0  0  0  0  0  0
    8.3694    7.6612   22.6703 C   0  0  0  0  0  0  0  0  0  0  0  0
    8.4143    6.6863   16.2273 C   0  0  0  0  0  0  0  0  0  0  0  0
   10.7581    6.5674   21.7636 C   0  0  0  0  0  0  0  0  0  0  0  0
    8.4452    8.7960   19.2958 O   0  0  0  0  0  0  0  0  0  0  0  0
    8.7122    6.7842   24.8569 C   0  0  0  0  0  0  0  0  0  0  0  0
   10.3400    6.1726   14.3081 C   0  0  0  0  0  0  0  0  0  0  0  0
    7.4297    7.5873   24.8962 C   0  0  0  0  0  0  0  0  0  0  0  0
    8.1566   10.0536   16.0516 O   0  0  0  0  0  0  0  0  0  0  0  0
   12.4989    6.2074   20.1776 C   0  0  0  0  0  0  0  0  0  0  0  0
    6.9192    9.1053   20.9073 O   0  0  0  0  0  0  0  0  0  0  0  0
   14.3979    6.0729   18.7784 C   0  0  0  0  0  0  0  0  0  0  0  0
    8.6811    9.5354   16.9998 C   0  0  0  0  0  0  0  0  0  0  0  0
    9.2512    4.2713   13.7653 O   0  0  0  0  0  0  0  0  0  0  0  0
    9.6495    8.6317   16.8332 N   0  0  0  0  0  0  0  0  0  0  0  0
    6.2934    8.6988   23.1988 O   0  0  0  0  0  0  0  0  0  0  0  0
    7.9806    8.6543   20.5437 C   0  0  0  0  0  0  0  0  0  0  0  0
   13.7270    5.7144   19.8610 O   0  0  0  0  0  0  0  0  0  0  0  0
    8.3351    5.5235   15.4478 C   0  0  0  0  0  0  0  0  0  0  0  0
    8.7700    7.8434   21.3915 C   0  0  0  0  0  0  0  0  0  0  0  0
   11.7856    6.8851   19.2401 C   0  0  0  0  0  0  0  0  0  0  0  0
   10.5281    7.4276   19.5649 C   0  0  0  0  0  0  0  0  0  0  0  0
   10.0256    7.2907   20.8484 C   0  0  0  0  0  0  0  0  0  0  0  0
    9.3113    5.3049   14.4911 C   0  0  0  0  0  0  0  0  0  0  0  0
    9.4607    7.5646   16.0139 C   0  0  0  0  0  0  0  0  0  0  0  0
   10.4192    7.3157   15.0955 C   0  0  0  0  0  0  0  0  0  0  0  0
   10.2489    6.4227   23.0218 N   0  0  0  0  0  0  0  0  0  0  0  0
    7.2472    8.0746   23.5050 C   0  0  0  0  0  0  0  0  0  0  0  0
    9.2051    6.9101   23.4604 C   0  0  0  0  0  0  0  0  0  0  0  0
   11.9646    6.0299   21.4251 C   0  0  0  0  0  0  0  0  0  0  0  0
  1  5  1  0
  1 13  1  0
  2 20  2  0
  2 28  1  0
  2 29  1  0
  3 19  4  0
  3 25  4  0
  4 23  4  0
  4 27  1  0
  4 30  4  0
  5 17  1  0
  6  8  1  0
  6 29  1  0
  7 24  4  0
  7 26  4  0
  8 28  1  0
  9 13  2  0
 10 18  1  0
 10 21  4  0
 10 30  4  0
 11 17  2  0
 12 18  1  0
 13 15  1  0
 14 24  1  0
 15 25  1  0
 16 28  2  0
 17 20  1  0
 19 24  4  0
 20 23  1  0
 21 22  4  0
 22 23  4  0
 25 26  4  0
 27 29  2  0
M  END
$$$$

 Created by Python create_sdf_string function

 30 33  0  0  0  0  0  0  0  0999 V2000
    8.3036    9.8571   18.4133 C   0  0  0  0  0  0  0  0  0  0  0  0
    8.3694    7.6612   22.6703 C   0  0  0  0  0  0  0  0  0  0  0  0
    8.4143    6.6863   16.2273 C   0  0  0  0  0  0  0  0  0  0  0  0
   10.7581    6.5674   21.7636 C   0  0  0  0  0  0  0  0  0  0  0  0
    8.4452    8.7960   19.2958 O   0  0  0  0  0  0  0  0  0  0  0  0
    8.7122    6.7842   24.8569 C   0  0  0  0  0  0  0  0  0  0  0  0
   10.3400    6.1726   14.3081 C   0  0  0  0  0  0  0  0  0  0  0  0
    7.4297    7.5873   24.8962 C   0  0  0  0  0  0  0  0  0  0  0  0
    8.1566   10.0536   16.0516 O   0  0  0  0  0  0  0  0  0  0  0  0
   12.4989    6.2074   20.1776 C   0  0  0  0  0  0  0  0  0  0  0  0
    6.9192    9.1053   20.9073 O   0  0  0  0  0  0  0  0  0  0  0  0
   14.3979    6.0729   18.7784 C   0  0  0  0  0  0  0  0  0  0  0  0
    8.6811    9.5354   16.9998 C   0  0  0  0  0  0  0  0  0  0  0  0
    9.2512    4.2713   13.7653 O   0  0  0  0  0  0  0  0  0  0  0  0
    9.6495    8.6317   16.8332 N   0  0  0  0  0  0  0  0  0  0  0  0
    6.2934    8.6988   23.1988 O   0  0  0  0  0  0  0  0  0  0  0  0
    7.9806    8.6543   20.5437 C   0  0  0  0  0  0  0  0  0  0  0  0
   13.7270    5.7144   19.8610 O   0  0  0  0  0  0  0  0  0  0  0  0
    8.3351    5.5235   15.4478 C   0  0  0  0  0  0  0  0  0  0  0  0
    8.7700    7.8434   21.3915 C   0  0  0  0  0  0  0  0  0  0  0  0
   11.7856    6.8851   19.2401 C   0  0  0  0  0  0  0  0  0  0  0  0
   10.5281    7.4276   19.5649 C   0  0  0  0  0  0  0  0  0  0  0  0
   10.0256    7.2907   20.8484 C   0  0  0  0  0  0  0  0  0  0  0  0
    9.3113    5.3049   14.4911 C   0  0  0  0  0  0  0  0  0  0  0  0
    9.4607    7.5646   16.0139 C   0  0  0  0  0  0  0  0  0  0  0  0
   10.4192    7.3157   15.0955 C   0  0  0  0  0  0  0  0  0  0  0  0
   10.2489    6.4227   23.0218 N   0  0  0  0  0  0  0  0  0  0  0  0
    7.2472    8.0746   23.5050 C   0  0  0  0  0  0  0  0  0  0  0  0
    9.2051    6.9101   23.4604 C   0  0  0  0  0  0  0  0  0  0  0  0
   11.9646    6.0299   21.4251 C   0  0  0  0  0  0  0  0  0  0  0  0
  1  5  1  0
  1 13  1  0
  2 20  2  0
  2 28  1  0
  2 29  1  0
  3 19  4  0
  3 25  4  0
  4 23  4  0
  4 27  1  0
  4 30  4  0
  5 17  1  0
  6  8  1  0
  6 29  1  0
  7 24  4  0
  7 26  4  0
  8 28  1  0
  9 13  2  0
 10 18  1  0
 10 21  4  0
 10 30  4  0
 11 17  2  0
 12 18  1  0
 13 15  1  0
 14 24  1  0
 15 25  1  0
 16 28  2  0
 17 20  1  0
 19 24  4  0
 20 23  1  0
 21 22  4  0
 22 23  4  0
 25 26  4  0
 27 29  2  0
M  END
$$$$

 Created by Python create_sdf_string function

 30 33  0  0  0  0  0  0  0  0999 V2000
    8.3036    9.8571   18.4133 C   0  0  0  0  0  0  0  0  0  0  0  0
    8.3694    7.6612   22.6703 C   0  0  0  0  0  0  0  0  0  0  0  0
    8.4143    6.6863   16.2273 C   0  0  0  0  0  0  0  0  0  0  0  0
   10.7581    6.5674   21.7636 C   0  0  0  0  0  0  0  0  0  0  0  0
    8.4452    8.7960   19.2958 O   0  0  0  0  0  0  0  0  0  0  0  0
    8.7122    6.7842   24.8569 C   0  0  0  0  0  0  0  0  0  0  0  0
   10.3400    6.1726   14.3081 C   0  0  0  0  0  0  0  0  0  0  0  0
    7.4297    7.5873   24.8962 C   0  0  0  0  0  0  0  0  0  0  0  0
    8.1566   10.0536   16.0516 O   0  0  0  0  0  0  0  0  0  0  0  0
   12.4989    6.2074   20.1776 C   0  0  0  0  0  0  0  0  0  0  0  0
    6.9192    9.1053   20.9073 O   0  0  0  0  0  0  0  0  0  0  0  0
   14.3979    6.0729   18.7784 C   0  0  0  0  0  0  0  0  0  0  0  0
    8.6811    9.5354   16.9998 C   0  0  0  0  0  0  0  0  0  0  0  0
    9.2512    4.2713   13.7653 O   0  0  0  0  0  0  0  0  0  0  0  0
    9.6495    8.6317   16.8332 N   0  0  0  0  0  0  0  0  0  0  0  0
    6.2934    8.6988   23.1988 O   0  0  0  0  0  0  0  0  0  0  0  0
    7.9806    8.6543   20.5437 C   0  0  0  0  0  0  0  0  0  0  0  0
   13.7270    5.7144   19.8610 O   0  0  0  0  0  0  0  0  0  0  0  0
    8.3351    5.5235   15.4478 C   0  0  0  0  0  0  0  0  0  0  0  0
    8.7700    7.8434   21.3915 C   0  0  0  0  0  0  0  0  0  0  0  0
   11.7856    6.8851   19.2401 C   0  0  0  0  0  0  0  0  0  0  0  0
   10.5281    7.4276   19.5649 C   0  0  0  0  0  0  0  0  0  0  0  0
   10.0256    7.2907   20.8484 C   0  0  0  0  0  0  0  0  0  0  0  0
    9.3113    5.3049   14.4911 C   0  0  0  0  0  0  0  0  0  0  0  0
    9.4607    7.5646   16.0139 C   0  0  0  0  0  0  0  0  0  0  0  0
   10.4192    7.3157   15.0955 C   0  0  0  0  0  0  0  0  0  0  0  0
   10.2489    6.4227   23.0218 N   0  0  0  0  0  0  0  0  0  0  0  0
    7.2472    8.0746   23.5050 C   0  0  0  0  0  0  0  0  0  0  0  0
    9.2051    6.9101   23.4604 C   0  0  0  0  0  0  0  0  0  0  0  0
   11.9646    6.0299   21.4251 C   0  0  0  0  0  0  0  0  0  0  0  0
  1  5  1  0
  1 13  1  0
  2 20  2  0
  2 28  1  0
  2 29  1  0
  3 19  4  0
  3 25  4  0
  4 23  4  0
  4 27  1  0
  4 30  4  0
  5 17  1  0
  6  8  1  0
  6 29  1  0
  7 24  4  0
  7 26  4  0
  8 28  1  0
  9 13  2  0
 10 18  1  0
 10 21  4  0
 10 30  4  0
 11 17  2  0
 12 18  1  0
 13 15  1  0
 14 24  1  0
 15 25  1  0
 16 28  2  0
 17 20  1  0
 19 24  4  0
 20 23  1  0
 21 22  4  0
 22 23  4  0
 25 26  4  0
 27 29  2  0
M  END
$$$$

 Created by Python create_sdf_string function

 30 33  0  0  0  0  0  0  0  0999 V2000
    8.3036    9.8571   18.4133 C   0  0  0  0  0  0  0  0  0  0  0  0
    8.3694    7.6612   22.6703 C   0  0  0  0  0  0  0  0  0  0  0  0
    8.4143    6.6863   16.2273 C   0  0  0  0  0  0  0  0  0  0  0  0
   10.7581    6.5674   21.7636 C   0  0  0  0  0  0  0  0  0  0  0  0
    8.4452    8.7960   19.2958 O   0  0  0  0  0  0  0  0  0  0  0  0
    8.7122    6.7842   24.8569 C   0  0  0  0  0  0  0  0  0  0  0  0
   10.3400    6.1726   14.3081 C   0  0  0  0  0  0  0  0  0  0  0  0
    7.4297    7.5873   24.8962 C   0  0  0  0  0  0  0  0  0  0  0  0
    8.1566   10.0536   16.0516 O   0  0  0  0  0  0  0  0  0  0  0  0
   12.4989    6.2074   20.1776 C   0  0  0  0  0  0  0  0  0  0  0  0
    6.9192    9.1053   20.9073 O   0  0  0  0  0  0  0  0  0  0  0  0
   14.3979    6.0729   18.7784 C   0  0  0  0  0  0  0  0  0  0  0  0
    8.6811    9.5354   16.9998 C   0  0  0  0  0  0  0  0  0  0  0  0
    9.2512    4.2713   13.7653 O   0  0  0  0  0  0  0  0  0  0  0  0
    9.6495    8.6317   16.8332 N   0  0  0  0  0  0  0  0  0  0  0  0
    6.2934    8.6988   23.1988 O   0  0  0  0  0  0  0  0  0  0  0  0
    7.9806    8.6543   20.5437 C   0  0  0  0  0  0  0  0  0  0  0  0
   13.7270    5.7144   19.8610 O   0  0  0  0  0  0  0  0  0  0  0  0
    8.3351    5.5235   15.4478 C   0  0  0  0  0  0  0  0  0  0  0  0
    8.7700    7.8434   21.3915 C   0  0  0  0  0  0  0  0  0  0  0  0
   11.7856    6.8851   19.2401 C   0  0  0  0  0  0  0  0  0  0  0  0
   10.5281    7.4276   19.5649 C   0  0  0  0  0  0  0  0  0  0  0  0
   10.0256    7.2907   20.8484 C   0  0  0  0  0  0  0  0  0  0  0  0
    9.3113    5.3049   14.4911 C   0  0  0  0  0  0  0  0  0  0  0  0
    9.4607    7.5646   16.0139 C   0  0  0  0  0  0  0  0  0  0  0  0
   10.4192    7.3157   15.0955 C   0  0  0  0  0  0  0  0  0  0  0  0
   10.2489    6.4227   23.0218 N   0  0  0  0  0  0  0  0  0  0  0  0
    7.2472    8.0746   23.5050 C   0  0  0  0  0  0  0  0  0  0  0  0
    9.2051    6.9101   23.4604 C   0  0  0  0  0  0  0  0  0  0  0  0
   11.9646    6.0299   21.4251 C   0  0  0  0  0  0  0  0  0  0  0  0
  1  5  1  0
  1 13  1  0
  2 20  2  0
  2 28  1  0
  2 29  1  0
  3 19  4  0
  3 25  4  0
  4 23  4  0
  4 27  1  0
  4 30  4  0
  5 17  1  0
  6  8  1  0
  6 29  1  0
  7 24  4  0
  7 26  4  0
  8 28  1  0
  9 13  2  0
 10 18  1  0
 10 21  4  0
 10 30  4  0
 11 17  2  0
 12 18  1  0
 13 15  1  0
 14 24  1  0
 15 25  1  0
 16 28  2  0
 17 20  1  0
 19 24  4  0
 20 23  1  0
 21 22  4  0
 22 23  4  0
 25 26  4  0
 27 29  2  0
M  END
$$$$

 Created by Python create_sdf_string function

 30 33  0  0  0  0  0  0  0  0999 V2000
    8.3036    9.8571   18.4133 C   0  0  0  0  0  0  0  0  0  0  0  0
    8.3694    7.6612   22.6703 C   0  0  0  0  0  0  0  0  0  0  0  0
    8.4143    6.6863   16.2273 C   0  0  0  0  0  0  0  0  0  0  0  0
   10.7581    6.5674   21.7636 C   0  0  0  0  0  0  0  0  0  0  0  0
    8.4452    8.7960   19.2958 O   0  0  0  0  0  0  0  0  0  0  0  0
    8.7122    6.7842   24.8569 C   0  0  0  0  0  0  0  0  0  0  0  0
   10.3400    6.1726   14.3081 C   0  0  0  0  0  0  0  0  0  0  0  0
    7.4297    7.5873   24.8962 C   0  0  0  0  0  0  0  0  0  0  0  0
    8.1566   10.0536   16.0516 O   0  0  0  0  0  0  0  0  0  0  0  0
   12.4989    6.2074   20.1776 C   0  0  0  0  0  0  0  0  0  0  0  0
    6.9192    9.1053   20.9073 O   0  0  0  0  0  0  0  0  0  0  0  0
   14.3979    6.0729   18.7784 C   0  0  0  0  0  0  0  0  0  0  0  0
    8.6811    9.5354   16.9998 C   0  0  0  0  0  0  0  0  0  0  0  0
    9.2512    4.2713   13.7653 O   0  0  0  0  0  0  0  0  0  0  0  0
    9.6495    8.6317   16.8332 N   0  0  0  0  0  0  0  0  0  0  0  0
    6.2934    8.6988   23.1988 O   0  0  0  0  0  0  0  0  0  0  0  0
    7.9806    8.6543   20.5437 C   0  0  0  0  0  0  0  0  0  0  0  0
   13.7270    5.7144   19.8610 O   0  0  0  0  0  0  0  0  0  0  0  0
    8.3351    5.5235   15.4478 C   0  0  0  0  0  0  0  0  0  0  0  0
    8.7700    7.8434   21.3915 C   0  0  0  0  0  0  0  0  0  0  0  0
   11.7856    6.8851   19.2401 C   0  0  0  0  0  0  0  0  0  0  0  0
   10.5281    7.4276   19.5649 C   0  0  0  0  0  0  0  0  0  0  0  0
   10.0256    7.2907   20.8484 C   0  0  0  0  0  0  0  0  0  0  0  0
    9.3113    5.3049   14.4911 C   0  0  0  0  0  0  0  0  0  0  0  0
    9.4607    7.5646   16.0139 C   0  0  0  0  0  0  0  0  0  0  0  0
   10.4192    7.3157   15.0955 C   0  0  0  0  0  0  0  0  0  0  0  0
   10.2489    6.4227   23.0218 N   0  0  0  0  0  0  0  0  0  0  0  0
    7.2472    8.0746   23.5050 C   0  0  0  0  0  0  0  0  0  0  0  0
    9.2051    6.9101   23.4604 C   0  0  0  0  0  0  0  0  0  0  0  0
   11.9646    6.0299   21.4251 C   0  0  0  0  0  0  0  0  0  0  0  0
  1  5  1  0
  1 13  1  0
  2 20  2  0
  2 28  1  0
  2 29  1  0
  3 19  4  0
  3 25  4  0
  4 23  4  0
  4 27  1  0
  4 30  4  0
  5 17  1  0
  6  8  1  0
  6 29  1  0
  7 24  4  0
  7 26  4  0
  8 28  1  0
  9 13  2  0
 10 18  1  0
 10 21  4  0
 10 30  4  0
 11 17  2  0
 12 18  1  0
 13 15  1  0
 14 24  1  0
 15 25  1  0
 16 28  2  0
 17 20  1  0
 19 24  4  0
 20 23  1  0
 21 22  4  0
 22 23  4  0
 25 26  4  0
 27 29  2  0
M  END
$$$$

 Created by Python create_sdf_string function

 30 33  0  0  0  0  0  0  0  0999 V2000
    8.3036    9.8571   18.4133 C   0  0  0  0  0  0  0  0  0  0  0  0
    8.3694    7.6612   22.6703 C   0  0  0  0  0  0  0  0  0  0  0  0
    8.4143    6.6863   16.2273 C   0  0  0  0  0  0  0  0  0  0  0  0
   10.7581    6.5674   21.7636 C   0  0  0  0  0  0  0  0  0  0  0  0
    8.4452    8.7960   19.2958 O   0  0  0  0  0  0  0  0  0  0  0  0
    8.7122    6.7842   24.8569 C   0  0  0  0  0  0  0  0  0  0  0  0
   10.3400    6.1726   14.3081 C   0  0  0  0  0  0  0  0  0  0  0  0
    7.4297    7.5873   24.8962 C   0  0  0  0  0  0  0  0  0  0  0  0
    8.1566   10.0536   16.0516 O   0  0  0  0  0  0  0  0  0  0  0  0
   12.4989    6.2074   20.1776 C   0  0  0  0  0  0  0  0  0  0  0  0
    6.9192    9.1053   20.9073 O   0  0  0  0  0  0  0  0  0  0  0  0
   14.3979    6.0729   18.7784 C   0  0  0  0  0  0  0  0  0  0  0  0
    8.6811    9.5354   16.9998 C   0  0  0  0  0  0  0  0  0  0  0  0
    9.2512    4.2713   13.7653 O   0  0  0  0  0  0  0  0  0  0  0  0
    9.6495    8.6317   16.8332 N   0  0  0  0  0  0  0  0  0  0  0  0
    6.2934    8.6988   23.1988 O   0  0  0  0  0  0  0  0  0  0  0  0
    7.9806    8.6543   20.5437 C   0  0  0  0  0  0  0  0  0  0  0  0
   13.7270    5.7144   19.8610 O   0  0  0  0  0  0  0  0  0  0  0  0
    8.3351    5.5235   15.4478 C   0  0  0  0  0  0  0  0  0  0  0  0
    8.7700    7.8434   21.3915 C   0  0  0  0  0  0  0  0  0  0  0  0
   11.7856    6.8851   19.2401 C   0  0  0  0  0  0  0  0  0  0  0  0
   10.5281    7.4276   19.5649 C   0  0  0  0  0  0  0  0  0  0  0  0
   10.0256    7.2907   20.8484 C   0  0  0  0  0  0  0  0  0  0  0  0
    9.3113    5.3049   14.4911 C   0  0  0  0  0  0  0  0  0  0  0  0
    9.4607    7.5646   16.0139 C   0  0  0  0  0  0  0  0  0  0  0  0
   10.4192    7.3157   15.0955 C   0  0  0  0  0  0  0  0  0  0  0  0
   10.2489    6.4227   23.0218 N   0  0  0  0  0  0  0  0  0  0  0  0
    7.2472    8.0746   23.5050 C   0  0  0  0  0  0  0  0  0  0  0  0
    9.2051    6.9101   23.4604 C   0  0  0  0  0  0  0  0  0  0  0  0
   11.9646    6.0299   21.4251 C   0  0  0  0  0  0  0  0  0  0  0  0
  1  5  1  0
  1 13  1  0
  2 20  2  0
  2 28  1  0
  2 29  1  0
  3 19  4  0
  3 25  4  0
  4 23  4  0
  4 27  1  0
  4 30  4  0
  5 17  1  0
  6  8  1  0
  6 29  1  0
  7 24  4  0
  7 26  4  0
  8 28  1  0
  9 13  2  0
 10 18  1  0
 10 21  4  0
 10 30  4  0
 11 17  2  0
 12 18  1  0
 13 15  1  0
 14 24  1  0
 15 25  1  0
 16 28  2  0
 17 20  1  0
 19 24  4  0
 20 23  1  0
 21 22  4  0
 22 23  4  0
 25 26  4  0
 27 29  2  0
M  END
$$$$

 Created by Python create_sdf_string function

 30 33  0  0  0  0  0  0  0  0999 V2000
    8.3036    9.8571   18.4133 C   0  0  0  0  0  0  0  0  0  0  0  0
    8.3694    7.6612   22.6703 C   0  0  0  0  0  0  0  0  0  0  0  0
    8.4143    6.6863   16.2273 C   0  0  0  0  0  0  0  0  0  0  0  0
   10.7581    6.5674   21.7636 C   0  0  0  0  0  0  0  0  0  0  0  0
    8.4452    8.7960   19.2958 O   0  0  0  0  0  0  0  0  0  0  0  0
    8.7122    6.7842   24.8569 C   0  0  0  0  0  0  0  0  0  0  0  0
   10.3400    6.1726   14.3081 C   0  0  0  0  0  0  0  0  0  0  0  0
    7.4297    7.5873   24.8962 C   0  0  0  0  0  0  0  0  0  0  0  0
    8.1566   10.0536   16.0516 O   0  0  0  0  0  0  0  0  0  0  0  0
   12.4989    6.2074   20.1776 C   0  0  0  0  0  0  0  0  0  0  0  0
    6.9192    9.1053   20.9073 O   0  0  0  0  0  0  0  0  0  0  0  0
   14.3979    6.0729   18.7784 C   0  0  0  0  0  0  0  0  0  0  0  0
    8.6811    9.5354   16.9998 C   0  0  0  0  0  0  0  0  0  0  0  0
    9.2512    4.2713   13.7653 O   0  0  0  0  0  0  0  0  0  0  0  0
    9.6495    8.6317   16.8332 N   0  0  0  0  0  0  0  0  0  0  0  0
    6.2934    8.6988   23.1988 O   0  0  0  0  0  0  0  0  0  0  0  0
    7.9806    8.6543   20.5437 C   0  0  0  0  0  0  0  0  0  0  0  0
   13.7270    5.7144   19.8610 O   0  0  0  0  0  0  0  0  0  0  0  0
    8.3351    5.5235   15.4478 C   0  0  0  0  0  0  0  0  0  0  0  0
    8.7700    7.8434   21.3915 C   0  0  0  0  0  0  0  0  0  0  0  0
   11.7856    6.8851   19.2401 C   0  0  0  0  0  0  0  0  0  0  0  0
   10.5281    7.4276   19.5649 C   0  0  0  0  0  0  0  0  0  0  0  0
   10.0256    7.2907   20.8484 C   0  0  0  0  0  0  0  0  0  0  0  0
    9.3113    5.3049   14.4911 C   0  0  0  0  0  0  0  0  0  0  0  0
    9.4607    7.5646   16.0139 C   0  0  0  0  0  0  0  0  0  0  0  0
   10.4192    7.3157   15.0955 C   0  0  0  0  0  0  0  0  0  0  0  0
   10.2489    6.4227   23.0218 N   0  0  0  0  0  0  0  0  0  0  0  0
    7.2472    8.0746   23.5050 C   0  0  0  0  0  0  0  0  0  0  0  0
    9.2051    6.9101   23.4604 C   0  0  0  0  0  0  0  0  0  0  0  0
   11.9646    6.0299   21.4251 C   0  0  0  0  0  0  0  0  0  0  0  0
  1  5  1  0
  1 13  1  0
  2 20  2  0
  2 28  1  0
  2 29  1  0
  3 19  4  0
  3 25  4  0
  4 23  4  0
  4 27  1  0
  4 30  4  0
  5 17  1  0
  6  8  1  0
  6 29  1  0
  7 24  4  0
  7 26  4  0
  8 28  1  0
  9 13  2  0
 10 18  1  0
 10 21  4  0
 10 30  4  0
 11 17  2  0
 12 18  1  0
 13 15  1  0
 14 24  1  0
 15 25  1  0
 16 28  2  0
 17 20  1  0
 19 24  4  0
 20 23  1  0
 21 22  4  0
 22 23  4  0
 25 26  4  0
 27 29  2  0
M  END
$$$$

 Created by Python create_sdf_string function

 30 33  0  0  0  0  0  0  0  0999 V2000
    8.3036    9.8571   18.4133 C   0  0  0  0  0  0  0  0  0  0  0  0
    8.3694    7.6612   22.6703 C   0  0  0  0  0  0  0  0  0  0  0  0
    8.4143    6.6863   16.2273 C   0  0  0  0  0  0  0  0  0  0  0  0
   10.7581    6.5674   21.7636 C   0  0  0  0  0  0  0  0  0  0  0  0
    8.4452    8.7960   19.2958 O   0  0  0  0  0  0  0  0  0  0  0  0
    8.7122    6.7842   24.8569 C   0  0  0  0  0  0  0  0  0  0  0  0
   10.3400    6.1726   14.3081 C   0  0  0  0  0  0  0  0  0  0  0  0
    7.4297    7.5873   24.8962 C   0  0  0  0  0  0  0  0  0  0  0  0
    8.1566   10.0536   16.0516 O   0  0  0  0  0  0  0  0  0  0  0  0
   12.4989    6.2074   20.1776 C   0  0  0  0  0  0  0  0  0  0  0  0
    6.9192    9.1053   20.9073 O   0  0  0  0  0  0  0  0  0  0  0  0
   14.3979    6.0729   18.7784 C   0  0  0  0  0  0  0  0  0  0  0  0
    8.6811    9.5354   16.9998 C   0  0  0  0  0  0  0  0  0  0  0  0
    9.2512    4.2713   13.7653 O   0  0  0  0  0  0  0  0  0  0  0  0
    9.6495    8.6317   16.8332 N   0  0  0  0  0  0  0  0  0  0  0  0
    6.2934    8.6988   23.1988 O   0  0  0  0  0  0  0  0  0  0  0  0
    7.9806    8.6543   20.5437 C   0  0  0  0  0  0  0  0  0  0  0  0
   13.7270    5.7144   19.8610 O   0  0  0  0  0  0  0  0  0  0  0  0
    8.3351    5.5235   15.4478 C   0  0  0  0  0  0  0  0  0  0  0  0
    8.7700    7.8434   21.3915 C   0  0  0  0  0  0  0  0  0  0  0  0
   11.7856    6.8851   19.2401 C   0  0  0  0  0  0  0  0  0  0  0  0
   10.5281    7.4276   19.5649 C   0  0  0  0  0  0  0  0  0  0  0  0
   10.0256    7.2907   20.8484 C   0  0  0  0  0  0  0  0  0  0  0  0
    9.3113    5.3049   14.4911 C   0  0  0  0  0  0  0  0  0  0  0  0
    9.4607    7.5646   16.0139 C   0  0  0  0  0  0  0  0  0  0  0  0
   10.4192    7.3157   15.0955 C   0  0  0  0  0  0  0  0  0  0  0  0
   10.2489    6.4227   23.0218 N   0  0  0  0  0  0  0  0  0  0  0  0
    7.2472    8.0746   23.5050 C   0  0  0  0  0  0  0  0  0  0  0  0
    9.2051    6.9101   23.4604 C   0  0  0  0  0  0  0  0  0  0  0  0
   11.9646    6.0299   21.4251 C   0  0  0  0  0  0  0  0  0  0  0  0
  1  5  1  0
  1 13  1  0
  2 20  2  0
  2 28  1  0
  2 29  1  0
  3 19  4  0
  3 25  4  0
  4 23  4  0
  4 27  1  0
  4 30  4  0
  5 17  1  0
  6  8  1  0
  6 29  1  0
  7 24  4  0
  7 26  4  0
  8 28  1  0
  9 13  2  0
 10 18  1  0
 10 21  4  0
 10 30  4  0
 11 17  2  0
 12 18  1  0
 13 15  1  0
 14 24  1  0
 15 25  1  0
 16 28  2  0
 17 20  1  0
 19 24  4  0
 20 23  1  0
 21 22  4  0
 22 23  4  0
 25 26  4  0
 27 29  2  0
M  END
$$$$

 Created by Python create_sdf_string function

 30 33  0  0  0  0  0  0  0  0999 V2000
    8.3036    9.8571   18.4133 C   0  0  0  0  0  0  0  0  0  0  0  0
    8.3694    7.6612   22.6703 C   0  0  0  0  0  0  0  0  0  0  0  0
    8.4143    6.6863   16.2273 C   0  0  0  0  0  0  0  0  0  0  0  0
   10.7581    6.5674   21.7636 C   0  0  0  0  0  0  0  0  0  0  0  0
    8.4452    8.7960   19.2958 O   0  0  0  0  0  0  0  0  0  0  0  0
    8.7122    6.7842   24.8569 C   0  0  0  0  0  0  0  0  0  0  0  0
   10.3400    6.1726   14.3081 C   0  0  0  0  0  0  0  0  0  0  0  0
    7.4297    7.5873   24.8962 C   0  0  0  0  0  0  0  0  0  0  0  0
    8.1566   10.0536   16.0516 O   0  0  0  0  0  0  0  0  0  0  0  0
   12.4989    6.2074   20.1776 C   0  0  0  0  0  0  0  0  0  0  0  0
    6.9192    9.1053   20.9073 O   0  0  0  0  0  0  0  0  0  0  0  0
   14.3979    6.0729   18.7784 C   0  0  0  0  0  0  0  0  0  0  0  0
    8.6811    9.5354   16.9998 C   0  0  0  0  0  0  0  0  0  0  0  0
    9.2512    4.2713   13.7653 O   0  0  0  0  0  0  0  0  0  0  0  0
    9.6495    8.6317   16.8332 N   0  0  0  0  0  0  0  0  0  0  0  0
    6.2934    8.6988   23.1988 O   0  0  0  0  0  0  0  0  0  0  0  0
    7.9806    8.6543   20.5437 C   0  0  0  0  0  0  0  0  0  0  0  0
   13.7270    5.7144   19.8610 O   0  0  0  0  0  0  0  0  0  0  0  0
    8.3351    5.5235   15.4478 C   0  0  0  0  0  0  0  0  0  0  0  0
    8.7700    7.8434   21.3915 C   0  0  0  0  0  0  0  0  0  0  0  0
   11.7856    6.8851   19.2401 C   0  0  0  0  0  0  0  0  0  0  0  0
   10.5281    7.4276   19.5649 C   0  0  0  0  0  0  0  0  0  0  0  0
   10.0256    7.2907   20.8484 C   0  0  0  0  0  0  0  0  0  0  0  0
    9.3113    5.3049   14.4911 C   0  0  0  0  0  0  0  0  0  0  0  0
    9.4607    7.5646   16.0139 C   0  0  0  0  0  0  0  0  0  0  0  0
   10.4192    7.3157   15.0955 C   0  0  0  0  0  0  0  0  0  0  0  0
   10.2489    6.4227   23.0218 N   0  0  0  0  0  0  0  0  0  0  0  0
    7.2472    8.0746   23.5050 C   0  0  0  0  0  0  0  0  0  0  0  0
    9.2051    6.9101   23.4604 C   0  0  0  0  0  0  0  0  0  0  0  0
   11.9646    6.0299   21.4251 C   0  0  0  0  0  0  0  0  0  0  0  0
  1  5  1  0
  1 13  1  0
  2 20  2  0
  2 28  1  0
  2 29  1  0
  3 19  4  0
  3 25  4  0
  4 23  4  0
  4 27  1  0
  4 30  4  0
  5 17  1  0
  6  8  1  0
  6 29  1  0
  7 24  4  0
  7 26  4  0
  8 28  1  0
  9 13  2  0
 10 18  1  0
 10 21  4  0
 10 30  4  0
 11 17  2  0
 12 18  1  0
 13 15  1  0
 14 24  1  0
 15 25  1  0
 16 28  2  0
 17 20  1  0
 19 24  4  0
 20 23  1  0
 21 22  4  0
 22 23  4  0
 25 26  4  0
 27 29  2  0
M  END
$$$$

 Created by Python create_sdf_string function

 30 33  0  0  0  0  0  0  0  0999 V2000
    8.3036    9.8571   18.4133 C   0  0  0  0  0  0  0  0  0  0  0  0
    8.3694    7.6612   22.6703 C   0  0  0  0  0  0  0  0  0  0  0  0
    8.4143    6.6863   16.2273 C   0  0  0  0  0  0  0  0  0  0  0  0
   10.7581    6.5674   21.7636 C   0  0  0  0  0  0  0  0  0  0  0  0
    8.4452    8.7960   19.2958 O   0  0  0  0  0  0  0  0  0  0  0  0
    8.7122    6.7842   24.8569 C   0  0  0  0  0  0  0  0  0  0  0  0
   10.3400    6.1726   14.3081 C   0  0  0  0  0  0  0  0  0  0  0  0
    7.4297    7.5873   24.8962 C   0  0  0  0  0  0  0  0  0  0  0  0
    8.1566   10.0536   16.0516 O   0  0  0  0  0  0  0  0  0  0  0  0
   12.4989    6.2074   20.1776 C   0  0  0  0  0  0  0  0  0  0  0  0
    6.9192    9.1053   20.9073 O   0  0  0  0  0  0  0  0  0  0  0  0
   14.3979    6.0729   18.7784 C   0  0  0  0  0  0  0  0  0  0  0  0
    8.6811    9.5354   16.9998 C   0  0  0  0  0  0  0  0  0  0  0  0
    9.2512    4.2713   13.7653 O   0  0  0  0  0  0  0  0  0  0  0  0
    9.6495    8.6317   16.8332 N   0  0  0  0  0  0  0  0  0  0  0  0
    6.2934    8.6988   23.1988 O   0  0  0  0  0  0  0  0  0  0  0  0
    7.9806    8.6543   20.5437 C   0  0  0  0  0  0  0  0  0  0  0  0
   13.7270    5.7144   19.8610 O   0  0  0  0  0  0  0  0  0  0  0  0
    8.3351    5.5235   15.4478 C   0  0  0  0  0  0  0  0  0  0  0  0
    8.7700    7.8434   21.3915 C   0  0  0  0  0  0  0  0  0  0  0  0
   11.7856    6.8851   19.2401 C   0  0  0  0  0  0  0  0  0  0  0  0
   10.5281    7.4276   19.5649 C   0  0  0  0  0  0  0  0  0  0  0  0
   10.0256    7.2907   20.8484 C   0  0  0  0  0  0  0  0  0  0  0  0
    9.3113    5.3049   14.4911 C   0  0  0  0  0  0  0  0  0  0  0  0
    9.4607    7.5646   16.0139 C   0  0  0  0  0  0  0  0  0  0  0  0
   10.4192    7.3157   15.0955 C   0  0  0  0  0  0  0  0  0  0  0  0
   10.2489    6.4227   23.0218 N   0  0  0  0  0  0  0  0  0  0  0  0
    7.2472    8.0746   23.5050 C   0  0  0  0  0  0  0  0  0  0  0  0
    9.2051    6.9101   23.4604 C   0  0  0  0  0  0  0  0  0  0  0  0
   11.9646    6.0299   21.4251 C   0  0  0  0  0  0  0  0  0  0  0  0
  1  5  1  0
  1 13  1  0
  2 20  2  0
  2 28  1  0
  2 29  1  0
  3 19  4  0
  3 25  4  0
  4 23  4  0
  4 27  1  0
  4 30  4  0
  5 17  1  0
  6  8  1  0
  6 29  1  0
  7 24  4  0
  7 26  4  0
  8 28  1  0
  9 13  2  0
 10 18  1  0
 10 21  4  0
 10 30  4  0
 11 17  2  0
 12 18  1  0
 13 15  1  0
 14 24  1  0
 15 25  1  0
 16 28  2  0
 17 20  1  0
 19 24  4  0
 20 23  1  0
 21 22  4  0
 22 23  4  0
 25 26  4  0
 27 29  2  0
M  END
$$$$

 Created by Python create_sdf_string function

 30 33  0  0  0  0  0  0  0  0999 V2000
    8.3036    9.8571   18.4133 C   0  0  0  0  0  0  0  0  0  0  0  0
    8.3694    7.6612   22.6703 C   0  0  0  0  0  0  0  0  0  0  0  0
    8.4143    6.6863   16.2273 C   0  0  0  0  0  0  0  0  0  0  0  0
   10.7581    6.5674   21.7636 C   0  0  0  0  0  0  0  0  0  0  0  0
    8.4452    8.7960   19.2958 O   0  0  0  0  0  0  0  0  0  0  0  0
    8.7122    6.7842   24.8569 C   0  0  0  0  0  0  0  0  0  0  0  0
   10.3400    6.1726   14.3081 C   0  0  0  0  0  0  0  0  0  0  0  0
    7.4297    7.5873   24.8962 C   0  0  0  0  0  0  0  0  0  0  0  0
    8.1566   10.0536   16.0516 O   0  0  0  0  0  0  0  0  0  0  0  0
   12.4989    6.2074   20.1776 C   0  0  0  0  0  0  0  0  0  0  0  0
    6.9192    9.1053   20.9073 O   0  0  0  0  0  0  0  0  0  0  0  0
   14.3979    6.0729   18.7784 C   0  0  0  0  0  0  0  0  0  0  0  0
    8.6811    9.5354   16.9998 C   0  0  0  0  0  0  0  0  0  0  0  0
    9.2512    4.2713   13.7653 O   0  0  0  0  0  0  0  0  0  0  0  0
    9.6495    8.6317   16.8332 N   0  0  0  0  0  0  0  0  0  0  0  0
    6.2934    8.6988   23.1988 O   0  0  0  0  0  0  0  0  0  0  0  0
    7.9806    8.6543   20.5437 C   0  0  0  0  0  0  0  0  0  0  0  0
   13.7270    5.7144   19.8610 O   0  0  0  0  0  0  0  0  0  0  0  0
    8.3351    5.5235   15.4478 C   0  0  0  0  0  0  0  0  0  0  0  0
    8.7700    7.8434   21.3915 C   0  0  0  0  0  0  0  0  0  0  0  0
   11.7856    6.8851   19.2401 C   0  0  0  0  0  0  0  0  0  0  0  0
   10.5281    7.4276   19.5649 C   0  0  0  0  0  0  0  0  0  0  0  0
   10.0256    7.2907   20.8484 C   0  0  0  0  0  0  0  0  0  0  0  0
    9.3113    5.3049   14.4911 C   0  0  0  0  0  0  0  0  0  0  0  0
    9.4607    7.5646   16.0139 C   0  0  0  0  0  0  0  0  0  0  0  0
   10.4192    7.3157   15.0955 C   0  0  0  0  0  0  0  0  0  0  0  0
   10.2489    6.4227   23.0218 N   0  0  0  0  0  0  0  0  0  0  0  0
    7.2472    8.0746   23.5050 C   0  0  0  0  0  0  0  0  0  0  0  0
    9.2051    6.9101   23.4604 C   0  0  0  0  0  0  0  0  0  0  0  0
   11.9646    6.0299   21.4251 C   0  0  0  0  0  0  0  0  0  0  0  0
  1  5  1  0
  1 13  1  0
  2 20  2  0
  2 28  1  0
  2 29  1  0
  3 19  4  0
  3 25  4  0
  4 23  4  0
  4 27  1  0
  4 30  4  0
  5 17  1  0
  6  8  1  0
  6 29  1  0
  7 24  4  0
  7 26  4  0
  8 28  1  0
  9 13  2  0
 10 18  1  0
 10 21  4  0
 10 30  4  0
 11 17  2  0
 12 18  1  0
 13 15  1  0
 14 24  1  0
 15 25  1  0
 16 28  2  0
 17 20  1  0
 19 24  4  0
 20 23  1  0
 21 22  4  0
 22 23  4  0
 25 26  4  0
 27 29  2  0
M  END
$$$$

 Created by Python create_sdf_string function

 30 33  0  0  0  0  0  0  0  0999 V2000
    8.3036    9.8571   18.4133 C   0  0  0  0  0  0  0  0  0  0  0  0
    8.3694    7.6612   22.6703 C   0  0  0  0  0  0  0  0  0  0  0  0
    8.4143    6.6863   16.2273 C   0  0  0  0  0  0  0  0  0  0  0  0
   10.7581    6.5674   21.7636 C   0  0  0  0  0  0  0  0  0  0  0  0
    8.4452    8.7960   19.2958 O   0  0  0  0  0  0  0  0  0  0  0  0
    8.7122    6.7842   24.8569 C   0  0  0  0  0  0  0  0  0  0  0  0
   10.3400    6.1726   14.3081 C   0  0  0  0  0  0  0  0  0  0  0  0
    7.4297    7.5873   24.8962 C   0  0  0  0  0  0  0  0  0  0  0  0
    8.1566   10.0536   16.0516 O   0  0  0  0  0  0  0  0  0  0  0  0
   12.4989    6.2074   20.1776 C   0  0  0  0  0  0  0  0  0  0  0  0
    6.9192    9.1053   20.9073 O   0  0  0  0  0  0  0  0  0  0  0  0
   14.3979    6.0729   18.7784 C   0  0  0  0  0  0  0  0  0  0  0  0
    8.6811    9.5354   16.9998 C   0  0  0  0  0  0  0  0  0  0  0  0
    9.2512    4.2713   13.7653 O   0  0  0  0  0  0  0  0  0  0  0  0
    9.6495    8.6317   16.8332 N   0  0  0  0  0  0  0  0  0  0  0  0
    6.2934    8.6988   23.1988 O   0  0  0  0  0  0  0  0  0  0  0  0
    7.9806    8.6543   20.5437 C   0  0  0  0  0  0  0  0  0  0  0  0
   13.7270    5.7144   19.8610 O   0  0  0  0  0  0  0  0  0  0  0  0
    8.3351    5.5235   15.4478 C   0  0  0  0  0  0  0  0  0  0  0  0
    8.7700    7.8434   21.3915 C   0  0  0  0  0  0  0  0  0  0  0  0
   11.7856    6.8851   19.2401 C   0  0  0  0  0  0  0  0  0  0  0  0
   10.5281    7.4276   19.5649 C   0  0  0  0  0  0  0  0  0  0  0  0
   10.0256    7.2907   20.8484 C   0  0  0  0  0  0  0  0  0  0  0  0
    9.3113    5.3049   14.4911 C   0  0  0  0  0  0  0  0  0  0  0  0
    9.4607    7.5646   16.0139 C   0  0  0  0  0  0  0  0  0  0  0  0
   10.4192    7.3157   15.0955 C   0  0  0  0  0  0  0  0  0  0  0  0
   10.2489    6.4227   23.0218 N   0  0  0  0  0  0  0  0  0  0  0  0
    7.2472    8.0746   23.5050 C   0  0  0  0  0  0  0  0  0  0  0  0
    9.2051    6.9101   23.4604 C   0  0  0  0  0  0  0  0  0  0  0  0
   11.9646    6.0299   21.4251 C   0  0  0  0  0  0  0  0  0  0  0  0
  1  5  1  0
  1 13  1  0
  2 20  2  0
  2 28  1  0
  2 29  1  0
  3 19  4  0
  3 25  4  0
  4 23  4  0
  4 27  1  0
  4 30  4  0
  5 17  1  0
  6  8  1  0
  6 29  1  0
  7 24  4  0
  7 26  4  0
  8 28  1  0
  9 13  2  0
 10 18  1  0
 10 21  4  0
 10 30  4  0
 11 17  2  0
 12 18  1  0
 13 15  1  0
 14 24  1  0
 15 25  1  0
 16 28  2  0
 17 20  1  0
 19 24  4  0
 20 23  1  0
 21 22  4  0
 22 23  4  0
 25 26  4  0
 27 29  2  0
M  END
$$$$

 Created by Python create_sdf_string function

 30 33  0  0  0  0  0  0  0  0999 V2000
    8.3036    9.8571   18.4133 C   0  0  0  0  0  0  0  0  0  0  0  0
    8.3694    7.6612   22.6703 C   0  0  0  0  0  0  0  0  0  0  0  0
    8.4143    6.6863   16.2273 C   0  0  0  0  0  0  0  0  0  0  0  0
   10.7581    6.5674   21.7636 C   0  0  0  0  0  0  0  0  0  0  0  0
    8.4452    8.7960   19.2958 O   0  0  0  0  0  0  0  0  0  0  0  0
    8.7122    6.7842   24.8569 C   0  0  0  0  0  0  0  0  0  0  0  0
   10.3400    6.1726   14.3081 C   0  0  0  0  0  0  0  0  0  0  0  0
    7.4297    7.5873   24.8962 C   0  0  0  0  0  0  0  0  0  0  0  0
    8.1566   10.0536   16.0516 O   0  0  0  0  0  0  0  0  0  0  0  0
   12.4989    6.2074   20.1776 C   0  0  0  0  0  0  0  0  0  0  0  0
    6.9192    9.1053   20.9073 O   0  0  0  0  0  0  0  0  0  0  0  0
   14.3979    6.0729   18.7784 C   0  0  0  0  0  0  0  0  0  0  0  0
    8.6811    9.5354   16.9998 C   0  0  0  0  0  0  0  0  0  0  0  0
    9.2512    4.2713   13.7653 O   0  0  0  0  0  0  0  0  0  0  0  0
    9.6495    8.6317   16.8332 N   0  0  0  0  0  0  0  0  0  0  0  0
    6.2934    8.6988   23.1988 O   0  0  0  0  0  0  0  0  0  0  0  0
    7.9806    8.6543   20.5437 C   0  0  0  0  0  0  0  0  0  0  0  0
   13.7270    5.7144   19.8610 O   0  0  0  0  0  0  0  0  0  0  0  0
    8.3351    5.5235   15.4478 C   0  0  0  0  0  0  0  0  0  0  0  0
    8.7700    7.8434   21.3915 C   0  0  0  0  0  0  0  0  0  0  0  0
   11.7856    6.8851   19.2401 C   0  0  0  0  0  0  0  0  0  0  0  0
   10.5281    7.4276   19.5649 C   0  0  0  0  0  0  0  0  0  0  0  0
   10.0256    7.2907   20.8484 C   0  0  0  0  0  0  0  0  0  0  0  0
    9.3113    5.3049   14.4911 C   0  0  0  0  0  0  0  0  0  0  0  0
    9.4607    7.5646   16.0139 C   0  0  0  0  0  0  0  0  0  0  0  0
   10.4192    7.3157   15.0955 C   0  0  0  0  0  0  0  0  0  0  0  0
   10.2489    6.4227   23.0218 N   0  0  0  0  0  0  0  0  0  0  0  0
    7.2472    8.0746   23.5050 C   0  0  0  0  0  0  0  0  0  0  0  0
    9.2051    6.9101   23.4604 C   0  0  0  0  0  0  0  0  0  0  0  0
   11.9646    6.0299   21.4251 C   0  0  0  0  0  0  0  0  0  0  0  0
  1  5  1  0
  1 13  1  0
  2 20  2  0
  2 28  1  0
  2 29  1  0
  3 19  4  0
  3 25  4  0
  4 23  4  0
  4 27  1  0
  4 30  4  0
  5 17  1  0
  6  8  1  0
  6 29  1  0
  7 24  4  0
  7 26  4  0
  8 28  1  0
  9 13  2  0
 10 18  1  0
 10 21  4  0
 10 30  4  0
 11 17  2  0
 12 18  1  0
 13 15  1  0
 14 24  1  0
 15 25  1  0
 16 28  2  0
 17 20  1  0
 19 24  4  0
 20 23  1  0
 21 22  4  0
 22 23  4  0
 25 26  4  0
 27 29  2  0
M  END
$$$$

 Created by Python create_sdf_string function

 30 33  0  0  0  0  0  0  0  0999 V2000
    8.3036    9.8571   18.4133 C   0  0  0  0  0  0  0  0  0  0  0  0
    8.3694    7.6612   22.6703 C   0  0  0  0  0  0  0  0  0  0  0  0
    8.4143    6.6863   16.2273 C   0  0  0  0  0  0  0  0  0  0  0  0
   10.7581    6.5674   21.7636 C   0  0  0  0  0  0  0  0  0  0  0  0
    8.4452    8.7960   19.2958 O   0  0  0  0  0  0  0  0  0  0  0  0
    8.7122    6.7842   24.8569 C   0  0  0  0  0  0  0  0  0  0  0  0
   10.3400    6.1726   14.3081 C   0  0  0  0  0  0  0  0  0  0  0  0
    7.4297    7.5873   24.8962 C   0  0  0  0  0  0  0  0  0  0  0  0
    8.1566   10.0536   16.0516 O   0  0  0  0  0  0  0  0  0  0  0  0
   12.4989    6.2074   20.1776 C   0  0  0  0  0  0  0  0  0  0  0  0
    6.9192    9.1053   20.9073 O   0  0  0  0  0  0  0  0  0  0  0  0
   14.3979    6.0729   18.7784 C   0  0  0  0  0  0  0  0  0  0  0  0
    8.6811    9.5354   16.9998 C   0  0  0  0  0  0  0  0  0  0  0  0
    9.2512    4.2713   13.7653 O   0  0  0  0  0  0  0  0  0  0  0  0
    9.6495    8.6317   16.8332 N   0  0  0  0  0  0  0  0  0  0  0  0
    6.2934    8.6988   23.1988 O   0  0  0  0  0  0  0  0  0  0  0  0
    7.9806    8.6543   20.5437 C   0  0  0  0  0  0  0  0  0  0  0  0
   13.7270    5.7144   19.8610 O   0  0  0  0  0  0  0  0  0  0  0  0
    8.3351    5.5235   15.4478 C   0  0  0  0  0  0  0  0  0  0  0  0
    8.7700    7.8434   21.3915 C   0  0  0  0  0  0  0  0  0  0  0  0
   11.7856    6.8851   19.2401 C   0  0  0  0  0  0  0  0  0  0  0  0
   10.5281    7.4276   19.5649 C   0  0  0  0  0  0  0  0  0  0  0  0
   10.0256    7.2907   20.8484 C   0  0  0  0  0  0  0  0  0  0  0  0
    9.3113    5.3049   14.4911 C   0  0  0  0  0  0  0  0  0  0  0  0
    9.4607    7.5646   16.0139 C   0  0  0  0  0  0  0  0  0  0  0  0
   10.4192    7.3157   15.0955 C   0  0  0  0  0  0  0  0  0  0  0  0
   10.2489    6.4227   23.0218 N   0  0  0  0  0  0  0  0  0  0  0  0
    7.2472    8.0746   23.5050 C   0  0  0  0  0  0  0  0  0  0  0  0
    9.2051    6.9101   23.4604 C   0  0  0  0  0  0  0  0  0  0  0  0
   11.9646    6.0299   21.4251 C   0  0  0  0  0  0  0  0  0  0  0  0
  1  5  1  0
  1 13  1  0
  2 20  2  0
  2 28  1  0
  2 29  1  0
  3 19  4  0
  3 25  4  0
  4 23  4  0
  4 27  1  0
  4 30  4  0
  5 17  1  0
  6  8  1  0
  6 29  1  0
  7 24  4  0
  7 26  4  0
  8 28  1  0
  9 13  2  0
 10 18  1  0
 10 21  4  0
 10 30  4  0
 11 17  2  0
 12 18  1  0
 13 15  1  0
 14 24  1  0
 15 25  1  0
 16 28  2  0
 17 20  1  0
 19 24  4  0
 20 23  1  0
 21 22  4  0
 22 23  4  0
 25 26  4  0
 27 29  2  0
M  END
$$$$

 Created by Python create_sdf_string function

 30 33  0  0  0  0  0  0  0  0999 V2000
    8.3036    9.8571   18.4133 C   0  0  0  0  0  0  0  0  0  0  0  0
    8.3694    7.6612   22.6703 C   0  0  0  0  0  0  0  0  0  0  0  0
    8.4143    6.6863   16.2273 C   0  0  0  0  0  0  0  0  0  0  0  0
   10.7581    6.5674   21.7636 C   0  0  0  0  0  0  0  0  0  0  0  0
    8.4452    8.7960   19.2958 O   0  0  0  0  0  0  0  0  0  0  0  0
    8.7122    6.7842   24.8569 C   0  0  0  0  0  0  0  0  0  0  0  0
   10.3400    6.1726   14.3081 C   0  0  0  0  0  0  0  0  0  0  0  0
    7.4297    7.5873   24.8962 C   0  0  0  0  0  0  0  0  0  0  0  0
    8.1566   10.0536   16.0516 O   0  0  0  0  0  0  0  0  0  0  0  0
   12.4989    6.2074   20.1776 C   0  0  0  0  0  0  0  0  0  0  0  0
    6.9192    9.1053   20.9073 O   0  0  0  0  0  0  0  0  0  0  0  0
   14.3979    6.0729   18.7784 C   0  0  0  0  0  0  0  0  0  0  0  0
    8.6811    9.5354   16.9998 C   0  0  0  0  0  0  0  0  0  0  0  0
    9.2512    4.2713   13.7653 O   0  0  0  0  0  0  0  0  0  0  0  0
    9.6495    8.6317   16.8332 N   0  0  0  0  0  0  0  0  0  0  0  0
    6.2934    8.6988   23.1988 O   0  0  0  0  0  0  0  0  0  0  0  0
    7.9806    8.6543   20.5437 C   0  0  0  0  0  0  0  0  0  0  0  0
   13.7270    5.7144   19.8610 O   0  0  0  0  0  0  0  0  0  0  0  0
    8.3351    5.5235   15.4478 C   0  0  0  0  0  0  0  0  0  0  0  0
    8.7700    7.8434   21.3915 C   0  0  0  0  0  0  0  0  0  0  0  0
   11.7856    6.8851   19.2401 C   0  0  0  0  0  0  0  0  0  0  0  0
   10.5281    7.4276   19.5649 C   0  0  0  0  0  0  0  0  0  0  0  0
   10.0256    7.2907   20.8484 C   0  0  0  0  0  0  0  0  0  0  0  0
    9.3113    5.3049   14.4911 C   0  0  0  0  0  0  0  0  0  0  0  0
    9.4607    7.5646   16.0139 C   0  0  0  0  0  0  0  0  0  0  0  0
   10.4192    7.3157   15.0955 C   0  0  0  0  0  0  0  0  0  0  0  0
   10.2489    6.4227   23.0218 N   0  0  0  0  0  0  0  0  0  0  0  0
    7.2472    8.0746   23.5050 C   0  0  0  0  0  0  0  0  0  0  0  0
    9.2051    6.9101   23.4604 C   0  0  0  0  0  0  0  0  0  0  0  0
   11.9646    6.0299   21.4251 C   0  0  0  0  0  0  0  0  0  0  0  0
  1  5  1  0
  1 13  1  0
  2 20  2  0
  2 28  1  0
  2 29  1  0
  3 19  4  0
  3 25  4  0
  4 23  4  0
  4 27  1  0
  4 30  4  0
  5 17  1  0
  6  8  1  0
  6 29  1  0
  7 24  4  0
  7 26  4  0
  8 28  1  0
  9 13  2  0
 10 18  1  0
 10 21  4  0
 10 30  4  0
 11 17  2  0
 12 18  1  0
 13 15  1  0
 14 24  1  0
 15 25  1  0
 16 28  2  0
 17 20  1  0
 19 24  4  0
 20 23  1  0
 21 22  4  0
 22 23  4  0
 25 26  4  0
 27 29  2  0
M  END
$$$$

 Created by Python create_sdf_string function

 30 33  0  0  0  0  0  0  0  0999 V2000
    8.3036    9.8571   18.4133 C   0  0  0  0  0  0  0  0  0  0  0  0
    8.3694    7.6612   22.6703 C   0  0  0  0  0  0  0  0  0  0  0  0
    8.4143    6.6863   16.2273 C   0  0  0  0  0  0  0  0  0  0  0  0
   10.7581    6.5674   21.7636 C   0  0  0  0  0  0  0  0  0  0  0  0
    8.4452    8.7960   19.2958 O   0  0  0  0  0  0  0  0  0  0  0  0
    8.7122    6.7842   24.8569 C   0  0  0  0  0  0  0  0  0  0  0  0
   10.3400    6.1726   14.3081 C   0  0  0  0  0  0  0  0  0  0  0  0
    7.4297    7.5873   24.8962 C   0  0  0  0  0  0  0  0  0  0  0  0
    8.1566   10.0536   16.0516 O   0  0  0  0  0  0  0  0  0  0  0  0
   12.4989    6.2074   20.1776 C   0  0  0  0  0  0  0  0  0  0  0  0
    6.9192    9.1053   20.9073 O   0  0  0  0  0  0  0  0  0  0  0  0
   14.3979    6.0729   18.7784 C   0  0  0  0  0  0  0  0  0  0  0  0
    8.6811    9.5354   16.9998 C   0  0  0  0  0  0  0  0  0  0  0  0
    9.2512    4.2713   13.7653 O   0  0  0  0  0  0  0  0  0  0  0  0
    9.6495    8.6317   16.8332 N   0  0  0  0  0  0  0  0  0  0  0  0
    6.2934    8.6988   23.1988 O   0  0  0  0  0  0  0  0  0  0  0  0
    7.9806    8.6543   20.5437 C   0  0  0  0  0  0  0  0  0  0  0  0
   13.7270    5.7144   19.8610 O   0  0  0  0  0  0  0  0  0  0  0  0
    8.3351    5.5235   15.4478 C   0  0  0  0  0  0  0  0  0  0  0  0
    8.7700    7.8434   21.3915 C   0  0  0  0  0  0  0  0  0  0  0  0
   11.7856    6.8851   19.2401 C   0  0  0  0  0  0  0  0  0  0  0  0
   10.5281    7.4276   19.5649 C   0  0  0  0  0  0  0  0  0  0  0  0
   10.0256    7.2907   20.8484 C   0  0  0  0  0  0  0  0  0  0  0  0
    9.3113    5.3049   14.4911 C   0  0  0  0  0  0  0  0  0  0  0  0
    9.4607    7.5646   16.0139 C   0  0  0  0  0  0  0  0  0  0  0  0
   10.4192    7.3157   15.0955 C   0  0  0  0  0  0  0  0  0  0  0  0
   10.2489    6.4227   23.0218 N   0  0  0  0  0  0  0  0  0  0  0  0
    7.2472    8.0746   23.5050 C   0  0  0  0  0  0  0  0  0  0  0  0
    9.2051    6.9101   23.4604 C   0  0  0  0  0  0  0  0  0  0  0  0
   11.9646    6.0299   21.4251 C   0  0  0  0  0  0  0  0  0  0  0  0
  1  5  1  0
  1 13  1  0
  2 20  2  0
  2 28  1  0
  2 29  1  0
  3 19  4  0
  3 25  4  0
  4 23  4  0
  4 27  1  0
  4 30  4  0
  5 17  1  0
  6  8  1  0
  6 29  1  0
  7 24  4  0
  7 26  4  0
  8 28  1  0
  9 13  2  0
 10 18  1  0
 10 21  4  0
 10 30  4  0
 11 17  2  0
 12 18  1  0
 13 15  1  0
 14 24  1  0
 15 25  1  0
 16 28  2  0
 17 20  1  0
 19 24  4  0
 20 23  1  0
 21 22  4  0
 22 23  4  0
 25 26  4  0
 27 29  2  0
M  END
$$$$

 Created by Python create_sdf_string function

 30 33  0  0  0  0  0  0  0  0999 V2000
    8.3036    9.8571   18.4133 C   0  0  0  0  0  0  0  0  0  0  0  0
    8.3694    7.6612   22.6703 C   0  0  0  0  0  0  0  0  0  0  0  0
    8.4143    6.6863   16.2273 C   0  0  0  0  0  0  0  0  0  0  0  0
   10.7581    6.5674   21.7636 C   0  0  0  0  0  0  0  0  0  0  0  0
    8.4452    8.7960   19.2958 O   0  0  0  0  0  0  0  0  0  0  0  0
    8.7122    6.7842   24.8569 C   0  0  0  0  0  0  0  0  0  0  0  0
   10.3400    6.1726   14.3081 C   0  0  0  0  0  0  0  0  0  0  0  0
    7.4297    7.5873   24.8962 C   0  0  0  0  0  0  0  0  0  0  0  0
    8.1566   10.0536   16.0516 O   0  0  0  0  0  0  0  0  0  0  0  0
   12.4989    6.2074   20.1776 C   0  0  0  0  0  0  0  0  0  0  0  0
    6.9192    9.1053   20.9073 O   0  0  0  0  0  0  0  0  0  0  0  0
   14.3979    6.0729   18.7784 C   0  0  0  0  0  0  0  0  0  0  0  0
    8.6811    9.5354   16.9998 C   0  0  0  0  0  0  0  0  0  0  0  0
    9.2512    4.2713   13.7653 O   0  0  0  0  0  0  0  0  0  0  0  0
    9.6495    8.6317   16.8332 N   0  0  0  0  0  0  0  0  0  0  0  0
    6.2934    8.6988   23.1988 O   0  0  0  0  0  0  0  0  0  0  0  0
    7.9806    8.6543   20.5437 C   0  0  0  0  0  0  0  0  0  0  0  0
   13.7270    5.7144   19.8610 O   0  0  0  0  0  0  0  0  0  0  0  0
    8.3351    5.5235   15.4478 C   0  0  0  0  0  0  0  0  0  0  0  0
    8.7700    7.8434   21.3915 C   0  0  0  0  0  0  0  0  0  0  0  0
   11.7856    6.8851   19.2401 C   0  0  0  0  0  0  0  0  0  0  0  0
   10.5281    7.4276   19.5649 C   0  0  0  0  0  0  0  0  0  0  0  0
   10.0256    7.2907   20.8484 C   0  0  0  0  0  0  0  0  0  0  0  0
    9.3113    5.3049   14.4911 C   0  0  0  0  0  0  0  0  0  0  0  0
    9.4607    7.5646   16.0139 C   0  0  0  0  0  0  0  0  0  0  0  0
   10.4192    7.3157   15.0955 C   0  0  0  0  0  0  0  0  0  0  0  0
   10.2489    6.4227   23.0218 N   0  0  0  0  0  0  0  0  0  0  0  0
    7.2472    8.0746   23.5050 C   0  0  0  0  0  0  0  0  0  0  0  0
    9.2051    6.9101   23.4604 C   0  0  0  0  0  0  0  0  0  0  0  0
   11.9646    6.0299   21.4251 C   0  0  0  0  0  0  0  0  0  0  0  0
  1  5  1  0
  1 13  1  0
  2 20  2  0
  2 28  1  0
  2 29  1  0
  3 19  4  0
  3 25  4  0
  4 23  4  0
  4 27  1  0
  4 30  4  0
  5 17  1  0
  6  8  1  0
  6 29  1  0
  7 24  4  0
  7 26  4  0
  8 28  1  0
  9 13  2  0
 10 18  1  0
 10 21  4  0
 10 30  4  0
 11 17  2  0
 12 18  1  0
 13 15  1  0
 14 24  1  0
 15 25  1  0
 16 28  2  0
 17 20  1  0
 19 24  4  0
 20 23  1  0
 21 22  4  0
 22 23  4  0
 25 26  4  0
 27 29  2  0
M  END
$$$$

 Created by Python create_sdf_string function

 30 33  0  0  0  0  0  0  0  0999 V2000
    8.3036    9.8571   18.4133 C   0  0  0  0  0  0  0  0  0  0  0  0
    8.3694    7.6612   22.6703 C   0  0  0  0  0  0  0  0  0  0  0  0
    8.4143    6.6863   16.2273 C   0  0  0  0  0  0  0  0  0  0  0  0
   10.7581    6.5674   21.7636 C   0  0  0  0  0  0  0  0  0  0  0  0
    8.4452    8.7960   19.2958 O   0  0  0  0  0  0  0  0  0  0  0  0
    8.7122    6.7842   24.8569 C   0  0  0  0  0  0  0  0  0  0  0  0
   10.3400    6.1726   14.3081 C   0  0  0  0  0  0  0  0  0  0  0  0
    7.4297    7.5873   24.8962 C   0  0  0  0  0  0  0  0  0  0  0  0
    8.1566   10.0536   16.0516 O   0  0  0  0  0  0  0  0  0  0  0  0
   12.4989    6.2074   20.1776 C   0  0  0  0  0  0  0  0  0  0  0  0
    6.9192    9.1053   20.9073 O   0  0  0  0  0  0  0  0  0  0  0  0
   14.3979    6.0729   18.7784 C   0  0  0  0  0  0  0  0  0  0  0  0
    8.6811    9.5354   16.9998 C   0  0  0  0  0  0  0  0  0  0  0  0
    9.2512    4.2713   13.7653 O   0  0  0  0  0  0  0  0  0  0  0  0
    9.6495    8.6317   16.8332 N   0  0  0  0  0  0  0  0  0  0  0  0
    6.2934    8.6988   23.1988 O   0  0  0  0  0  0  0  0  0  0  0  0
    7.9806    8.6543   20.5437 C   0  0  0  0  0  0  0  0  0  0  0  0
   13.7270    5.7144   19.8610 O   0  0  0  0  0  0  0  0  0  0  0  0
    8.3351    5.5235   15.4478 C   0  0  0  0  0  0  0  0  0  0  0  0
    8.7700    7.8434   21.3915 C   0  0  0  0  0  0  0  0  0  0  0  0
   11.7856    6.8851   19.2401 C   0  0  0  0  0  0  0  0  0  0  0  0
   10.5281    7.4276   19.5649 C   0  0  0  0  0  0  0  0  0  0  0  0
   10.0256    7.2907   20.8484 C   0  0  0  0  0  0  0  0  0  0  0  0
    9.3113    5.3049   14.4911 C   0  0  0  0  0  0  0  0  0  0  0  0
    9.4607    7.5646   16.0139 C   0  0  0  0  0  0  0  0  0  0  0  0
   10.4192    7.3157   15.0955 C   0  0  0  0  0  0  0  0  0  0  0  0
   10.2489    6.4227   23.0218 N   0  0  0  0  0  0  0  0  0  0  0  0
    7.2472    8.0746   23.5050 C   0  0  0  0  0  0  0  0  0  0  0  0
    9.2051    6.9101   23.4604 C   0  0  0  0  0  0  0  0  0  0  0  0
   11.9646    6.0299   21.4251 C   0  0  0  0  0  0  0  0  0  0  0  0
  1  5  1  0
  1 13  1  0
  2 20  2  0
  2 28  1  0
  2 29  1  0
  3 19  4  0
  3 25  4  0
  4 23  4  0
  4 27  1  0
  4 30  4  0
  5 17  1  0
  6  8  1  0
  6 29  1  0
  7 24  4  0
  7 26  4  0
  8 28  1  0
  9 13  2  0
 10 18  1  0
 10 21  4  0
 10 30  4  0
 11 17  2  0
 12 18  1  0
 13 15  1  0
 14 24  1  0
 15 25  1  0
 16 28  2  0
 17 20  1  0
 19 24  4  0
 20 23  1  0
 21 22  4  0
 22 23  4  0
 25 26  4  0
 27 29  2  0
M  END
$$$$

 Created by Python create_sdf_string function

 30 33  0  0  0  0  0  0  0  0999 V2000
    8.3036    9.8571   18.4133 C   0  0  0  0  0  0  0  0  0  0  0  0
    8.3694    7.6612   22.6703 C   0  0  0  0  0  0  0  0  0  0  0  0
    8.4143    6.6863   16.2273 C   0  0  0  0  0  0  0  0  0  0  0  0
   10.7581    6.5674   21.7636 C   0  0  0  0  0  0  0  0  0  0  0  0
    8.4452    8.7960   19.2958 O   0  0  0  0  0  0  0  0  0  0  0  0
    8.7122    6.7842   24.8569 C   0  0  0  0  0  0  0  0  0  0  0  0
   10.3400    6.1726   14.3081 C   0  0  0  0  0  0  0  0  0  0  0  0
    7.4297    7.5873   24.8962 C   0  0  0  0  0  0  0  0  0  0  0  0
    8.1566   10.0536   16.0516 O   0  0  0  0  0  0  0  0  0  0  0  0
   12.4989    6.2074   20.1776 C   0  0  0  0  0  0  0  0  0  0  0  0
    6.9192    9.1053   20.9073 O   0  0  0  0  0  0  0  0  0  0  0  0
   14.3979    6.0729   18.7784 C   0  0  0  0  0  0  0  0  0  0  0  0
    8.6811    9.5354   16.9998 C   0  0  0  0  0  0  0  0  0  0  0  0
    9.2512    4.2713   13.7653 O   0  0  0  0  0  0  0  0  0  0  0  0
    9.6495    8.6317   16.8332 N   0  0  0  0  0  0  0  0  0  0  0  0
    6.2934    8.6988   23.1988 O   0  0  0  0  0  0  0  0  0  0  0  0
    7.9806    8.6543   20.5437 C   0  0  0  0  0  0  0  0  0  0  0  0
   13.7270    5.7144   19.8610 O   0  0  0  0  0  0  0  0  0  0  0  0
    8.3351    5.5235   15.4478 C   0  0  0  0  0  0  0  0  0  0  0  0
    8.7700    7.8434   21.3915 C   0  0  0  0  0  0  0  0  0  0  0  0
   11.7856    6.8851   19.2401 C   0  0  0  0  0  0  0  0  0  0  0  0
   10.5281    7.4276   19.5649 C   0  0  0  0  0  0  0  0  0  0  0  0
   10.0256    7.2907   20.8484 C   0  0  0  0  0  0  0  0  0  0  0  0
    9.3113    5.3049   14.4911 C   0  0  0  0  0  0  0  0  0  0  0  0
    9.4607    7.5646   16.0139 C   0  0  0  0  0  0  0  0  0  0  0  0
   10.4192    7.3157   15.0955 C   0  0  0  0  0  0  0  0  0  0  0  0
   10.2489    6.4227   23.0218 N   0  0  0  0  0  0  0  0  0  0  0  0
    7.2472    8.0746   23.5050 C   0  0  0  0  0  0  0  0  0  0  0  0
    9.2051    6.9101   23.4604 C   0  0  0  0  0  0  0  0  0  0  0  0
   11.9646    6.0299   21.4251 C   0  0  0  0  0  0  0  0  0  0  0  0
  1  5  1  0
  1 13  1  0
  2 20  2  0
  2 28  1  0
  2 29  1  0
  3 19  4  0
  3 25  4  0
  4 23  4  0
  4 27  1  0
  4 30  4  0
  5 17  1  0
  6  8  1  0
  6 29  1  0
  7 24  4  0
  7 26  4  0
  8 28  1  0
  9 13  2  0
 10 18  1  0
 10 21  4  0
 10 30  4  0
 11 17  2  0
 12 18  1  0
 13 15  1  0
 14 24  1  0
 15 25  1  0
 16 28  2  0
 17 20  1  0
 19 24  4  0
 20 23  1  0
 21 22  4  0
 22 23  4  0
 25 26  4  0
 27 29  2  0
M  END
$$$$

 Created by Python create_sdf_string function

 30 33  0  0  0  0  0  0  0  0999 V2000
    8.3036    9.8571   18.4133 C   0  0  0  0  0  0  0  0  0  0  0  0
    8.3694    7.6612   22.6703 C   0  0  0  0  0  0  0  0  0  0  0  0
    8.4143    6.6863   16.2273 C   0  0  0  0  0  0  0  0  0  0  0  0
   10.7581    6.5674   21.7636 C   0  0  0  0  0  0  0  0  0  0  0  0
    8.4452    8.7960   19.2958 O   0  0  0  0  0  0  0  0  0  0  0  0
    8.7122    6.7842   24.8569 C   0  0  0  0  0  0  0  0  0  0  0  0
   10.3400    6.1726   14.3081 C   0  0  0  0  0  0  0  0  0  0  0  0
    7.4297    7.5873   24.8962 C   0  0  0  0  0  0  0  0  0  0  0  0
    8.1566   10.0536   16.0516 O   0  0  0  0  0  0  0  0  0  0  0  0
   12.4989    6.2074   20.1776 C   0  0  0  0  0  0  0  0  0  0  0  0
    6.9192    9.1053   20.9073 O   0  0  0  0  0  0  0  0  0  0  0  0
   14.3979    6.0729   18.7784 C   0  0  0  0  0  0  0  0  0  0  0  0
    8.6811    9.5354   16.9998 C   0  0  0  0  0  0  0  0  0  0  0  0
    9.2512    4.2713   13.7653 O   0  0  0  0  0  0  0  0  0  0  0  0
    9.6495    8.6317   16.8332 N   0  0  0  0  0  0  0  0  0  0  0  0
    6.2934    8.6988   23.1988 O   0  0  0  0  0  0  0  0  0  0  0  0
    7.9806    8.6543   20.5437 C   0  0  0  0  0  0  0  0  0  0  0  0
   13.7270    5.7144   19.8610 O   0  0  0  0  0  0  0  0  0  0  0  0
    8.3351    5.5235   15.4478 C   0  0  0  0  0  0  0  0  0  0  0  0
    8.7700    7.8434   21.3915 C   0  0  0  0  0  0  0  0  0  0  0  0
   11.7856    6.8851   19.2401 C   0  0  0  0  0  0  0  0  0  0  0  0
   10.5281    7.4276   19.5649 C   0  0  0  0  0  0  0  0  0  0  0  0
   10.0256    7.2907   20.8484 C   0  0  0  0  0  0  0  0  0  0  0  0
    9.3113    5.3049   14.4911 C   0  0  0  0  0  0  0  0  0  0  0  0
    9.4607    7.5646   16.0139 C   0  0  0  0  0  0  0  0  0  0  0  0
   10.4192    7.3157   15.0955 C   0  0  0  0  0  0  0  0  0  0  0  0
   10.2489    6.4227   23.0218 N   0  0  0  0  0  0  0  0  0  0  0  0
    7.2472    8.0746   23.5050 C   0  0  0  0  0  0  0  0  0  0  0  0
    9.2051    6.9101   23.4604 C   0  0  0  0  0  0  0  0  0  0  0  0
   11.9646    6.0299   21.4251 C   0  0  0  0  0  0  0  0  0  0  0  0
  1  5  1  0
  1 13  1  0
  2 20  2  0
  2 28  1  0
  2 29  1  0
  3 19  4  0
  3 25  4  0
  4 23  4  0
  4 27  1  0
  4 30  4  0
  5 17  1  0
  6  8  1  0
  6 29  1  0
  7 24  4  0
  7 26  4  0
  8 28  1  0
  9 13  2  0
 10 18  1  0
 10 21  4  0
 10 30  4  0
 11 17  2  0
 12 18  1  0
 13 15  1  0
 14 24  1  0
 15 25  1  0
 16 28  2  0
 17 20  1  0
 19 24  4  0
 20 23  1  0
 21 22  4  0
 22 23  4  0
 25 26  4  0
 27 29  2  0
M  END
$$$$

 Created by Python create_sdf_string function

 30 33  0  0  0  0  0  0  0  0999 V2000
    8.3036    9.8571   18.4133 C   0  0  0  0  0  0  0  0  0  0  0  0
    8.3694    7.6612   22.6703 C   0  0  0  0  0  0  0  0  0  0  0  0
    8.4143    6.6863   16.2273 C   0  0  0  0  0  0  0  0  0  0  0  0
   10.7581    6.5674   21.7636 C   0  0  0  0  0  0  0  0  0  0  0  0
    8.4452    8.7960   19.2958 O   0  0  0  0  0  0  0  0  0  0  0  0
    8.7122    6.7842   24.8569 C   0  0  0  0  0  0  0  0  0  0  0  0
   10.3400    6.1726   14.3081 C   0  0  0  0  0  0  0  0  0  0  0  0
    7.4297    7.5873   24.8962 C   0  0  0  0  0  0  0  0  0  0  0  0
    8.1566   10.0536   16.0516 O   0  0  0  0  0  0  0  0  0  0  0  0
   12.4989    6.2074   20.1776 C   0  0  0  0  0  0  0  0  0  0  0  0
    6.9192    9.1053   20.9073 O   0  0  0  0  0  0  0  0  0  0  0  0
   14.3979    6.0729   18.7784 C   0  0  0  0  0  0  0  0  0  0  0  0
    8.6811    9.5354   16.9998 C   0  0  0  0  0  0  0  0  0  0  0  0
    9.2512    4.2713   13.7653 O   0  0  0  0  0  0  0  0  0  0  0  0
    9.6495    8.6317   16.8332 N   0  0  0  0  0  0  0  0  0  0  0  0
    6.2934    8.6988   23.1988 O   0  0  0  0  0  0  0  0  0  0  0  0
    7.9806    8.6543   20.5437 C   0  0  0  0  0  0  0  0  0  0  0  0
   13.7270    5.7144   19.8610 O   0  0  0  0  0  0  0  0  0  0  0  0
    8.3351    5.5235   15.4478 C   0  0  0  0  0  0  0  0  0  0  0  0
    8.7700    7.8434   21.3915 C   0  0  0  0  0  0  0  0  0  0  0  0
   11.7856    6.8851   19.2401 C   0  0  0  0  0  0  0  0  0  0  0  0
   10.5281    7.4276   19.5649 C   0  0  0  0  0  0  0  0  0  0  0  0
   10.0256    7.2907   20.8484 C   0  0  0  0  0  0  0  0  0  0  0  0
    9.3113    5.3049   14.4911 C   0  0  0  0  0  0  0  0  0  0  0  0
    9.4607    7.5646   16.0139 C   0  0  0  0  0  0  0  0  0  0  0  0
   10.4192    7.3157   15.0955 C   0  0  0  0  0  0  0  0  0  0  0  0
   10.2489    6.4227   23.0218 N   0  0  0  0  0  0  0  0  0  0  0  0
    7.2472    8.0746   23.5050 C   0  0  0  0  0  0  0  0  0  0  0  0
    9.2051    6.9101   23.4604 C   0  0  0  0  0  0  0  0  0  0  0  0
   11.9646    6.0299   21.4251 C   0  0  0  0  0  0  0  0  0  0  0  0
  1  5  1  0
  1 13  1  0
  2 20  2  0
  2 28  1  0
  2 29  1  0
  3 19  4  0
  3 25  4  0
  4 23  4  0
  4 27  1  0
  4 30  4  0
  5 17  1  0
  6  8  1  0
  6 29  1  0
  7 24  4  0
  7 26  4  0
  8 28  1  0
  9 13  2  0
 10 18  1  0
 10 21  4  0
 10 30  4  0
 11 17  2  0
 12 18  1  0
 13 15  1  0
 14 24  1  0
 15 25  1  0
 16 28  2  0
 17 20  1  0
 19 24  4  0
 20 23  1  0
 21 22  4  0
 22 23  4  0
 25 26  4  0
 27 29  2  0
M  END
$$$$

 Created by Python create_sdf_string function

 30 33  0  0  0  0  0  0  0  0999 V2000
    8.3036    9.8571   18.4133 C   0  0  0  0  0  0  0  0  0  0  0  0
    8.3694    7.6612   22.6703 C   0  0  0  0  0  0  0  0  0  0  0  0
    8.4143    6.6863   16.2273 C   0  0  0  0  0  0  0  0  0  0  0  0
   10.7581    6.5674   21.7636 C   0  0  0  0  0  0  0  0  0  0  0  0
    8.4452    8.7960   19.2958 O   0  0  0  0  0  0  0  0  0  0  0  0
    8.7122    6.7842   24.8569 C   0  0  0  0  0  0  0  0  0  0  0  0
   10.3400    6.1726   14.3081 C   0  0  0  0  0  0  0  0  0  0  0  0
    7.4297    7.5873   24.8962 C   0  0  0  0  0  0  0  0  0  0  0  0
    8.1566   10.0536   16.0516 O   0  0  0  0  0  0  0  0  0  0  0  0
   12.4989    6.2074   20.1776 C   0  0  0  0  0  0  0  0  0  0  0  0
    6.9192    9.1053   20.9073 O   0  0  0  0  0  0  0  0  0  0  0  0
   14.3979    6.0729   18.7784 C   0  0  0  0  0  0  0  0  0  0  0  0
    8.6811    9.5354   16.9998 C   0  0  0  0  0  0  0  0  0  0  0  0
    9.2512    4.2713   13.7653 O   0  0  0  0  0  0  0  0  0  0  0  0
    9.6495    8.6317   16.8332 N   0  0  0  0  0  0  0  0  0  0  0  0
    6.2934    8.6988   23.1988 O   0  0  0  0  0  0  0  0  0  0  0  0
    7.9806    8.6543   20.5437 C   0  0  0  0  0  0  0  0  0  0  0  0
   13.7270    5.7144   19.8610 O   0  0  0  0  0  0  0  0  0  0  0  0
    8.3351    5.5235   15.4478 C   0  0  0  0  0  0  0  0  0  0  0  0
    8.7700    7.8434   21.3915 C   0  0  0  0  0  0  0  0  0  0  0  0
   11.7856    6.8851   19.2401 C   0  0  0  0  0  0  0  0  0  0  0  0
   10.5281    7.4276   19.5649 C   0  0  0  0  0  0  0  0  0  0  0  0
   10.0256    7.2907   20.8484 C   0  0  0  0  0  0  0  0  0  0  0  0
    9.3113    5.3049   14.4911 C   0  0  0  0  0  0  0  0  0  0  0  0
    9.4607    7.5646   16.0139 C   0  0  0  0  0  0  0  0  0  0  0  0
   10.4192    7.3157   15.0955 C   0  0  0  0  0  0  0  0  0  0  0  0
   10.2489    6.4227   23.0218 N   0  0  0  0  0  0  0  0  0  0  0  0
    7.2472    8.0746   23.5050 C   0  0  0  0  0  0  0  0  0  0  0  0
    9.2051    6.9101   23.4604 C   0  0  0  0  0  0  0  0  0  0  0  0
   11.9646    6.0299   21.4251 C   0  0  0  0  0  0  0  0  0  0  0  0
  1  5  1  0
  1 13  1  0
  2 20  2  0
  2 28  1  0
  2 29  1  0
  3 19  4  0
  3 25  4  0
  4 23  4  0
  4 27  1  0
  4 30  4  0
  5 17  1  0
  6  8  1  0
  6 29  1  0
  7 24  4  0
  7 26  4  0
  8 28  1  0
  9 13  2  0
 10 18  1  0
 10 21  4  0
 10 30  4  0
 11 17  2  0
 12 18  1  0
 13 15  1  0
 14 24  1  0
 15 25  1  0
 16 28  2  0
 17 20  1  0
 19 24  4  0
 20 23  1  0
 21 22  4  0
 22 23  4  0
 25 26  4  0
 27 29  2  0
M  END
$$$$

 Created by Python create_sdf_string function

 30 33  0  0  0  0  0  0  0  0999 V2000
    8.3036    9.8571   18.4133 C   0  0  0  0  0  0  0  0  0  0  0  0
    8.3694    7.6612   22.6703 C   0  0  0  0  0  0  0  0  0  0  0  0
    8.4143    6.6863   16.2273 C   0  0  0  0  0  0  0  0  0  0  0  0
   10.7581    6.5674   21.7636 C   0  0  0  0  0  0  0  0  0  0  0  0
    8.4452    8.7960   19.2958 O   0  0  0  0  0  0  0  0  0  0  0  0
    8.7122    6.7842   24.8569 C   0  0  0  0  0  0  0  0  0  0  0  0
   10.3400    6.1726   14.3081 C   0  0  0  0  0  0  0  0  0  0  0  0
    7.4297    7.5873   24.8962 C   0  0  0  0  0  0  0  0  0  0  0  0
    8.1566   10.0536   16.0516 O   0  0  0  0  0  0  0  0  0  0  0  0
   12.4989    6.2074   20.1776 C   0  0  0  0  0  0  0  0  0  0  0  0
    6.9192    9.1053   20.9073 O   0  0  0  0  0  0  0  0  0  0  0  0
   14.3979    6.0729   18.7784 C   0  0  0  0  0  0  0  0  0  0  0  0
    8.6811    9.5354   16.9998 C   0  0  0  0  0  0  0  0  0  0  0  0
    9.2512    4.2713   13.7653 O   0  0  0  0  0  0  0  0  0  0  0  0
    9.6495    8.6317   16.8332 N   0  0  0  0  0  0  0  0  0  0  0  0
    6.2934    8.6988   23.1988 O   0  0  0  0  0  0  0  0  0  0  0  0
    7.9806    8.6543   20.5437 C   0  0  0  0  0  0  0  0  0  0  0  0
   13.7270    5.7144   19.8610 O   0  0  0  0  0  0  0  0  0  0  0  0
    8.3351    5.5235   15.4478 C   0  0  0  0  0  0  0  0  0  0  0  0
    8.7700    7.8434   21.3915 C   0  0  0  0  0  0  0  0  0  0  0  0
   11.7856    6.8851   19.2401 C   0  0  0  0  0  0  0  0  0  0  0  0
   10.5281    7.4276   19.5649 C   0  0  0  0  0  0  0  0  0  0  0  0
   10.0256    7.2907   20.8484 C   0  0  0  0  0  0  0  0  0  0  0  0
    9.3113    5.3049   14.4911 C   0  0  0  0  0  0  0  0  0  0  0  0
    9.4607    7.5646   16.0139 C   0  0  0  0  0  0  0  0  0  0  0  0
   10.4192    7.3157   15.0955 C   0  0  0  0  0  0  0  0  0  0  0  0
   10.2489    6.4227   23.0218 N   0  0  0  0  0  0  0  0  0  0  0  0
    7.2472    8.0746   23.5050 C   0  0  0  0  0  0  0  0  0  0  0  0
    9.2051    6.9101   23.4604 C   0  0  0  0  0  0  0  0  0  0  0  0
   11.9646    6.0299   21.4251 C   0  0  0  0  0  0  0  0  0  0  0  0
  1  5  1  0
  1 13  1  0
  2 20  2  0
  2 28  1  0
  2 29  1  0
  3 19  4  0
  3 25  4  0
  4 23  4  0
  4 27  1  0
  4 30  4  0
  5 17  1  0
  6  8  1  0
  6 29  1  0
  7 24  4  0
  7 26  4  0
  8 28  1  0
  9 13  2  0
 10 18  1  0
 10 21  4  0
 10 30  4  0
 11 17  2  0
 12 18  1  0
 13 15  1  0
 14 24  1  0
 15 25  1  0
 16 28  2  0
 17 20  1  0
 19 24  4  0
 20 23  1  0
 21 22  4  0
 22 23  4  0
 25 26  4  0
 27 29  2  0
M  END
$$$$

 Created by Python create_sdf_string function

 30 33  0  0  0  0  0  0  0  0999 V2000
    8.3036    9.8571   18.4133 C   0  0  0  0  0  0  0  0  0  0  0  0
    8.3694    7.6612   22.6703 C   0  0  0  0  0  0  0  0  0  0  0  0
    8.4143    6.6863   16.2273 C   0  0  0  0  0  0  0  0  0  0  0  0
   10.7581    6.5674   21.7636 C   0  0  0  0  0  0  0  0  0  0  0  0
    8.4452    8.7960   19.2958 O   0  0  0  0  0  0  0  0  0  0  0  0
    8.7122    6.7842   24.8569 C   0  0  0  0  0  0  0  0  0  0  0  0
   10.3400    6.1726   14.3081 C   0  0  0  0  0  0  0  0  0  0  0  0
    7.4297    7.5873   24.8962 C   0  0  0  0  0  0  0  0  0  0  0  0
    8.1566   10.0536   16.0516 O   0  0  0  0  0  0  0  0  0  0  0  0
   12.4989    6.2074   20.1776 C   0  0  0  0  0  0  0  0  0  0  0  0
    6.9192    9.1053   20.9073 O   0  0  0  0  0  0  0  0  0  0  0  0
   14.3979    6.0729   18.7784 C   0  0  0  0  0  0  0  0  0  0  0  0
    8.6811    9.5354   16.9998 C   0  0  0  0  0  0  0  0  0  0  0  0
    9.2512    4.2713   13.7653 O   0  0  0  0  0  0  0  0  0  0  0  0
    9.6495    8.6317   16.8332 N   0  0  0  0  0  0  0  0  0  0  0  0
    6.2934    8.6988   23.1988 O   0  0  0  0  0  0  0  0  0  0  0  0
    7.9806    8.6543   20.5437 C   0  0  0  0  0  0  0  0  0  0  0  0
   13.7270    5.7144   19.8610 O   0  0  0  0  0  0  0  0  0  0  0  0
    8.3351    5.5235   15.4478 C   0  0  0  0  0  0  0  0  0  0  0  0
    8.7700    7.8434   21.3915 C   0  0  0  0  0  0  0  0  0  0  0  0
   11.7856    6.8851   19.2401 C   0  0  0  0  0  0  0  0  0  0  0  0
   10.5281    7.4276   19.5649 C   0  0  0  0  0  0  0  0  0  0  0  0
   10.0256    7.2907   20.8484 C   0  0  0  0  0  0  0  0  0  0  0  0
    9.3113    5.3049   14.4911 C   0  0  0  0  0  0  0  0  0  0  0  0
    9.4607    7.5646   16.0139 C   0  0  0  0  0  0  0  0  0  0  0  0
   10.4192    7.3157   15.0955 C   0  0  0  0  0  0  0  0  0  0  0  0
   10.2489    6.4227   23.0218 N   0  0  0  0  0  0  0  0  0  0  0  0
    7.2472    8.0746   23.5050 C   0  0  0  0  0  0  0  0  0  0  0  0
    9.2051    6.9101   23.4604 C   0  0  0  0  0  0  0  0  0  0  0  0
   11.9646    6.0299   21.4251 C   0  0  0  0  0  0  0  0  0  0  0  0
  1  5  1  0
  1 13  1  0
  2 20  2  0
  2 28  1  0
  2 29  1  0
  3 19  4  0
  3 25  4  0
  4 23  4  0
  4 27  1  0
  4 30  4  0
  5 17  1  0
  6  8  1  0
  6 29  1  0
  7 24  4  0
  7 26  4  0
  8 28  1  0
  9 13  2  0
 10 18  1  0
 10 21  4  0
 10 30  4  0
 11 17  2  0
 12 18  1  0
 13 15  1  0
 14 24  1  0
 15 25  1  0
 16 28  2  0
 17 20  1  0
 19 24  4  0
 20 23  1  0
 21 22  4  0
 22 23  4  0
 25 26  4  0
 27 29  2  0
M  END
$$$$

 Created by Python create_sdf_string function

 30 33  0  0  0  0  0  0  0  0999 V2000
    8.3036    9.8571   18.4133 C   0  0  0  0  0  0  0  0  0  0  0  0
    8.3694    7.6612   22.6703 C   0  0  0  0  0  0  0  0  0  0  0  0
    8.4143    6.6863   16.2273 C   0  0  0  0  0  0  0  0  0  0  0  0
   10.7581    6.5674   21.7636 C   0  0  0  0  0  0  0  0  0  0  0  0
    8.4452    8.7960   19.2958 O   0  0  0  0  0  0  0  0  0  0  0  0
    8.7122    6.7842   24.8569 C   0  0  0  0  0  0  0  0  0  0  0  0
   10.3400    6.1726   14.3081 C   0  0  0  0  0  0  0  0  0  0  0  0
    7.4297    7.5873   24.8962 C   0  0  0  0  0  0  0  0  0  0  0  0
    8.1566   10.0536   16.0516 O   0  0  0  0  0  0  0  0  0  0  0  0
   12.4989    6.2074   20.1776 C   0  0  0  0  0  0  0  0  0  0  0  0
    6.9192    9.1053   20.9073 O   0  0  0  0  0  0  0  0  0  0  0  0
   14.3979    6.0729   18.7784 C   0  0  0  0  0  0  0  0  0  0  0  0
    8.6811    9.5354   16.9998 C   0  0  0  0  0  0  0  0  0  0  0  0
    9.2512    4.2713   13.7653 O   0  0  0  0  0  0  0  0  0  0  0  0
    9.6495    8.6317   16.8332 N   0  0  0  0  0  0  0  0  0  0  0  0
    6.2934    8.6988   23.1988 O   0  0  0  0  0  0  0  0  0  0  0  0
    7.9806    8.6543   20.5437 C   0  0  0  0  0  0  0  0  0  0  0  0
   13.7270    5.7144   19.8610 O   0  0  0  0  0  0  0  0  0  0  0  0
    8.3351    5.5235   15.4478 C   0  0  0  0  0  0  0  0  0  0  0  0
    8.7700    7.8434   21.3915 C   0  0  0  0  0  0  0  0  0  0  0  0
   11.7856    6.8851   19.2401 C   0  0  0  0  0  0  0  0  0  0  0  0
   10.5281    7.4276   19.5649 C   0  0  0  0  0  0  0  0  0  0  0  0
   10.0256    7.2907   20.8484 C   0  0  0  0  0  0  0  0  0  0  0  0
    9.3113    5.3049   14.4911 C   0  0  0  0  0  0  0  0  0  0  0  0
    9.4607    7.5646   16.0139 C   0  0  0  0  0  0  0  0  0  0  0  0
   10.4192    7.3157   15.0955 C   0  0  0  0  0  0  0  0  0  0  0  0
   10.2489    6.4227   23.0218 N   0  0  0  0  0  0  0  0  0  0  0  0
    7.2472    8.0746   23.5050 C   0  0  0  0  0  0  0  0  0  0  0  0
    9.2051    6.9101   23.4604 C   0  0  0  0  0  0  0  0  0  0  0  0
   11.9646    6.0299   21.4251 C   0  0  0  0  0  0  0  0  0  0  0  0
  1  5  1  0
  1 13  1  0
  2 20  2  0
  2 28  1  0
  2 29  1  0
  3 19  4  0
  3 25  4  0
  4 23  4  0
  4 27  1  0
  4 30  4  0
  5 17  1  0
  6  8  1  0
  6 29  1  0
  7 24  4  0
  7 26  4  0
  8 28  1  0
  9 13  2  0
 10 18  1  0
 10 21  4  0
 10 30  4  0
 11 17  2  0
 12 18  1  0
 13 15  1  0
 14 24  1  0
 15 25  1  0
 16 28  2  0
 17 20  1  0
 19 24  4  0
 20 23  1  0
 21 22  4  0
 22 23  4  0
 25 26  4  0
 27 29  2  0
M  END
$$$$

 Created by Python create_sdf_string function

 30 33  0  0  0  0  0  0  0  0999 V2000
    8.3036    9.8571   18.4133 C   0  0  0  0  0  0  0  0  0  0  0  0
    8.3694    7.6612   22.6703 C   0  0  0  0  0  0  0  0  0  0  0  0
    8.4143    6.6863   16.2273 C   0  0  0  0  0  0  0  0  0  0  0  0
   10.7581    6.5674   21.7636 C   0  0  0  0  0  0  0  0  0  0  0  0
    8.4452    8.7960   19.2958 O   0  0  0  0  0  0  0  0  0  0  0  0
    8.7122    6.7842   24.8569 C   0  0  0  0  0  0  0  0  0  0  0  0
   10.3400    6.1726   14.3081 C   0  0  0  0  0  0  0  0  0  0  0  0
    7.4297    7.5873   24.8962 C   0  0  0  0  0  0  0  0  0  0  0  0
    8.1566   10.0536   16.0516 O   0  0  0  0  0  0  0  0  0  0  0  0
   12.4989    6.2074   20.1776 C   0  0  0  0  0  0  0  0  0  0  0  0
    6.9192    9.1053   20.9073 O   0  0  0  0  0  0  0  0  0  0  0  0
   14.3979    6.0729   18.7784 C   0  0  0  0  0  0  0  0  0  0  0  0
    8.6811    9.5354   16.9998 C   0  0  0  0  0  0  0  0  0  0  0  0
    9.2512    4.2713   13.7653 O   0  0  0  0  0  0  0  0  0  0  0  0
    9.6495    8.6317   16.8332 N   0  0  0  0  0  0  0  0  0  0  0  0
    6.2934    8.6988   23.1988 O   0  0  0  0  0  0  0  0  0  0  0  0
    7.9806    8.6543   20.5437 C   0  0  0  0  0  0  0  0  0  0  0  0
   13.7270    5.7144   19.8610 O   0  0  0  0  0  0  0  0  0  0  0  0
    8.3351    5.5235   15.4478 C   0  0  0  0  0  0  0  0  0  0  0  0
    8.7700    7.8434   21.3915 C   0  0  0  0  0  0  0  0  0  0  0  0
   11.7856    6.8851   19.2401 C   0  0  0  0  0  0  0  0  0  0  0  0
   10.5281    7.4276   19.5649 C   0  0  0  0  0  0  0  0  0  0  0  0
   10.0256    7.2907   20.8484 C   0  0  0  0  0  0  0  0  0  0  0  0
    9.3113    5.3049   14.4911 C   0  0  0  0  0  0  0  0  0  0  0  0
    9.4607    7.5646   16.0139 C   0  0  0  0  0  0  0  0  0  0  0  0
   10.4192    7.3157   15.0955 C   0  0  0  0  0  0  0  0  0  0  0  0
   10.2489    6.4227   23.0218 N   0  0  0  0  0  0  0  0  0  0  0  0
    7.2472    8.0746   23.5050 C   0  0  0  0  0  0  0  0  0  0  0  0
    9.2051    6.9101   23.4604 C   0  0  0  0  0  0  0  0  0  0  0  0
   11.9646    6.0299   21.4251 C   0  0  0  0  0  0  0  0  0  0  0  0
  1  5  1  0
  1 13  1  0
  2 20  2  0
  2 28  1  0
  2 29  1  0
  3 19  4  0
  3 25  4  0
  4 23  4  0
  4 27  1  0
  4 30  4  0
  5 17  1  0
  6  8  1  0
  6 29  1  0
  7 24  4  0
  7 26  4  0
  8 28  1  0
  9 13  2  0
 10 18  1  0
 10 21  4  0
 10 30  4  0
 11 17  2  0
 12 18  1  0
 13 15  1  0
 14 24  1  0
 15 25  1  0
 16 28  2  0
 17 20  1  0
 19 24  4  0
 20 23  1  0
 21 22  4  0
 22 23  4  0
 25 26  4  0
 27 29  2  0
M  END
$$$$

 Created by Python create_sdf_string function

 30 33  0  0  0  0  0  0  0  0999 V2000
    8.3036    9.8571   18.4133 C   0  0  0  0  0  0  0  0  0  0  0  0
    8.3694    7.6612   22.6703 C   0  0  0  0  0  0  0  0  0  0  0  0
    8.4143    6.6863   16.2273 C   0  0  0  0  0  0  0  0  0  0  0  0
   10.7581    6.5674   21.7636 C   0  0  0  0  0  0  0  0  0  0  0  0
    8.4452    8.7960   19.2958 O   0  0  0  0  0  0  0  0  0  0  0  0
    8.7122    6.7842   24.8569 C   0  0  0  0  0  0  0  0  0  0  0  0
   10.3400    6.1726   14.3081 C   0  0  0  0  0  0  0  0  0  0  0  0
    7.4297    7.5873   24.8962 C   0  0  0  0  0  0  0  0  0  0  0  0
    8.1566   10.0536   16.0516 O   0  0  0  0  0  0  0  0  0  0  0  0
   12.4989    6.2074   20.1776 C   0  0  0  0  0  0  0  0  0  0  0  0
    6.9192    9.1053   20.9073 O   0  0  0  0  0  0  0  0  0  0  0  0
   14.3979    6.0729   18.7784 C   0  0  0  0  0  0  0  0  0  0  0  0
    8.6811    9.5354   16.9998 C   0  0  0  0  0  0  0  0  0  0  0  0
    9.2512    4.2713   13.7653 O   0  0  0  0  0  0  0  0  0  0  0  0
    9.6495    8.6317   16.8332 N   0  0  0  0  0  0  0  0  0  0  0  0
    6.2934    8.6988   23.1988 O   0  0  0  0  0  0  0  0  0  0  0  0
    7.9806    8.6543   20.5437 C   0  0  0  0  0  0  0  0  0  0  0  0
   13.7270    5.7144   19.8610 O   0  0  0  0  0  0  0  0  0  0  0  0
    8.3351    5.5235   15.4478 C   0  0  0  0  0  0  0  0  0  0  0  0
    8.7700    7.8434   21.3915 C   0  0  0  0  0  0  0  0  0  0  0  0
   11.7856    6.8851   19.2401 C   0  0  0  0  0  0  0  0  0  0  0  0
   10.5281    7.4276   19.5649 C   0  0  0  0  0  0  0  0  0  0  0  0
   10.0256    7.2907   20.8484 C   0  0  0  0  0  0  0  0  0  0  0  0
    9.3113    5.3049   14.4911 C   0  0  0  0  0  0  0  0  0  0  0  0
    9.4607    7.5646   16.0139 C   0  0  0  0  0  0  0  0  0  0  0  0
   10.4192    7.3157   15.0955 C   0  0  0  0  0  0  0  0  0  0  0  0
   10.2489    6.4227   23.0218 N   0  0  0  0  0  0  0  0  0  0  0  0
    7.2472    8.0746   23.5050 C   0  0  0  0  0  0  0  0  0  0  0  0
    9.2051    6.9101   23.4604 C   0  0  0  0  0  0  0  0  0  0  0  0
   11.9646    6.0299   21.4251 C   0  0  0  0  0  0  0  0  0  0  0  0
  1  5  1  0
  1 13  1  0
  2 20  2  0
  2 28  1  0
  2 29  1  0
  3 19  4  0
  3 25  4  0
  4 23  4  0
  4 27  1  0
  4 30  4  0
  5 17  1  0
  6  8  1  0
  6 29  1  0
  7 24  4  0
  7 26  4  0
  8 28  1  0
  9 13  2  0
 10 18  1  0
 10 21  4  0
 10 30  4  0
 11 17  2  0
 12 18  1  0
 13 15  1  0
 14 24  1  0
 15 25  1  0
 16 28  2  0
 17 20  1  0
 19 24  4  0
 20 23  1  0
 21 22  4  0
 22 23  4  0
 25 26  4  0
 27 29  2  0
M  END
$$$$

 Created by Python create_sdf_string function

 30 33  0  0  0  0  0  0  0  0999 V2000
    8.3036    9.8571   18.4133 C   0  0  0  0  0  0  0  0  0  0  0  0
    8.3694    7.6612   22.6703 C   0  0  0  0  0  0  0  0  0  0  0  0
    8.4143    6.6863   16.2273 C   0  0  0  0  0  0  0  0  0  0  0  0
   10.7581    6.5674   21.7636 C   0  0  0  0  0  0  0  0  0  0  0  0
    8.4452    8.7960   19.2958 O   0  0  0  0  0  0  0  0  0  0  0  0
    8.7122    6.7842   24.8569 C   0  0  0  0  0  0  0  0  0  0  0  0
   10.3400    6.1726   14.3081 C   0  0  0  0  0  0  0  0  0  0  0  0
    7.4297    7.5873   24.8962 C   0  0  0  0  0  0  0  0  0  0  0  0
    8.1566   10.0536   16.0516 O   0  0  0  0  0  0  0  0  0  0  0  0
   12.4989    6.2074   20.1776 C   0  0  0  0  0  0  0  0  0  0  0  0
    6.9192    9.1053   20.9073 O   0  0  0  0  0  0  0  0  0  0  0  0
   14.3979    6.0729   18.7784 C   0  0  0  0  0  0  0  0  0  0  0  0
    8.6811    9.5354   16.9998 C   0  0  0  0  0  0  0  0  0  0  0  0
    9.2512    4.2713   13.7653 O   0  0  0  0  0  0  0  0  0  0  0  0
    9.6495    8.6317   16.8332 N   0  0  0  0  0  0  0  0  0  0  0  0
    6.2934    8.6988   23.1988 O   0  0  0  0  0  0  0  0  0  0  0  0
    7.9806    8.6543   20.5437 C   0  0  0  0  0  0  0  0  0  0  0  0
   13.7270    5.7144   19.8610 O   0  0  0  0  0  0  0  0  0  0  0  0
    8.3351    5.5235   15.4478 C   0  0  0  0  0  0  0  0  0  0  0  0
    8.7700    7.8434   21.3915 C   0  0  0  0  0  0  0  0  0  0  0  0
   11.7856    6.8851   19.2401 C   0  0  0  0  0  0  0  0  0  0  0  0
   10.5281    7.4276   19.5649 C   0  0  0  0  0  0  0  0  0  0  0  0
   10.0256    7.2907   20.8484 C   0  0  0  0  0  0  0  0  0  0  0  0
    9.3113    5.3049   14.4911 C   0  0  0  0  0  0  0  0  0  0  0  0
    9.4607    7.5646   16.0139 C   0  0  0  0  0  0  0  0  0  0  0  0
   10.4192    7.3157   15.0955 C   0  0  0  0  0  0  0  0  0  0  0  0
   10.2489    6.4227   23.0218 N   0  0  0  0  0  0  0  0  0  0  0  0
    7.2472    8.0746   23.5050 C   0  0  0  0  0  0  0  0  0  0  0  0
    9.2051    6.9101   23.4604 C   0  0  0  0  0  0  0  0  0  0  0  0
   11.9646    6.0299   21.4251 C   0  0  0  0  0  0  0  0  0  0  0  0
  1  5  1  0
  1 13  1  0
  2 20  2  0
  2 28  1  0
  2 29  1  0
  3 19  4  0
  3 25  4  0
  4 23  4  0
  4 27  1  0
  4 30  4  0
  5 17  1  0
  6  8  1  0
  6 29  1  0
  7 24  4  0
  7 26  4  0
  8 28  1  0
  9 13  2  0
 10 18  1  0
 10 21  4  0
 10 30  4  0
 11 17  2  0
 12 18  1  0
 13 15  1  0
 14 24  1  0
 15 25  1  0
 16 28  2  0
 17 20  1  0
 19 24  4  0
 20 23  1  0
 21 22  4  0
 22 23  4  0
 25 26  4  0
 27 29  2  0
M  END
$$$$

 Created by Python create_sdf_string function

 30 33  0  0  0  0  0  0  0  0999 V2000
    8.3036    9.8571   18.4133 C   0  0  0  0  0  0  0  0  0  0  0  0
    8.3694    7.6612   22.6703 C   0  0  0  0  0  0  0  0  0  0  0  0
    8.4143    6.6863   16.2273 C   0  0  0  0  0  0  0  0  0  0  0  0
   10.7581    6.5674   21.7636 C   0  0  0  0  0  0  0  0  0  0  0  0
    8.4452    8.7960   19.2958 O   0  0  0  0  0  0  0  0  0  0  0  0
    8.7122    6.7842   24.8569 C   0  0  0  0  0  0  0  0  0  0  0  0
   10.3400    6.1726   14.3081 C   0  0  0  0  0  0  0  0  0  0  0  0
    7.4297    7.5873   24.8962 C   0  0  0  0  0  0  0  0  0  0  0  0
    8.1566   10.0536   16.0516 O   0  0  0  0  0  0  0  0  0  0  0  0
   12.4989    6.2074   20.1776 C   0  0  0  0  0  0  0  0  0  0  0  0
    6.9192    9.1053   20.9073 O   0  0  0  0  0  0  0  0  0  0  0  0
   14.3979    6.0729   18.7784 C   0  0  0  0  0  0  0  0  0  0  0  0
    8.6811    9.5354   16.9998 C   0  0  0  0  0  0  0  0  0  0  0  0
    9.2512    4.2713   13.7653 O   0  0  0  0  0  0  0  0  0  0  0  0
    9.6495    8.6317   16.8332 N   0  0  0  0  0  0  0  0  0  0  0  0
    6.2934    8.6988   23.1988 O   0  0  0  0  0  0  0  0  0  0  0  0
    7.9806    8.6543   20.5437 C   0  0  0  0  0  0  0  0  0  0  0  0
   13.7270    5.7144   19.8610 O   0  0  0  0  0  0  0  0  0  0  0  0
    8.3351    5.5235   15.4478 C   0  0  0  0  0  0  0  0  0  0  0  0
    8.7700    7.8434   21.3915 C   0  0  0  0  0  0  0  0  0  0  0  0
   11.7856    6.8851   19.2401 C   0  0  0  0  0  0  0  0  0  0  0  0
   10.5281    7.4276   19.5649 C   0  0  0  0  0  0  0  0  0  0  0  0
   10.0256    7.2907   20.8484 C   0  0  0  0  0  0  0  0  0  0  0  0
    9.3113    5.3049   14.4911 C   0  0  0  0  0  0  0  0  0  0  0  0
    9.4607    7.5646   16.0139 C   0  0  0  0  0  0  0  0  0  0  0  0
   10.4192    7.3157   15.0955 C   0  0  0  0  0  0  0  0  0  0  0  0
   10.2489    6.4227   23.0218 N   0  0  0  0  0  0  0  0  0  0  0  0
    7.2472    8.0746   23.5050 C   0  0  0  0  0  0  0  0  0  0  0  0
    9.2051    6.9101   23.4604 C   0  0  0  0  0  0  0  0  0  0  0  0
   11.9646    6.0299   21.4251 C   0  0  0  0  0  0  0  0  0  0  0  0
  1  5  1  0
  1 13  1  0
  2 20  2  0
  2 28  1  0
  2 29  1  0
  3 19  4  0
  3 25  4  0
  4 23  4  0
  4 27  1  0
  4 30  4  0
  5 17  1  0
  6  8  1  0
  6 29  1  0
  7 24  4  0
  7 26  4  0
  8 28  1  0
  9 13  2  0
 10 18  1  0
 10 21  4  0
 10 30  4  0
 11 17  2  0
 12 18  1  0
 13 15  1  0
 14 24  1  0
 15 25  1  0
 16 28  2  0
 17 20  1  0
 19 24  4  0
 20 23  1  0
 21 22  4  0
 22 23  4  0
 25 26  4  0
 27 29  2  0
M  END
$$$$

 Created by Python create_sdf_string function

 30 33  0  0  0  0  0  0  0  0999 V2000
    8.3036    9.8571   18.4133 C   0  0  0  0  0  0  0  0  0  0  0  0
    8.3694    7.6612   22.6703 C   0  0  0  0  0  0  0  0  0  0  0  0
    8.4143    6.6863   16.2273 C   0  0  0  0  0  0  0  0  0  0  0  0
   10.7581    6.5674   21.7636 C   0  0  0  0  0  0  0  0  0  0  0  0
    8.4452    8.7960   19.2958 O   0  0  0  0  0  0  0  0  0  0  0  0
    8.7122    6.7842   24.8569 C   0  0  0  0  0  0  0  0  0  0  0  0
   10.3400    6.1726   14.3081 C   0  0  0  0  0  0  0  0  0  0  0  0
    7.4297    7.5873   24.8962 C   0  0  0  0  0  0  0  0  0  0  0  0
    8.1566   10.0536   16.0516 O   0  0  0  0  0  0  0  0  0  0  0  0
   12.4989    6.2074   20.1776 C   0  0  0  0  0  0  0  0  0  0  0  0
    6.9192    9.1053   20.9073 O   0  0  0  0  0  0  0  0  0  0  0  0
   14.3979    6.0729   18.7784 C   0  0  0  0  0  0  0  0  0  0  0  0
    8.6811    9.5354   16.9998 C   0  0  0  0  0  0  0  0  0  0  0  0
    9.2512    4.2713   13.7653 O   0  0  0  0  0  0  0  0  0  0  0  0
    9.6495    8.6317   16.8332 N   0  0  0  0  0  0  0  0  0  0  0  0
    6.2934    8.6988   23.1988 O   0  0  0  0  0  0  0  0  0  0  0  0
    7.9806    8.6543   20.5437 C   0  0  0  0  0  0  0  0  0  0  0  0
   13.7270    5.7144   19.8610 O   0  0  0  0  0  0  0  0  0  0  0  0
    8.3351    5.5235   15.4478 C   0  0  0  0  0  0  0  0  0  0  0  0
    8.7700    7.8434   21.3915 C   0  0  0  0  0  0  0  0  0  0  0  0
   11.7856    6.8851   19.2401 C   0  0  0  0  0  0  0  0  0  0  0  0
   10.5281    7.4276   19.5649 C   0  0  0  0  0  0  0  0  0  0  0  0
   10.0256    7.2907   20.8484 C   0  0  0  0  0  0  0  0  0  0  0  0
    9.3113    5.3049   14.4911 C   0  0  0  0  0  0  0  0  0  0  0  0
    9.4607    7.5646   16.0139 C   0  0  0  0  0  0  0  0  0  0  0  0
   10.4192    7.3157   15.0955 C   0  0  0  0  0  0  0  0  0  0  0  0
   10.2489    6.4227   23.0218 N   0  0  0  0  0  0  0  0  0  0  0  0
    7.2472    8.0746   23.5050 C   0  0  0  0  0  0  0  0  0  0  0  0
    9.2051    6.9101   23.4604 C   0  0  0  0  0  0  0  0  0  0  0  0
   11.9646    6.0299   21.4251 C   0  0  0  0  0  0  0  0  0  0  0  0
  1  5  1  0
  1 13  1  0
  2 20  2  0
  2 28  1  0
  2 29  1  0
  3 19  4  0
  3 25  4  0
  4 23  4  0
  4 27  1  0
  4 30  4  0
  5 17  1  0
  6  8  1  0
  6 29  1  0
  7 24  4  0
  7 26  4  0
  8 28  1  0
  9 13  2  0
 10 18  1  0
 10 21  4  0
 10 30  4  0
 11 17  2  0
 12 18  1  0
 13 15  1  0
 14 24  1  0
 15 25  1  0
 16 28  2  0
 17 20  1  0
 19 24  4  0
 20 23  1  0
 21 22  4  0
 22 23  4  0
 25 26  4  0
 27 29  2  0
M  END
$$$$

 Created by Python create_sdf_string function

 30 33  0  0  0  0  0  0  0  0999 V2000
    8.3036    9.8571   18.4133 C   0  0  0  0  0  0  0  0  0  0  0  0
    8.3694    7.6612   22.6703 C   0  0  0  0  0  0  0  0  0  0  0  0
    8.4143    6.6863   16.2273 C   0  0  0  0  0  0  0  0  0  0  0  0
   10.7581    6.5674   21.7636 C   0  0  0  0  0  0  0  0  0  0  0  0
    8.4452    8.7960   19.2958 O   0  0  0  0  0  0  0  0  0  0  0  0
    8.7122    6.7842   24.8569 C   0  0  0  0  0  0  0  0  0  0  0  0
   10.3400    6.1726   14.3081 C   0  0  0  0  0  0  0  0  0  0  0  0
    7.4297    7.5873   24.8962 C   0  0  0  0  0  0  0  0  0  0  0  0
    8.1566   10.0536   16.0516 O   0  0  0  0  0  0  0  0  0  0  0  0
   12.4989    6.2074   20.1776 C   0  0  0  0  0  0  0  0  0  0  0  0
    6.9192    9.1053   20.9073 O   0  0  0  0  0  0  0  0  0  0  0  0
   14.3979    6.0729   18.7784 C   0  0  0  0  0  0  0  0  0  0  0  0
    8.6811    9.5354   16.9998 C   0  0  0  0  0  0  0  0  0  0  0  0
    9.2512    4.2713   13.7653 O   0  0  0  0  0  0  0  0  0  0  0  0
    9.6495    8.6317   16.8332 N   0  0  0  0  0  0  0  0  0  0  0  0
    6.2934    8.6988   23.1988 O   0  0  0  0  0  0  0  0  0  0  0  0
    7.9806    8.6543   20.5437 C   0  0  0  0  0  0  0  0  0  0  0  0
   13.7270    5.7144   19.8610 O   0  0  0  0  0  0  0  0  0  0  0  0
    8.3351    5.5235   15.4478 C   0  0  0  0  0  0  0  0  0  0  0  0
    8.7700    7.8434   21.3915 C   0  0  0  0  0  0  0  0  0  0  0  0
   11.7856    6.8851   19.2401 C   0  0  0  0  0  0  0  0  0  0  0  0
   10.5281    7.4276   19.5649 C   0  0  0  0  0  0  0  0  0  0  0  0
   10.0256    7.2907   20.8484 C   0  0  0  0  0  0  0  0  0  0  0  0
    9.3113    5.3049   14.4911 C   0  0  0  0  0  0  0  0  0  0  0  0
    9.4607    7.5646   16.0139 C   0  0  0  0  0  0  0  0  0  0  0  0
   10.4192    7.3157   15.0955 C   0  0  0  0  0  0  0  0  0  0  0  0
   10.2489    6.4227   23.0218 N   0  0  0  0  0  0  0  0  0  0  0  0
    7.2472    8.0746   23.5050 C   0  0  0  0  0  0  0  0  0  0  0  0
    9.2051    6.9101   23.4604 C   0  0  0  0  0  0  0  0  0  0  0  0
   11.9646    6.0299   21.4251 C   0  0  0  0  0  0  0  0  0  0  0  0
  1  5  1  0
  1 13  1  0
  2 20  2  0
  2 28  1  0
  2 29  1  0
  3 19  4  0
  3 25  4  0
  4 23  4  0
  4 27  1  0
  4 30  4  0
  5 17  1  0
  6  8  1  0
  6 29  1  0
  7 24  4  0
  7 26  4  0
  8 28  1  0
  9 13  2  0
 10 18  1  0
 10 21  4  0
 10 30  4  0
 11 17  2  0
 12 18  1  0
 13 15  1  0
 14 24  1  0
 15 25  1  0
 16 28  2  0
 17 20  1  0
 19 24  4  0
 20 23  1  0
 21 22  4  0
 22 23  4  0
 25 26  4  0
 27 29  2  0
M  END
$$$$

 Created by Python create_sdf_string function

 30 33  0  0  0  0  0  0  0  0999 V2000
    8.3036    9.8571   18.4133 C   0  0  0  0  0  0  0  0  0  0  0  0
    8.3694    7.6612   22.6703 C   0  0  0  0  0  0  0  0  0  0  0  0
    8.4143    6.6863   16.2273 C   0  0  0  0  0  0  0  0  0  0  0  0
   10.7581    6.5674   21.7636 C   0  0  0  0  0  0  0  0  0  0  0  0
    8.4452    8.7960   19.2958 O   0  0  0  0  0  0  0  0  0  0  0  0
    8.7122    6.7842   24.8569 C   0  0  0  0  0  0  0  0  0  0  0  0
   10.3400    6.1726   14.3081 C   0  0  0  0  0  0  0  0  0  0  0  0
    7.4297    7.5873   24.8962 C   0  0  0  0  0  0  0  0  0  0  0  0
    8.1566   10.0536   16.0516 O   0  0  0  0  0  0  0  0  0  0  0  0
   12.4989    6.2074   20.1776 C   0  0  0  0  0  0  0  0  0  0  0  0
    6.9192    9.1053   20.9073 O   0  0  0  0  0  0  0  0  0  0  0  0
   14.3979    6.0729   18.7784 C   0  0  0  0  0  0  0  0  0  0  0  0
    8.6811    9.5354   16.9998 C   0  0  0  0  0  0  0  0  0  0  0  0
    9.2512    4.2713   13.7653 O   0  0  0  0  0  0  0  0  0  0  0  0
    9.6495    8.6317   16.8332 N   0  0  0  0  0  0  0  0  0  0  0  0
    6.2934    8.6988   23.1988 O   0  0  0  0  0  0  0  0  0  0  0  0
    7.9806    8.6543   20.5437 C   0  0  0  0  0  0  0  0  0  0  0  0
   13.7270    5.7144   19.8610 O   0  0  0  0  0  0  0  0  0  0  0  0
    8.3351    5.5235   15.4478 C   0  0  0  0  0  0  0  0  0  0  0  0
    8.7700    7.8434   21.3915 C   0  0  0  0  0  0  0  0  0  0  0  0
   11.7856    6.8851   19.2401 C   0  0  0  0  0  0  0  0  0  0  0  0
   10.5281    7.4276   19.5649 C   0  0  0  0  0  0  0  0  0  0  0  0
   10.0256    7.2907   20.8484 C   0  0  0  0  0  0  0  0  0  0  0  0
    9.3113    5.3049   14.4911 C   0  0  0  0  0  0  0  0  0  0  0  0
    9.4607    7.5646   16.0139 C   0  0  0  0  0  0  0  0  0  0  0  0
   10.4192    7.3157   15.0955 C   0  0  0  0  0  0  0  0  0  0  0  0
   10.2489    6.4227   23.0218 N   0  0  0  0  0  0  0  0  0  0  0  0
    7.2472    8.0746   23.5050 C   0  0  0  0  0  0  0  0  0  0  0  0
    9.2051    6.9101   23.4604 C   0  0  0  0  0  0  0  0  0  0  0  0
   11.9646    6.0299   21.4251 C   0  0  0  0  0  0  0  0  0  0  0  0
  1  5  1  0
  1 13  1  0
  2 20  2  0
  2 28  1  0
  2 29  1  0
  3 19  4  0
  3 25  4  0
  4 23  4  0
  4 27  1  0
  4 30  4  0
  5 17  1  0
  6  8  1  0
  6 29  1  0
  7 24  4  0
  7 26  4  0
  8 28  1  0
  9 13  2  0
 10 18  1  0
 10 21  4  0
 10 30  4  0
 11 17  2  0
 12 18  1  0
 13 15  1  0
 14 24  1  0
 15 25  1  0
 16 28  2  0
 17 20  1  0
 19 24  4  0
 20 23  1  0
 21 22  4  0
 22 23  4  0
 25 26  4  0
 27 29  2  0
M  END
$$$$

 Created by Python create_sdf_string function

 30 33  0  0  0  0  0  0  0  0999 V2000
    8.3036    9.8571   18.4133 C   0  0  0  0  0  0  0  0  0  0  0  0
    8.3694    7.6612   22.6703 C   0  0  0  0  0  0  0  0  0  0  0  0
    8.4143    6.6863   16.2273 C   0  0  0  0  0  0  0  0  0  0  0  0
   10.7581    6.5674   21.7636 C   0  0  0  0  0  0  0  0  0  0  0  0
    8.4452    8.7960   19.2958 O   0  0  0  0  0  0  0  0  0  0  0  0
    8.7122    6.7842   24.8569 C   0  0  0  0  0  0  0  0  0  0  0  0
   10.3400    6.1726   14.3081 C   0  0  0  0  0  0  0  0  0  0  0  0
    7.4297    7.5873   24.8962 C   0  0  0  0  0  0  0  0  0  0  0  0
    8.1566   10.0536   16.0516 O   0  0  0  0  0  0  0  0  0  0  0  0
   12.4989    6.2074   20.1776 C   0  0  0  0  0  0  0  0  0  0  0  0
    6.9192    9.1053   20.9073 O   0  0  0  0  0  0  0  0  0  0  0  0
   14.3979    6.0729   18.7784 C   0  0  0  0  0  0  0  0  0  0  0  0
    8.6811    9.5354   16.9998 C   0  0  0  0  0  0  0  0  0  0  0  0
    9.2512    4.2713   13.7653 O   0  0  0  0  0  0  0  0  0  0  0  0
    9.6495    8.6317   16.8332 N   0  0  0  0  0  0  0  0  0  0  0  0
    6.2934    8.6988   23.1988 O   0  0  0  0  0  0  0  0  0  0  0  0
    7.9806    8.6543   20.5437 C   0  0  0  0  0  0  0  0  0  0  0  0
   13.7270    5.7144   19.8610 O   0  0  0  0  0  0  0  0  0  0  0  0
    8.3351    5.5235   15.4478 C   0  0  0  0  0  0  0  0  0  0  0  0
    8.7700    7.8434   21.3915 C   0  0  0  0  0  0  0  0  0  0  0  0
   11.7856    6.8851   19.2401 C   0  0  0  0  0  0  0  0  0  0  0  0
   10.5281    7.4276   19.5649 C   0  0  0  0  0  0  0  0  0  0  0  0
   10.0256    7.2907   20.8484 C   0  0  0  0  0  0  0  0  0  0  0  0
    9.3113    5.3049   14.4911 C   0  0  0  0  0  0  0  0  0  0  0  0
    9.4607    7.5646   16.0139 C   0  0  0  0  0  0  0  0  0  0  0  0
   10.4192    7.3157   15.0955 C   0  0  0  0  0  0  0  0  0  0  0  0
   10.2489    6.4227   23.0218 N   0  0  0  0  0  0  0  0  0  0  0  0
    7.2472    8.0746   23.5050 C   0  0  0  0  0  0  0  0  0  0  0  0
    9.2051    6.9101   23.4604 C   0  0  0  0  0  0  0  0  0  0  0  0
   11.9646    6.0299   21.4251 C   0  0  0  0  0  0  0  0  0  0  0  0
  1  5  1  0
  1 13  1  0
  2 20  2  0
  2 28  1  0
  2 29  1  0
  3 19  4  0
  3 25  4  0
  4 23  4  0
  4 27  1  0
  4 30  4  0
  5 17  1  0
  6  8  1  0
  6 29  1  0
  7 24  4  0
  7 26  4  0
  8 28  1  0
  9 13  2  0
 10 18  1  0
 10 21  4  0
 10 30  4  0
 11 17  2  0
 12 18  1  0
 13 15  1  0
 14 24  1  0
 15 25  1  0
 16 28  2  0
 17 20  1  0
 19 24  4  0
 20 23  1  0
 21 22  4  0
 22 23  4  0
 25 26  4  0
 27 29  2  0
M  END
$$$$

 Created by Python create_sdf_string function

 30 33  0  0  0  0  0  0  0  0999 V2000
    8.3036    9.8571   18.4133 C   0  0  0  0  0  0  0  0  0  0  0  0
    8.3694    7.6612   22.6703 C   0  0  0  0  0  0  0  0  0  0  0  0
    8.4143    6.6863   16.2273 C   0  0  0  0  0  0  0  0  0  0  0  0
   10.7581    6.5674   21.7636 C   0  0  0  0  0  0  0  0  0  0  0  0
    8.4452    8.7960   19.2958 O   0  0  0  0  0  0  0  0  0  0  0  0
    8.7122    6.7842   24.8569 C   0  0  0  0  0  0  0  0  0  0  0  0
   10.3400    6.1726   14.3081 C   0  0  0  0  0  0  0  0  0  0  0  0
    7.4297    7.5873   24.8962 C   0  0  0  0  0  0  0  0  0  0  0  0
    8.1566   10.0536   16.0516 O   0  0  0  0  0  0  0  0  0  0  0  0
   12.4989    6.2074   20.1776 C   0  0  0  0  0  0  0  0  0  0  0  0
    6.9192    9.1053   20.9073 O   0  0  0  0  0  0  0  0  0  0  0  0
   14.3979    6.0729   18.7784 C   0  0  0  0  0  0  0  0  0  0  0  0
    8.6811    9.5354   16.9998 C   0  0  0  0  0  0  0  0  0  0  0  0
    9.2512    4.2713   13.7653 O   0  0  0  0  0  0  0  0  0  0  0  0
    9.6495    8.6317   16.8332 N   0  0  0  0  0  0  0  0  0  0  0  0
    6.2934    8.6988   23.1988 O   0  0  0  0  0  0  0  0  0  0  0  0
    7.9806    8.6543   20.5437 C   0  0  0  0  0  0  0  0  0  0  0  0
   13.7270    5.7144   19.8610 O   0  0  0  0  0  0  0  0  0  0  0  0
    8.3351    5.5235   15.4478 C   0  0  0  0  0  0  0  0  0  0  0  0
    8.7700    7.8434   21.3915 C   0  0  0  0  0  0  0  0  0  0  0  0
   11.7856    6.8851   19.2401 C   0  0  0  0  0  0  0  0  0  0  0  0
   10.5281    7.4276   19.5649 C   0  0  0  0  0  0  0  0  0  0  0  0
   10.0256    7.2907   20.8484 C   0  0  0  0  0  0  0  0  0  0  0  0
    9.3113    5.3049   14.4911 C   0  0  0  0  0  0  0  0  0  0  0  0
    9.4607    7.5646   16.0139 C   0  0  0  0  0  0  0  0  0  0  0  0
   10.4192    7.3157   15.0955 C   0  0  0  0  0  0  0  0  0  0  0  0
   10.2489    6.4227   23.0218 N   0  0  0  0  0  0  0  0  0  0  0  0
    7.2472    8.0746   23.5050 C   0  0  0  0  0  0  0  0  0  0  0  0
    9.2051    6.9101   23.4604 C   0  0  0  0  0  0  0  0  0  0  0  0
   11.9646    6.0299   21.4251 C   0  0  0  0  0  0  0  0  0  0  0  0
  1  5  1  0
  1 13  1  0
  2 20  2  0
  2 28  1  0
  2 29  1  0
  3 19  4  0
  3 25  4  0
  4 23  4  0
  4 27  1  0
  4 30  4  0
  5 17  1  0
  6  8  1  0
  6 29  1  0
  7 24  4  0
  7 26  4  0
  8 28  1  0
  9 13  2  0
 10 18  1  0
 10 21  4  0
 10 30  4  0
 11 17  2  0
 12 18  1  0
 13 15  1  0
 14 24  1  0
 15 25  1  0
 16 28  2  0
 17 20  1  0
 19 24  4  0
 20 23  1  0
 21 22  4  0
 22 23  4  0
 25 26  4  0
 27 29  2  0
M  END
$$$$

 Created by Python create_sdf_string function

 30 33  0  0  0  0  0  0  0  0999 V2000
    8.3036    9.8571   18.4133 C   0  0  0  0  0  0  0  0  0  0  0  0
    8.3694    7.6612   22.6703 C   0  0  0  0  0  0  0  0  0  0  0  0
    8.4143    6.6863   16.2273 C   0  0  0  0  0  0  0  0  0  0  0  0
   10.7581    6.5674   21.7636 C   0  0  0  0  0  0  0  0  0  0  0  0
    8.4452    8.7960   19.2958 O   0  0  0  0  0  0  0  0  0  0  0  0
    8.7122    6.7842   24.8569 C   0  0  0  0  0  0  0  0  0  0  0  0
   10.3400    6.1726   14.3081 C   0  0  0  0  0  0  0  0  0  0  0  0
    7.4297    7.5873   24.8962 C   0  0  0  0  0  0  0  0  0  0  0  0
    8.1566   10.0536   16.0516 O   0  0  0  0  0  0  0  0  0  0  0  0
   12.4989    6.2074   20.1776 C   0  0  0  0  0  0  0  0  0  0  0  0
    6.9192    9.1053   20.9073 O   0  0  0  0  0  0  0  0  0  0  0  0
   14.3979    6.0729   18.7784 C   0  0  0  0  0  0  0  0  0  0  0  0
    8.6811    9.5354   16.9998 C   0  0  0  0  0  0  0  0  0  0  0  0
    9.2512    4.2713   13.7653 O   0  0  0  0  0  0  0  0  0  0  0  0
    9.6495    8.6317   16.8332 N   0  0  0  0  0  0  0  0  0  0  0  0
    6.2934    8.6988   23.1988 O   0  0  0  0  0  0  0  0  0  0  0  0
    7.9806    8.6543   20.5437 C   0  0  0  0  0  0  0  0  0  0  0  0
   13.7270    5.7144   19.8610 O   0  0  0  0  0  0  0  0  0  0  0  0
    8.3351    5.5235   15.4478 C   0  0  0  0  0  0  0  0  0  0  0  0
    8.7700    7.8434   21.3915 C   0  0  0  0  0  0  0  0  0  0  0  0
   11.7856    6.8851   19.2401 C   0  0  0  0  0  0  0  0  0  0  0  0
   10.5281    7.4276   19.5649 C   0  0  0  0  0  0  0  0  0  0  0  0
   10.0256    7.2907   20.8484 C   0  0  0  0  0  0  0  0  0  0  0  0
    9.3113    5.3049   14.4911 C   0  0  0  0  0  0  0  0  0  0  0  0
    9.4607    7.5646   16.0139 C   0  0  0  0  0  0  0  0  0  0  0  0
   10.4192    7.3157   15.0955 C   0  0  0  0  0  0  0  0  0  0  0  0
   10.2489    6.4227   23.0218 N   0  0  0  0  0  0  0  0  0  0  0  0
    7.2472    8.0746   23.5050 C   0  0  0  0  0  0  0  0  0  0  0  0
    9.2051    6.9101   23.4604 C   0  0  0  0  0  0  0  0  0  0  0  0
   11.9646    6.0299   21.4251 C   0  0  0  0  0  0  0  0  0  0  0  0
  1  5  1  0
  1 13  1  0
  2 20  2  0
  2 28  1  0
  2 29  1  0
  3 19  4  0
  3 25  4  0
  4 23  4  0
  4 27  1  0
  4 30  4  0
  5 17  1  0
  6  8  1  0
  6 29  1  0
  7 24  4  0
  7 26  4  0
  8 28  1  0
  9 13  2  0
 10 18  1  0
 10 21  4  0
 10 30  4  0
 11 17  2  0
 12 18  1  0
 13 15  1  0
 14 24  1  0
 15 25  1  0
 16 28  2  0
 17 20  1  0
 19 24  4  0
 20 23  1  0
 21 22  4  0
 22 23  4  0
 25 26  4  0
 27 29  2  0
M  END
$$$$

 Created by Python create_sdf_string function

 30 33  0  0  0  0  0  0  0  0999 V2000
    8.3036    9.8571   18.4133 C   0  0  0  0  0  0  0  0  0  0  0  0
    8.3694    7.6612   22.6703 C   0  0  0  0  0  0  0  0  0  0  0  0
    8.4143    6.6863   16.2273 C   0  0  0  0  0  0  0  0  0  0  0  0
   10.7581    6.5674   21.7636 C   0  0  0  0  0  0  0  0  0  0  0  0
    8.4452    8.7960   19.2958 O   0  0  0  0  0  0  0  0  0  0  0  0
    8.7122    6.7842   24.8569 C   0  0  0  0  0  0  0  0  0  0  0  0
   10.3400    6.1726   14.3081 C   0  0  0  0  0  0  0  0  0  0  0  0
    7.4297    7.5873   24.8962 C   0  0  0  0  0  0  0  0  0  0  0  0
    8.1566   10.0536   16.0516 O   0  0  0  0  0  0  0  0  0  0  0  0
   12.4989    6.2074   20.1776 C   0  0  0  0  0  0  0  0  0  0  0  0
    6.9192    9.1053   20.9073 O   0  0  0  0  0  0  0  0  0  0  0  0
   14.3979    6.0729   18.7784 C   0  0  0  0  0  0  0  0  0  0  0  0
    8.6811    9.5354   16.9998 C   0  0  0  0  0  0  0  0  0  0  0  0
    9.2512    4.2713   13.7653 O   0  0  0  0  0  0  0  0  0  0  0  0
    9.6495    8.6317   16.8332 N   0  0  0  0  0  0  0  0  0  0  0  0
    6.2934    8.6988   23.1988 O   0  0  0  0  0  0  0  0  0  0  0  0
    7.9806    8.6543   20.5437 C   0  0  0  0  0  0  0  0  0  0  0  0
   13.7270    5.7144   19.8610 O   0  0  0  0  0  0  0  0  0  0  0  0
    8.3351    5.5235   15.4478 C   0  0  0  0  0  0  0  0  0  0  0  0
    8.7700    7.8434   21.3915 C   0  0  0  0  0  0  0  0  0  0  0  0
   11.7856    6.8851   19.2401 C   0  0  0  0  0  0  0  0  0  0  0  0
   10.5281    7.4276   19.5649 C   0  0  0  0  0  0  0  0  0  0  0  0
   10.0256    7.2907   20.8484 C   0  0  0  0  0  0  0  0  0  0  0  0
    9.3113    5.3049   14.4911 C   0  0  0  0  0  0  0  0  0  0  0  0
    9.4607    7.5646   16.0139 C   0  0  0  0  0  0  0  0  0  0  0  0
   10.4192    7.3157   15.0955 C   0  0  0  0  0  0  0  0  0  0  0  0
   10.2489    6.4227   23.0218 N   0  0  0  0  0  0  0  0  0  0  0  0
    7.2472    8.0746   23.5050 C   0  0  0  0  0  0  0  0  0  0  0  0
    9.2051    6.9101   23.4604 C   0  0  0  0  0  0  0  0  0  0  0  0
   11.9646    6.0299   21.4251 C   0  0  0  0  0  0  0  0  0  0  0  0
  1  5  1  0
  1 13  1  0
  2 20  2  0
  2 28  1  0
  2 29  1  0
  3 19  4  0
  3 25  4  0
  4 23  4  0
  4 27  1  0
  4 30  4  0
  5 17  1  0
  6  8  1  0
  6 29  1  0
  7 24  4  0
  7 26  4  0
  8 28  1  0
  9 13  2  0
 10 18  1  0
 10 21  4  0
 10 30  4  0
 11 17  2  0
 12 18  1  0
 13 15  1  0
 14 24  1  0
 15 25  1  0
 16 28  2  0
 17 20  1  0
 19 24  4  0
 20 23  1  0
 21 22  4  0
 22 23  4  0
 25 26  4  0
 27 29  2  0
M  END
$$$$

 Created by Python create_sdf_string function

 30 33  0  0  0  0  0  0  0  0999 V2000
    8.3036    9.8571   18.4133 C   0  0  0  0  0  0  0  0  0  0  0  0
    8.3694    7.6612   22.6703 C   0  0  0  0  0  0  0  0  0  0  0  0
    8.4143    6.6863   16.2273 C   0  0  0  0  0  0  0  0  0  0  0  0
   10.7581    6.5674   21.7636 C   0  0  0  0  0  0  0  0  0  0  0  0
    8.4452    8.7960   19.2958 O   0  0  0  0  0  0  0  0  0  0  0  0
    8.7122    6.7842   24.8569 C   0  0  0  0  0  0  0  0  0  0  0  0
   10.3400    6.1726   14.3081 C   0  0  0  0  0  0  0  0  0  0  0  0
    7.4297    7.5873   24.8962 C   0  0  0  0  0  0  0  0  0  0  0  0
    8.1566   10.0536   16.0516 O   0  0  0  0  0  0  0  0  0  0  0  0
   12.4989    6.2074   20.1776 C   0  0  0  0  0  0  0  0  0  0  0  0
    6.9192    9.1053   20.9073 O   0  0  0  0  0  0  0  0  0  0  0  0
   14.3979    6.0729   18.7784 C   0  0  0  0  0  0  0  0  0  0  0  0
    8.6811    9.5354   16.9998 C   0  0  0  0  0  0  0  0  0  0  0  0
    9.2512    4.2713   13.7653 O   0  0  0  0  0  0  0  0  0  0  0  0
    9.6495    8.6317   16.8332 N   0  0  0  0  0  0  0  0  0  0  0  0
    6.2934    8.6988   23.1988 O   0  0  0  0  0  0  0  0  0  0  0  0
    7.9806    8.6543   20.5437 C   0  0  0  0  0  0  0  0  0  0  0  0
   13.7270    5.7144   19.8610 O   0  0  0  0  0  0  0  0  0  0  0  0
    8.3351    5.5235   15.4478 C   0  0  0  0  0  0  0  0  0  0  0  0
    8.7700    7.8434   21.3915 C   0  0  0  0  0  0  0  0  0  0  0  0
   11.7856    6.8851   19.2401 C   0  0  0  0  0  0  0  0  0  0  0  0
   10.5281    7.4276   19.5649 C   0  0  0  0  0  0  0  0  0  0  0  0
   10.0256    7.2907   20.8484 C   0  0  0  0  0  0  0  0  0  0  0  0
    9.3113    5.3049   14.4911 C   0  0  0  0  0  0  0  0  0  0  0  0
    9.4607    7.5646   16.0139 C   0  0  0  0  0  0  0  0  0  0  0  0
   10.4192    7.3157   15.0955 C   0  0  0  0  0  0  0  0  0  0  0  0
   10.2489    6.4227   23.0218 N   0  0  0  0  0  0  0  0  0  0  0  0
    7.2472    8.0746   23.5050 C   0  0  0  0  0  0  0  0  0  0  0  0
    9.2051    6.9101   23.4604 C   0  0  0  0  0  0  0  0  0  0  0  0
   11.9646    6.0299   21.4251 C   0  0  0  0  0  0  0  0  0  0  0  0
  1  5  1  0
  1 13  1  0
  2 20  2  0
  2 28  1  0
  2 29  1  0
  3 19  4  0
  3 25  4  0
  4 23  4  0
  4 27  1  0
  4 30  4  0
  5 17  1  0
  6  8  1  0
  6 29  1  0
  7 24  4  0
  7 26  4  0
  8 28  1  0
  9 13  2  0
 10 18  1  0
 10 21  4  0
 10 30  4  0
 11 17  2  0
 12 18  1  0
 13 15  1  0
 14 24  1  0
 15 25  1  0
 16 28  2  0
 17 20  1  0
 19 24  4  0
 20 23  1  0
 21 22  4  0
 22 23  4  0
 25 26  4  0
 27 29  2  0
M  END
$$$$

 Created by Python create_sdf_string function

 30 33  0  0  0  0  0  0  0  0999 V2000
    8.3036    9.8571   18.4133 C   0  0  0  0  0  0  0  0  0  0  0  0
    8.3694    7.6612   22.6703 C   0  0  0  0  0  0  0  0  0  0  0  0
    8.4143    6.6863   16.2273 C   0  0  0  0  0  0  0  0  0  0  0  0
   10.7581    6.5674   21.7636 C   0  0  0  0  0  0  0  0  0  0  0  0
    8.4452    8.7960   19.2958 O   0  0  0  0  0  0  0  0  0  0  0  0
    8.7122    6.7842   24.8569 C   0  0  0  0  0  0  0  0  0  0  0  0
   10.3400    6.1726   14.3081 C   0  0  0  0  0  0  0  0  0  0  0  0
    7.4297    7.5873   24.8962 C   0  0  0  0  0  0  0  0  0  0  0  0
    8.1566   10.0536   16.0516 O   0  0  0  0  0  0  0  0  0  0  0  0
   12.4989    6.2074   20.1776 C   0  0  0  0  0  0  0  0  0  0  0  0
    6.9192    9.1053   20.9073 O   0  0  0  0  0  0  0  0  0  0  0  0
   14.3979    6.0729   18.7784 C   0  0  0  0  0  0  0  0  0  0  0  0
    8.6811    9.5354   16.9998 C   0  0  0  0  0  0  0  0  0  0  0  0
    9.2512    4.2713   13.7653 O   0  0  0  0  0  0  0  0  0  0  0  0
    9.6495    8.6317   16.8332 N   0  0  0  0  0  0  0  0  0  0  0  0
    6.2934    8.6988   23.1988 O   0  0  0  0  0  0  0  0  0  0  0  0
    7.9806    8.6543   20.5437 C   0  0  0  0  0  0  0  0  0  0  0  0
   13.7270    5.7144   19.8610 O   0  0  0  0  0  0  0  0  0  0  0  0
    8.3351    5.5235   15.4478 C   0  0  0  0  0  0  0  0  0  0  0  0
    8.7700    7.8434   21.3915 C   0  0  0  0  0  0  0  0  0  0  0  0
   11.7856    6.8851   19.2401 C   0  0  0  0  0  0  0  0  0  0  0  0
   10.5281    7.4276   19.5649 C   0  0  0  0  0  0  0  0  0  0  0  0
   10.0256    7.2907   20.8484 C   0  0  0  0  0  0  0  0  0  0  0  0
    9.3113    5.3049   14.4911 C   0  0  0  0  0  0  0  0  0  0  0  0
    9.4607    7.5646   16.0139 C   0  0  0  0  0  0  0  0  0  0  0  0
   10.4192    7.3157   15.0955 C   0  0  0  0  0  0  0  0  0  0  0  0
   10.2489    6.4227   23.0218 N   0  0  0  0  0  0  0  0  0  0  0  0
    7.2472    8.0746   23.5050 C   0  0  0  0  0  0  0  0  0  0  0  0
    9.2051    6.9101   23.4604 C   0  0  0  0  0  0  0  0  0  0  0  0
   11.9646    6.0299   21.4251 C   0  0  0  0  0  0  0  0  0  0  0  0
  1  5  1  0
  1 13  1  0
  2 20  2  0
  2 28  1  0
  2 29  1  0
  3 19  4  0
  3 25  4  0
  4 23  4  0
  4 27  1  0
  4 30  4  0
  5 17  1  0
  6  8  1  0
  6 29  1  0
  7 24  4  0
  7 26  4  0
  8 28  1  0
  9 13  2  0
 10 18  1  0
 10 21  4  0
 10 30  4  0
 11 17  2  0
 12 18  1  0
 13 15  1  0
 14 24  1  0
 15 25  1  0
 16 28  2  0
 17 20  1  0
 19 24  4  0
 20 23  1  0
 21 22  4  0
 22 23  4  0
 25 26  4  0
 27 29  2  0
M  END
$$$$

 Created by Python create_sdf_string function

 30 33  0  0  0  0  0  0  0  0999 V2000
    8.3036    9.8571   18.4133 C   0  0  0  0  0  0  0  0  0  0  0  0
    8.3694    7.6612   22.6703 C   0  0  0  0  0  0  0  0  0  0  0  0
    8.4143    6.6863   16.2273 C   0  0  0  0  0  0  0  0  0  0  0  0
   10.7581    6.5674   21.7636 C   0  0  0  0  0  0  0  0  0  0  0  0
    8.4452    8.7960   19.2958 O   0  0  0  0  0  0  0  0  0  0  0  0
    8.7122    6.7842   24.8569 C   0  0  0  0  0  0  0  0  0  0  0  0
   10.3400    6.1726   14.3081 C   0  0  0  0  0  0  0  0  0  0  0  0
    7.4297    7.5873   24.8962 C   0  0  0  0  0  0  0  0  0  0  0  0
    8.1566   10.0536   16.0516 O   0  0  0  0  0  0  0  0  0  0  0  0
   12.4989    6.2074   20.1776 C   0  0  0  0  0  0  0  0  0  0  0  0
    6.9192    9.1053   20.9073 O   0  0  0  0  0  0  0  0  0  0  0  0
   14.3979    6.0729   18.7784 C   0  0  0  0  0  0  0  0  0  0  0  0
    8.6811    9.5354   16.9998 C   0  0  0  0  0  0  0  0  0  0  0  0
    9.2512    4.2713   13.7653 O   0  0  0  0  0  0  0  0  0  0  0  0
    9.6495    8.6317   16.8332 N   0  0  0  0  0  0  0  0  0  0  0  0
    6.2934    8.6988   23.1988 O   0  0  0  0  0  0  0  0  0  0  0  0
    7.9806    8.6543   20.5437 C   0  0  0  0  0  0  0  0  0  0  0  0
   13.7270    5.7144   19.8610 O   0  0  0  0  0  0  0  0  0  0  0  0
    8.3351    5.5235   15.4478 C   0  0  0  0  0  0  0  0  0  0  0  0
    8.7700    7.8434   21.3915 C   0  0  0  0  0  0  0  0  0  0  0  0
   11.7856    6.8851   19.2401 C   0  0  0  0  0  0  0  0  0  0  0  0
   10.5281    7.4276   19.5649 C   0  0  0  0  0  0  0  0  0  0  0  0
   10.0256    7.2907   20.8484 C   0  0  0  0  0  0  0  0  0  0  0  0
    9.3113    5.3049   14.4911 C   0  0  0  0  0  0  0  0  0  0  0  0
    9.4607    7.5646   16.0139 C   0  0  0  0  0  0  0  0  0  0  0  0
   10.4192    7.3157   15.0955 C   0  0  0  0  0  0  0  0  0  0  0  0
   10.2489    6.4227   23.0218 N   0  0  0  0  0  0  0  0  0  0  0  0
    7.2472    8.0746   23.5050 C   0  0  0  0  0  0  0  0  0  0  0  0
    9.2051    6.9101   23.4604 C   0  0  0  0  0  0  0  0  0  0  0  0
   11.9646    6.0299   21.4251 C   0  0  0  0  0  0  0  0  0  0  0  0
  1  5  1  0
  1 13  1  0
  2 20  2  0
  2 28  1  0
  2 29  1  0
  3 19  4  0
  3 25  4  0
  4 23  4  0
  4 27  1  0
  4 30  4  0
  5 17  1  0
  6  8  1  0
  6 29  1  0
  7 24  4  0
  7 26  4  0
  8 28  1  0
  9 13  2  0
 10 18  1  0
 10 21  4  0
 10 30  4  0
 11 17  2  0
 12 18  1  0
 13 15  1  0
 14 24  1  0
 15 25  1  0
 16 28  2  0
 17 20  1  0
 19 24  4  0
 20 23  1  0
 21 22  4  0
 22 23  4  0
 25 26  4  0
 27 29  2  0
M  END
$$$$

 Created by Python create_sdf_string function

 30 33  0  0  0  0  0  0  0  0999 V2000
    8.3036    9.8571   18.4133 C   0  0  0  0  0  0  0  0  0  0  0  0
    8.3694    7.6612   22.6703 C   0  0  0  0  0  0  0  0  0  0  0  0
    8.4143    6.6863   16.2273 C   0  0  0  0  0  0  0  0  0  0  0  0
   10.7581    6.5674   21.7636 C   0  0  0  0  0  0  0  0  0  0  0  0
    8.4452    8.7960   19.2958 O   0  0  0  0  0  0  0  0  0  0  0  0
    8.7122    6.7842   24.8569 C   0  0  0  0  0  0  0  0  0  0  0  0
   10.3400    6.1726   14.3081 C   0  0  0  0  0  0  0  0  0  0  0  0
    7.4297    7.5873   24.8962 C   0  0  0  0  0  0  0  0  0  0  0  0
    8.1566   10.0536   16.0516 O   0  0  0  0  0  0  0  0  0  0  0  0
   12.4989    6.2074   20.1776 C   0  0  0  0  0  0  0  0  0  0  0  0
    6.9192    9.1053   20.9073 O   0  0  0  0  0  0  0  0  0  0  0  0
   14.3979    6.0729   18.7784 C   0  0  0  0  0  0  0  0  0  0  0  0
    8.6811    9.5354   16.9998 C   0  0  0  0  0  0  0  0  0  0  0  0
    9.2512    4.2713   13.7653 O   0  0  0  0  0  0  0  0  0  0  0  0
    9.6495    8.6317   16.8332 N   0  0  0  0  0  0  0  0  0  0  0  0
    6.2934    8.6988   23.1988 O   0  0  0  0  0  0  0  0  0  0  0  0
    7.9806    8.6543   20.5437 C   0  0  0  0  0  0  0  0  0  0  0  0
   13.7270    5.7144   19.8610 O   0  0  0  0  0  0  0  0  0  0  0  0
    8.3351    5.5235   15.4478 C   0  0  0  0  0  0  0  0  0  0  0  0
    8.7700    7.8434   21.3915 C   0  0  0  0  0  0  0  0  0  0  0  0
   11.7856    6.8851   19.2401 C   0  0  0  0  0  0  0  0  0  0  0  0
   10.5281    7.4276   19.5649 C   0  0  0  0  0  0  0  0  0  0  0  0
   10.0256    7.2907   20.8484 C   0  0  0  0  0  0  0  0  0  0  0  0
    9.3113    5.3049   14.4911 C   0  0  0  0  0  0  0  0  0  0  0  0
    9.4607    7.5646   16.0139 C   0  0  0  0  0  0  0  0  0  0  0  0
   10.4192    7.3157   15.0955 C   0  0  0  0  0  0  0  0  0  0  0  0
   10.2489    6.4227   23.0218 N   0  0  0  0  0  0  0  0  0  0  0  0
    7.2472    8.0746   23.5050 C   0  0  0  0  0  0  0  0  0  0  0  0
    9.2051    6.9101   23.4604 C   0  0  0  0  0  0  0  0  0  0  0  0
   11.9646    6.0299   21.4251 C   0  0  0  0  0  0  0  0  0  0  0  0
  1  5  1  0
  1 13  1  0
  2 20  2  0
  2 28  1  0
  2 29  1  0
  3 19  4  0
  3 25  4  0
  4 23  4  0
  4 27  1  0
  4 30  4  0
  5 17  1  0
  6  8  1  0
  6 29  1  0
  7 24  4  0
  7 26  4  0
  8 28  1  0
  9 13  2  0
 10 18  1  0
 10 21  4  0
 10 30  4  0
 11 17  2  0
 12 18  1  0
 13 15  1  0
 14 24  1  0
 15 25  1  0
 16 28  2  0
 17 20  1  0
 19 24  4  0
 20 23  1  0
 21 22  4  0
 22 23  4  0
 25 26  4  0
 27 29  2  0
M  END
$$$$

 Created by Python create_sdf_string function

 30 33  0  0  0  0  0  0  0  0999 V2000
    8.3036    9.8571   18.4133 C   0  0  0  0  0  0  0  0  0  0  0  0
    8.3694    7.6612   22.6703 C   0  0  0  0  0  0  0  0  0  0  0  0
    8.4143    6.6863   16.2273 C   0  0  0  0  0  0  0  0  0  0  0  0
   10.7581    6.5674   21.7636 C   0  0  0  0  0  0  0  0  0  0  0  0
    8.4452    8.7960   19.2958 O   0  0  0  0  0  0  0  0  0  0  0  0
    8.7122    6.7842   24.8569 C   0  0  0  0  0  0  0  0  0  0  0  0
   10.3400    6.1726   14.3081 C   0  0  0  0  0  0  0  0  0  0  0  0
    7.4297    7.5873   24.8962 C   0  0  0  0  0  0  0  0  0  0  0  0
    8.1566   10.0536   16.0516 O   0  0  0  0  0  0  0  0  0  0  0  0
   12.4989    6.2074   20.1776 C   0  0  0  0  0  0  0  0  0  0  0  0
    6.9192    9.1053   20.9073 O   0  0  0  0  0  0  0  0  0  0  0  0
   14.3979    6.0729   18.7784 C   0  0  0  0  0  0  0  0  0  0  0  0
    8.6811    9.5354   16.9998 C   0  0  0  0  0  0  0  0  0  0  0  0
    9.2512    4.2713   13.7653 O   0  0  0  0  0  0  0  0  0  0  0  0
    9.6495    8.6317   16.8332 N   0  0  0  0  0  0  0  0  0  0  0  0
    6.2934    8.6988   23.1988 O   0  0  0  0  0  0  0  0  0  0  0  0
    7.9806    8.6543   20.5437 C   0  0  0  0  0  0  0  0  0  0  0  0
   13.7270    5.7144   19.8610 O   0  0  0  0  0  0  0  0  0  0  0  0
    8.3351    5.5235   15.4478 C   0  0  0  0  0  0  0  0  0  0  0  0
    8.7700    7.8434   21.3915 C   0  0  0  0  0  0  0  0  0  0  0  0
   11.7856    6.8851   19.2401 C   0  0  0  0  0  0  0  0  0  0  0  0
   10.5281    7.4276   19.5649 C   0  0  0  0  0  0  0  0  0  0  0  0
   10.0256    7.2907   20.8484 C   0  0  0  0  0  0  0  0  0  0  0  0
    9.3113    5.3049   14.4911 C   0  0  0  0  0  0  0  0  0  0  0  0
    9.4607    7.5646   16.0139 C   0  0  0  0  0  0  0  0  0  0  0  0
   10.4192    7.3157   15.0955 C   0  0  0  0  0  0  0  0  0  0  0  0
   10.2489    6.4227   23.0218 N   0  0  0  0  0  0  0  0  0  0  0  0
    7.2472    8.0746   23.5050 C   0  0  0  0  0  0  0  0  0  0  0  0
    9.2051    6.9101   23.4604 C   0  0  0  0  0  0  0  0  0  0  0  0
   11.9646    6.0299   21.4251 C   0  0  0  0  0  0  0  0  0  0  0  0
  1  5  1  0
  1 13  1  0
  2 20  2  0
  2 28  1  0
  2 29  1  0
  3 19  4  0
  3 25  4  0
  4 23  4  0
  4 27  1  0
  4 30  4  0
  5 17  1  0
  6  8  1  0
  6 29  1  0
  7 24  4  0
  7 26  4  0
  8 28  1  0
  9 13  2  0
 10 18  1  0
 10 21  4  0
 10 30  4  0
 11 17  2  0
 12 18  1  0
 13 15  1  0
 14 24  1  0
 15 25  1  0
 16 28  2  0
 17 20  1  0
 19 24  4  0
 20 23  1  0
 21 22  4  0
 22 23  4  0
 25 26  4  0
 27 29  2  0
M  END
$$$$

 Created by Python create_sdf_string function

 30 33  0  0  0  0  0  0  0  0999 V2000
    8.3036    9.8571   18.4133 C   0  0  0  0  0  0  0  0  0  0  0  0
    8.3694    7.6612   22.6703 C   0  0  0  0  0  0  0  0  0  0  0  0
    8.4143    6.6863   16.2273 C   0  0  0  0  0  0  0  0  0  0  0  0
   10.7581    6.5674   21.7636 C   0  0  0  0  0  0  0  0  0  0  0  0
    8.4452    8.7960   19.2958 O   0  0  0  0  0  0  0  0  0  0  0  0
    8.7122    6.7842   24.8569 C   0  0  0  0  0  0  0  0  0  0  0  0
   10.3400    6.1726   14.3081 C   0  0  0  0  0  0  0  0  0  0  0  0
    7.4297    7.5873   24.8962 C   0  0  0  0  0  0  0  0  0  0  0  0
    8.1566   10.0536   16.0516 O   0  0  0  0  0  0  0  0  0  0  0  0
   12.4989    6.2074   20.1776 C   0  0  0  0  0  0  0  0  0  0  0  0
    6.9192    9.1053   20.9073 O   0  0  0  0  0  0  0  0  0  0  0  0
   14.3979    6.0729   18.7784 C   0  0  0  0  0  0  0  0  0  0  0  0
    8.6811    9.5354   16.9998 C   0  0  0  0  0  0  0  0  0  0  0  0
    9.2512    4.2713   13.7653 O   0  0  0  0  0  0  0  0  0  0  0  0
    9.6495    8.6317   16.8332 N   0  0  0  0  0  0  0  0  0  0  0  0
    6.2934    8.6988   23.1988 O   0  0  0  0  0  0  0  0  0  0  0  0
    7.9806    8.6543   20.5437 C   0  0  0  0  0  0  0  0  0  0  0  0
   13.7270    5.7144   19.8610 O   0  0  0  0  0  0  0  0  0  0  0  0
    8.3351    5.5235   15.4478 C   0  0  0  0  0  0  0  0  0  0  0  0
    8.7700    7.8434   21.3915 C   0  0  0  0  0  0  0  0  0  0  0  0
   11.7856    6.8851   19.2401 C   0  0  0  0  0  0  0  0  0  0  0  0
   10.5281    7.4276   19.5649 C   0  0  0  0  0  0  0  0  0  0  0  0
   10.0256    7.2907   20.8484 C   0  0  0  0  0  0  0  0  0  0  0  0
    9.3113    5.3049   14.4911 C   0  0  0  0  0  0  0  0  0  0  0  0
    9.4607    7.5646   16.0139 C   0  0  0  0  0  0  0  0  0  0  0  0
   10.4192    7.3157   15.0955 C   0  0  0  0  0  0  0  0  0  0  0  0
   10.2489    6.4227   23.0218 N   0  0  0  0  0  0  0  0  0  0  0  0
    7.2472    8.0746   23.5050 C   0  0  0  0  0  0  0  0  0  0  0  0
    9.2051    6.9101   23.4604 C   0  0  0  0  0  0  0  0  0  0  0  0
   11.9646    6.0299   21.4251 C   0  0  0  0  0  0  0  0  0  0  0  0
  1  5  1  0
  1 13  1  0
  2 20  2  0
  2 28  1  0
  2 29  1  0
  3 19  4  0
  3 25  4  0
  4 23  4  0
  4 27  1  0
  4 30  4  0
  5 17  1  0
  6  8  1  0
  6 29  1  0
  7 24  4  0
  7 26  4  0
  8 28  1  0
  9 13  2  0
 10 18  1  0
 10 21  4  0
 10 30  4  0
 11 17  2  0
 12 18  1  0
 13 15  1  0
 14 24  1  0
 15 25  1  0
 16 28  2  0
 17 20  1  0
 19 24  4  0
 20 23  1  0
 21 22  4  0
 22 23  4  0
 25 26  4  0
 27 29  2  0
M  END
$$$$

 Created by Python create_sdf_string function

 30 33  0  0  0  0  0  0  0  0999 V2000
    8.3036    9.8571   18.4133 C   0  0  0  0  0  0  0  0  0  0  0  0
    8.3694    7.6612   22.6703 C   0  0  0  0  0  0  0  0  0  0  0  0
    8.4143    6.6863   16.2273 C   0  0  0  0  0  0  0  0  0  0  0  0
   10.7581    6.5674   21.7636 C   0  0  0  0  0  0  0  0  0  0  0  0
    8.4452    8.7960   19.2958 O   0  0  0  0  0  0  0  0  0  0  0  0
    8.7122    6.7842   24.8569 C   0  0  0  0  0  0  0  0  0  0  0  0
   10.3400    6.1726   14.3081 C   0  0  0  0  0  0  0  0  0  0  0  0
    7.4297    7.5873   24.8962 C   0  0  0  0  0  0  0  0  0  0  0  0
    8.1566   10.0536   16.0516 O   0  0  0  0  0  0  0  0  0  0  0  0
   12.4989    6.2074   20.1776 C   0  0  0  0  0  0  0  0  0  0  0  0
    6.9192    9.1053   20.9073 O   0  0  0  0  0  0  0  0  0  0  0  0
   14.3979    6.0729   18.7784 C   0  0  0  0  0  0  0  0  0  0  0  0
    8.6811    9.5354   16.9998 C   0  0  0  0  0  0  0  0  0  0  0  0
    9.2512    4.2713   13.7653 O   0  0  0  0  0  0  0  0  0  0  0  0
    9.6495    8.6317   16.8332 N   0  0  0  0  0  0  0  0  0  0  0  0
    6.2934    8.6988   23.1988 O   0  0  0  0  0  0  0  0  0  0  0  0
    7.9806    8.6543   20.5437 C   0  0  0  0  0  0  0  0  0  0  0  0
   13.7270    5.7144   19.8610 O   0  0  0  0  0  0  0  0  0  0  0  0
    8.3351    5.5235   15.4478 C   0  0  0  0  0  0  0  0  0  0  0  0
    8.7700    7.8434   21.3915 C   0  0  0  0  0  0  0  0  0  0  0  0
   11.7856    6.8851   19.2401 C   0  0  0  0  0  0  0  0  0  0  0  0
   10.5281    7.4276   19.5649 C   0  0  0  0  0  0  0  0  0  0  0  0
   10.0256    7.2907   20.8484 C   0  0  0  0  0  0  0  0  0  0  0  0
    9.3113    5.3049   14.4911 C   0  0  0  0  0  0  0  0  0  0  0  0
    9.4607    7.5646   16.0139 C   0  0  0  0  0  0  0  0  0  0  0  0
   10.4192    7.3157   15.0955 C   0  0  0  0  0  0  0  0  0  0  0  0
   10.2489    6.4227   23.0218 N   0  0  0  0  0  0  0  0  0  0  0  0
    7.2472    8.0746   23.5050 C   0  0  0  0  0  0  0  0  0  0  0  0
    9.2051    6.9101   23.4604 C   0  0  0  0  0  0  0  0  0  0  0  0
   11.9646    6.0299   21.4251 C   0  0  0  0  0  0  0  0  0  0  0  0
  1  5  1  0
  1 13  1  0
  2 20  2  0
  2 28  1  0
  2 29  1  0
  3 19  4  0
  3 25  4  0
  4 23  4  0
  4 27  1  0
  4 30  4  0
  5 17  1  0
  6  8  1  0
  6 29  1  0
  7 24  4  0
  7 26  4  0
  8 28  1  0
  9 13  2  0
 10 18  1  0
 10 21  4  0
 10 30  4  0
 11 17  2  0
 12 18  1  0
 13 15  1  0
 14 24  1  0
 15 25  1  0
 16 28  2  0
 17 20  1  0
 19 24  4  0
 20 23  1  0
 21 22  4  0
 22 23  4  0
 25 26  4  0
 27 29  2  0
M  END
$$$$

 Created by Python create_sdf_string function

 30 33  0  0  0  0  0  0  0  0999 V2000
    8.3036    9.8571   18.4133 C   0  0  0  0  0  0  0  0  0  0  0  0
    8.3694    7.6612   22.6703 C   0  0  0  0  0  0  0  0  0  0  0  0
    8.4143    6.6863   16.2273 C   0  0  0  0  0  0  0  0  0  0  0  0
   10.7581    6.5674   21.7636 C   0  0  0  0  0  0  0  0  0  0  0  0
    8.4452    8.7960   19.2958 O   0  0  0  0  0  0  0  0  0  0  0  0
    8.7122    6.7842   24.8569 C   0  0  0  0  0  0  0  0  0  0  0  0
   10.3400    6.1726   14.3081 C   0  0  0  0  0  0  0  0  0  0  0  0
    7.4297    7.5873   24.8962 C   0  0  0  0  0  0  0  0  0  0  0  0
    8.1566   10.0536   16.0516 O   0  0  0  0  0  0  0  0  0  0  0  0
   12.4989    6.2074   20.1776 C   0  0  0  0  0  0  0  0  0  0  0  0
    6.9192    9.1053   20.9073 O   0  0  0  0  0  0  0  0  0  0  0  0
   14.3979    6.0729   18.7784 C   0  0  0  0  0  0  0  0  0  0  0  0
    8.6811    9.5354   16.9998 C   0  0  0  0  0  0  0  0  0  0  0  0
    9.2512    4.2713   13.7653 O   0  0  0  0  0  0  0  0  0  0  0  0
    9.6495    8.6317   16.8332 N   0  0  0  0  0  0  0  0  0  0  0  0
    6.2934    8.6988   23.1988 O   0  0  0  0  0  0  0  0  0  0  0  0
    7.9806    8.6543   20.5437 C   0  0  0  0  0  0  0  0  0  0  0  0
   13.7270    5.7144   19.8610 O   0  0  0  0  0  0  0  0  0  0  0  0
    8.3351    5.5235   15.4478 C   0  0  0  0  0  0  0  0  0  0  0  0
    8.7700    7.8434   21.3915 C   0  0  0  0  0  0  0  0  0  0  0  0
   11.7856    6.8851   19.2401 C   0  0  0  0  0  0  0  0  0  0  0  0
   10.5281    7.4276   19.5649 C   0  0  0  0  0  0  0  0  0  0  0  0
   10.0256    7.2907   20.8484 C   0  0  0  0  0  0  0  0  0  0  0  0
    9.3113    5.3049   14.4911 C   0  0  0  0  0  0  0  0  0  0  0  0
    9.4607    7.5646   16.0139 C   0  0  0  0  0  0  0  0  0  0  0  0
   10.4192    7.3157   15.0955 C   0  0  0  0  0  0  0  0  0  0  0  0
   10.2489    6.4227   23.0218 N   0  0  0  0  0  0  0  0  0  0  0  0
    7.2472    8.0746   23.5050 C   0  0  0  0  0  0  0  0  0  0  0  0
    9.2051    6.9101   23.4604 C   0  0  0  0  0  0  0  0  0  0  0  0
   11.9646    6.0299   21.4251 C   0  0  0  0  0  0  0  0  0  0  0  0
  1  5  1  0
  1 13  1  0
  2 20  2  0
  2 28  1  0
  2 29  1  0
  3 19  4  0
  3 25  4  0
  4 23  4  0
  4 27  1  0
  4 30  4  0
  5 17  1  0
  6  8  1  0
  6 29  1  0
  7 24  4  0
  7 26  4  0
  8 28  1  0
  9 13  2  0
 10 18  1  0
 10 21  4  0
 10 30  4  0
 11 17  2  0
 12 18  1  0
 13 15  1  0
 14 24  1  0
 15 25  1  0
 16 28  2  0
 17 20  1  0
 19 24  4  0
 20 23  1  0
 21 22  4  0
 22 23  4  0
 25 26  4  0
 27 29  2  0
M  END
$$$$

 Created by Python create_sdf_string function

 30 33  0  0  0  0  0  0  0  0999 V2000
    8.3036    9.8571   18.4133 C   0  0  0  0  0  0  0  0  0  0  0  0
    8.3694    7.6612   22.6703 C   0  0  0  0  0  0  0  0  0  0  0  0
    8.4143    6.6863   16.2273 C   0  0  0  0  0  0  0  0  0  0  0  0
   10.7581    6.5674   21.7636 C   0  0  0  0  0  0  0  0  0  0  0  0
    8.4452    8.7960   19.2958 O   0  0  0  0  0  0  0  0  0  0  0  0
    8.7122    6.7842   24.8569 C   0  0  0  0  0  0  0  0  0  0  0  0
   10.3400    6.1726   14.3081 C   0  0  0  0  0  0  0  0  0  0  0  0
    7.4297    7.5873   24.8962 C   0  0  0  0  0  0  0  0  0  0  0  0
    8.1566   10.0536   16.0516 O   0  0  0  0  0  0  0  0  0  0  0  0
   12.4989    6.2074   20.1776 C   0  0  0  0  0  0  0  0  0  0  0  0
    6.9192    9.1053   20.9073 O   0  0  0  0  0  0  0  0  0  0  0  0
   14.3979    6.0729   18.7784 C   0  0  0  0  0  0  0  0  0  0  0  0
    8.6811    9.5354   16.9998 C   0  0  0  0  0  0  0  0  0  0  0  0
    9.2512    4.2713   13.7653 O   0  0  0  0  0  0  0  0  0  0  0  0
    9.6495    8.6317   16.8332 N   0  0  0  0  0  0  0  0  0  0  0  0
    6.2934    8.6988   23.1988 O   0  0  0  0  0  0  0  0  0  0  0  0
    7.9806    8.6543   20.5437 C   0  0  0  0  0  0  0  0  0  0  0  0
   13.7270    5.7144   19.8610 O   0  0  0  0  0  0  0  0  0  0  0  0
    8.3351    5.5235   15.4478 C   0  0  0  0  0  0  0  0  0  0  0  0
    8.7700    7.8434   21.3915 C   0  0  0  0  0  0  0  0  0  0  0  0
   11.7856    6.8851   19.2401 C   0  0  0  0  0  0  0  0  0  0  0  0
   10.5281    7.4276   19.5649 C   0  0  0  0  0  0  0  0  0  0  0  0
   10.0256    7.2907   20.8484 C   0  0  0  0  0  0  0  0  0  0  0  0
    9.3113    5.3049   14.4911 C   0  0  0  0  0  0  0  0  0  0  0  0
    9.4607    7.5646   16.0139 C   0  0  0  0  0  0  0  0  0  0  0  0
   10.4192    7.3157   15.0955 C   0  0  0  0  0  0  0  0  0  0  0  0
   10.2489    6.4227   23.0218 N   0  0  0  0  0  0  0  0  0  0  0  0
    7.2472    8.0746   23.5050 C   0  0  0  0  0  0  0  0  0  0  0  0
    9.2051    6.9101   23.4604 C   0  0  0  0  0  0  0  0  0  0  0  0
   11.9646    6.0299   21.4251 C   0  0  0  0  0  0  0  0  0  0  0  0
  1  5  1  0
  1 13  1  0
  2 20  2  0
  2 28  1  0
  2 29  1  0
  3 19  4  0
  3 25  4  0
  4 23  4  0
  4 27  1  0
  4 30  4  0
  5 17  1  0
  6  8  1  0
  6 29  1  0
  7 24  4  0
  7 26  4  0
  8 28  1  0
  9 13  2  0
 10 18  1  0
 10 21  4  0
 10 30  4  0
 11 17  2  0
 12 18  1  0
 13 15  1  0
 14 24  1  0
 15 25  1  0
 16 28  2  0
 17 20  1  0
 19 24  4  0
 20 23  1  0
 21 22  4  0
 22 23  4  0
 25 26  4  0
 27 29  2  0
M  END
$$$$

 Created by Python create_sdf_string function

 30 33  0  0  0  0  0  0  0  0999 V2000
    8.3036    9.8571   18.4133 C   0  0  0  0  0  0  0  0  0  0  0  0
    8.3694    7.6612   22.6703 C   0  0  0  0  0  0  0  0  0  0  0  0
    8.4143    6.6863   16.2273 C   0  0  0  0  0  0  0  0  0  0  0  0
   10.7581    6.5674   21.7636 C   0  0  0  0  0  0  0  0  0  0  0  0
    8.4452    8.7960   19.2958 O   0  0  0  0  0  0  0  0  0  0  0  0
    8.7122    6.7842   24.8569 C   0  0  0  0  0  0  0  0  0  0  0  0
   10.3400    6.1726   14.3081 C   0  0  0  0  0  0  0  0  0  0  0  0
    7.4297    7.5873   24.8962 C   0  0  0  0  0  0  0  0  0  0  0  0
    8.1566   10.0536   16.0516 O   0  0  0  0  0  0  0  0  0  0  0  0
   12.4989    6.2074   20.1776 C   0  0  0  0  0  0  0  0  0  0  0  0
    6.9192    9.1053   20.9073 O   0  0  0  0  0  0  0  0  0  0  0  0
   14.3979    6.0729   18.7784 C   0  0  0  0  0  0  0  0  0  0  0  0
    8.6811    9.5354   16.9998 C   0  0  0  0  0  0  0  0  0  0  0  0
    9.2512    4.2713   13.7653 O   0  0  0  0  0  0  0  0  0  0  0  0
    9.6495    8.6317   16.8332 N   0  0  0  0  0  0  0  0  0  0  0  0
    6.2934    8.6988   23.1988 O   0  0  0  0  0  0  0  0  0  0  0  0
    7.9806    8.6543   20.5437 C   0  0  0  0  0  0  0  0  0  0  0  0
   13.7270    5.7144   19.8610 O   0  0  0  0  0  0  0  0  0  0  0  0
    8.3351    5.5235   15.4478 C   0  0  0  0  0  0  0  0  0  0  0  0
    8.7700    7.8434   21.3915 C   0  0  0  0  0  0  0  0  0  0  0  0
   11.7856    6.8851   19.2401 C   0  0  0  0  0  0  0  0  0  0  0  0
   10.5281    7.4276   19.5649 C   0  0  0  0  0  0  0  0  0  0  0  0
   10.0256    7.2907   20.8484 C   0  0  0  0  0  0  0  0  0  0  0  0
    9.3113    5.3049   14.4911 C   0  0  0  0  0  0  0  0  0  0  0  0
    9.4607    7.5646   16.0139 C   0  0  0  0  0  0  0  0  0  0  0  0
   10.4192    7.3157   15.0955 C   0  0  0  0  0  0  0  0  0  0  0  0
   10.2489    6.4227   23.0218 N   0  0  0  0  0  0  0  0  0  0  0  0
    7.2472    8.0746   23.5050 C   0  0  0  0  0  0  0  0  0  0  0  0
    9.2051    6.9101   23.4604 C   0  0  0  0  0  0  0  0  0  0  0  0
   11.9646    6.0299   21.4251 C   0  0  0  0  0  0  0  0  0  0  0  0
  1  5  1  0
  1 13  1  0
  2 20  2  0
  2 28  1  0
  2 29  1  0
  3 19  4  0
  3 25  4  0
  4 23  4  0
  4 27  1  0
  4 30  4  0
  5 17  1  0
  6  8  1  0
  6 29  1  0
  7 24  4  0
  7 26  4  0
  8 28  1  0
  9 13  2  0
 10 18  1  0
 10 21  4  0
 10 30  4  0
 11 17  2  0
 12 18  1  0
 13 15  1  0
 14 24  1  0
 15 25  1  0
 16 28  2  0
 17 20  1  0
 19 24  4  0
 20 23  1  0
 21 22  4  0
 22 23  4  0
 25 26  4  0
 27 29  2  0
M  END
$$$$

 Created by Python create_sdf_string function

 30 33  0  0  0  0  0  0  0  0999 V2000
    8.3036    9.8571   18.4133 C   0  0  0  0  0  0  0  0  0  0  0  0
    8.3694    7.6612   22.6703 C   0  0  0  0  0  0  0  0  0  0  0  0
    8.4143    6.6863   16.2273 C   0  0  0  0  0  0  0  0  0  0  0  0
   10.7581    6.5674   21.7636 C   0  0  0  0  0  0  0  0  0  0  0  0
    8.4452    8.7960   19.2958 O   0  0  0  0  0  0  0  0  0  0  0  0
    8.7122    6.7842   24.8569 C   0  0  0  0  0  0  0  0  0  0  0  0
   10.3400    6.1726   14.3081 C   0  0  0  0  0  0  0  0  0  0  0  0
    7.4297    7.5873   24.8962 C   0  0  0  0  0  0  0  0  0  0  0  0
    8.1566   10.0536   16.0516 O   0  0  0  0  0  0  0  0  0  0  0  0
   12.4989    6.2074   20.1776 C   0  0  0  0  0  0  0  0  0  0  0  0
    6.9192    9.1053   20.9073 O   0  0  0  0  0  0  0  0  0  0  0  0
   14.3979    6.0729   18.7784 C   0  0  0  0  0  0  0  0  0  0  0  0
    8.6811    9.5354   16.9998 C   0  0  0  0  0  0  0  0  0  0  0  0
    9.2512    4.2713   13.7653 O   0  0  0  0  0  0  0  0  0  0  0  0
    9.6495    8.6317   16.8332 N   0  0  0  0  0  0  0  0  0  0  0  0
    6.2934    8.6988   23.1988 O   0  0  0  0  0  0  0  0  0  0  0  0
    7.9806    8.6543   20.5437 C   0  0  0  0  0  0  0  0  0  0  0  0
   13.7270    5.7144   19.8610 O   0  0  0  0  0  0  0  0  0  0  0  0
    8.3351    5.5235   15.4478 C   0  0  0  0  0  0  0  0  0  0  0  0
    8.7700    7.8434   21.3915 C   0  0  0  0  0  0  0  0  0  0  0  0
   11.7856    6.8851   19.2401 C   0  0  0  0  0  0  0  0  0  0  0  0
   10.5281    7.4276   19.5649 C   0  0  0  0  0  0  0  0  0  0  0  0
   10.0256    7.2907   20.8484 C   0  0  0  0  0  0  0  0  0  0  0  0
    9.3113    5.3049   14.4911 C   0  0  0  0  0  0  0  0  0  0  0  0
    9.4607    7.5646   16.0139 C   0  0  0  0  0  0  0  0  0  0  0  0
   10.4192    7.3157   15.0955 C   0  0  0  0  0  0  0  0  0  0  0  0
   10.2489    6.4227   23.0218 N   0  0  0  0  0  0  0  0  0  0  0  0
    7.2472    8.0746   23.5050 C   0  0  0  0  0  0  0  0  0  0  0  0
    9.2051    6.9101   23.4604 C   0  0  0  0  0  0  0  0  0  0  0  0
   11.9646    6.0299   21.4251 C   0  0  0  0  0  0  0  0  0  0  0  0
  1  5  1  0
  1 13  1  0
  2 20  2  0
  2 28  1  0
  2 29  1  0
  3 19  4  0
  3 25  4  0
  4 23  4  0
  4 27  1  0
  4 30  4  0
  5 17  1  0
  6  8  1  0
  6 29  1  0
  7 24  4  0
  7 26  4  0
  8 28  1  0
  9 13  2  0
 10 18  1  0
 10 21  4  0
 10 30  4  0
 11 17  2  0
 12 18  1  0
 13 15  1  0
 14 24  1  0
 15 25  1  0
 16 28  2  0
 17 20  1  0
 19 24  4  0
 20 23  1  0
 21 22  4  0
 22 23  4  0
 25 26  4  0
 27 29  2  0
M  END
$$$$

 Created by Python create_sdf_string function

 30 33  0  0  0  0  0  0  0  0999 V2000
    8.3036    9.8571   18.4133 C   0  0  0  0  0  0  0  0  0  0  0  0
    8.3694    7.6612   22.6703 C   0  0  0  0  0  0  0  0  0  0  0  0
    8.4143    6.6863   16.2273 C   0  0  0  0  0  0  0  0  0  0  0  0
   10.7581    6.5674   21.7636 C   0  0  0  0  0  0  0  0  0  0  0  0
    8.4452    8.7960   19.2958 O   0  0  0  0  0  0  0  0  0  0  0  0
    8.7122    6.7842   24.8569 C   0  0  0  0  0  0  0  0  0  0  0  0
   10.3400    6.1726   14.3081 C   0  0  0  0  0  0  0  0  0  0  0  0
    7.4297    7.5873   24.8962 C   0  0  0  0  0  0  0  0  0  0  0  0
    8.1566   10.0536   16.0516 O   0  0  0  0  0  0  0  0  0  0  0  0
   12.4989    6.2074   20.1776 C   0  0  0  0  0  0  0  0  0  0  0  0
    6.9192    9.1053   20.9073 O   0  0  0  0  0  0  0  0  0  0  0  0
   14.3979    6.0729   18.7784 C   0  0  0  0  0  0  0  0  0  0  0  0
    8.6811    9.5354   16.9998 C   0  0  0  0  0  0  0  0  0  0  0  0
    9.2512    4.2713   13.7653 O   0  0  0  0  0  0  0  0  0  0  0  0
    9.6495    8.6317   16.8332 N   0  0  0  0  0  0  0  0  0  0  0  0
    6.2934    8.6988   23.1988 O   0  0  0  0  0  0  0  0  0  0  0  0
    7.9806    8.6543   20.5437 C   0  0  0  0  0  0  0  0  0  0  0  0
   13.7270    5.7144   19.8610 O   0  0  0  0  0  0  0  0  0  0  0  0
    8.3351    5.5235   15.4478 C   0  0  0  0  0  0  0  0  0  0  0  0
    8.7700    7.8434   21.3915 C   0  0  0  0  0  0  0  0  0  0  0  0
   11.7856    6.8851   19.2401 C   0  0  0  0  0  0  0  0  0  0  0  0
   10.5281    7.4276   19.5649 C   0  0  0  0  0  0  0  0  0  0  0  0
   10.0256    7.2907   20.8484 C   0  0  0  0  0  0  0  0  0  0  0  0
    9.3113    5.3049   14.4911 C   0  0  0  0  0  0  0  0  0  0  0  0
    9.4607    7.5646   16.0139 C   0  0  0  0  0  0  0  0  0  0  0  0
   10.4192    7.3157   15.0955 C   0  0  0  0  0  0  0  0  0  0  0  0
   10.2489    6.4227   23.0218 N   0  0  0  0  0  0  0  0  0  0  0  0
    7.2472    8.0746   23.5050 C   0  0  0  0  0  0  0  0  0  0  0  0
    9.2051    6.9101   23.4604 C   0  0  0  0  0  0  0  0  0  0  0  0
   11.9646    6.0299   21.4251 C   0  0  0  0  0  0  0  0  0  0  0  0
  1  5  1  0
  1 13  1  0
  2 20  2  0
  2 28  1  0
  2 29  1  0
  3 19  4  0
  3 25  4  0
  4 23  4  0
  4 27  1  0
  4 30  4  0
  5 17  1  0
  6  8  1  0
  6 29  1  0
  7 24  4  0
  7 26  4  0
  8 28  1  0
  9 13  2  0
 10 18  1  0
 10 21  4  0
 10 30  4  0
 11 17  2  0
 12 18  1  0
 13 15  1  0
 14 24  1  0
 15 25  1  0
 16 28  2  0
 17 20  1  0
 19 24  4  0
 20 23  1  0
 21 22  4  0
 22 23  4  0
 25 26  4  0
 27 29  2  0
M  END
$$$$

 Created by Python create_sdf_string function

 30 33  0  0  0  0  0  0  0  0999 V2000
    8.3036    9.8571   18.4133 C   0  0  0  0  0  0  0  0  0  0  0  0
    8.3694    7.6612   22.6703 C   0  0  0  0  0  0  0  0  0  0  0  0
    8.4143    6.6863   16.2273 C   0  0  0  0  0  0  0  0  0  0  0  0
   10.7581    6.5674   21.7636 C   0  0  0  0  0  0  0  0  0  0  0  0
    8.4452    8.7960   19.2958 O   0  0  0  0  0  0  0  0  0  0  0  0
    8.7122    6.7842   24.8569 C   0  0  0  0  0  0  0  0  0  0  0  0
   10.3400    6.1726   14.3081 C   0  0  0  0  0  0  0  0  0  0  0  0
    7.4297    7.5873   24.8962 C   0  0  0  0  0  0  0  0  0  0  0  0
    8.1566   10.0536   16.0516 O   0  0  0  0  0  0  0  0  0  0  0  0
   12.4989    6.2074   20.1776 C   0  0  0  0  0  0  0  0  0  0  0  0
    6.9192    9.1053   20.9073 O   0  0  0  0  0  0  0  0  0  0  0  0
   14.3979    6.0729   18.7784 C   0  0  0  0  0  0  0  0  0  0  0  0
    8.6811    9.5354   16.9998 C   0  0  0  0  0  0  0  0  0  0  0  0
    9.2512    4.2713   13.7653 O   0  0  0  0  0  0  0  0  0  0  0  0
    9.6495    8.6317   16.8332 N   0  0  0  0  0  0  0  0  0  0  0  0
    6.2934    8.6988   23.1988 O   0  0  0  0  0  0  0  0  0  0  0  0
    7.9806    8.6543   20.5437 C   0  0  0  0  0  0  0  0  0  0  0  0
   13.7270    5.7144   19.8610 O   0  0  0  0  0  0  0  0  0  0  0  0
    8.3351    5.5235   15.4478 C   0  0  0  0  0  0  0  0  0  0  0  0
    8.7700    7.8434   21.3915 C   0  0  0  0  0  0  0  0  0  0  0  0
   11.7856    6.8851   19.2401 C   0  0  0  0  0  0  0  0  0  0  0  0
   10.5281    7.4276   19.5649 C   0  0  0  0  0  0  0  0  0  0  0  0
   10.0256    7.2907   20.8484 C   0  0  0  0  0  0  0  0  0  0  0  0
    9.3113    5.3049   14.4911 C   0  0  0  0  0  0  0  0  0  0  0  0
    9.4607    7.5646   16.0139 C   0  0  0  0  0  0  0  0  0  0  0  0
   10.4192    7.3157   15.0955 C   0  0  0  0  0  0  0  0  0  0  0  0
   10.2489    6.4227   23.0218 N   0  0  0  0  0  0  0  0  0  0  0  0
    7.2472    8.0746   23.5050 C   0  0  0  0  0  0  0  0  0  0  0  0
    9.2051    6.9101   23.4604 C   0  0  0  0  0  0  0  0  0  0  0  0
   11.9646    6.0299   21.4251 C   0  0  0  0  0  0  0  0  0  0  0  0
  1  5  1  0
  1 13  1  0
  2 20  2  0
  2 28  1  0
  2 29  1  0
  3 19  4  0
  3 25  4  0
  4 23  4  0
  4 27  1  0
  4 30  4  0
  5 17  1  0
  6  8  1  0
  6 29  1  0
  7 24  4  0
  7 26  4  0
  8 28  1  0
  9 13  2  0
 10 18  1  0
 10 21  4  0
 10 30  4  0
 11 17  2  0
 12 18  1  0
 13 15  1  0
 14 24  1  0
 15 25  1  0
 16 28  2  0
 17 20  1  0
 19 24  4  0
 20 23  1  0
 21 22  4  0
 22 23  4  0
 25 26  4  0
 27 29  2  0
M  END
$$$$

 Created by Python create_sdf_string function

 30 33  0  0  0  0  0  0  0  0999 V2000
    8.3036    9.8571   18.4133 C   0  0  0  0  0  0  0  0  0  0  0  0
    8.3694    7.6612   22.6703 C   0  0  0  0  0  0  0  0  0  0  0  0
    8.4143    6.6863   16.2273 C   0  0  0  0  0  0  0  0  0  0  0  0
   10.7581    6.5674   21.7636 C   0  0  0  0  0  0  0  0  0  0  0  0
    8.4452    8.7960   19.2958 O   0  0  0  0  0  0  0  0  0  0  0  0
    8.7122    6.7842   24.8569 C   0  0  0  0  0  0  0  0  0  0  0  0
   10.3400    6.1726   14.3081 C   0  0  0  0  0  0  0  0  0  0  0  0
    7.4297    7.5873   24.8962 C   0  0  0  0  0  0  0  0  0  0  0  0
    8.1566   10.0536   16.0516 O   0  0  0  0  0  0  0  0  0  0  0  0
   12.4989    6.2074   20.1776 C   0  0  0  0  0  0  0  0  0  0  0  0
    6.9192    9.1053   20.9073 O   0  0  0  0  0  0  0  0  0  0  0  0
   14.3979    6.0729   18.7784 C   0  0  0  0  0  0  0  0  0  0  0  0
    8.6811    9.5354   16.9998 C   0  0  0  0  0  0  0  0  0  0  0  0
    9.2512    4.2713   13.7653 O   0  0  0  0  0  0  0  0  0  0  0  0
    9.6495    8.6317   16.8332 N   0  0  0  0  0  0  0  0  0  0  0  0
    6.2934    8.6988   23.1988 O   0  0  0  0  0  0  0  0  0  0  0  0
    7.9806    8.6543   20.5437 C   0  0  0  0  0  0  0  0  0  0  0  0
   13.7270    5.7144   19.8610 O   0  0  0  0  0  0  0  0  0  0  0  0
    8.3351    5.5235   15.4478 C   0  0  0  0  0  0  0  0  0  0  0  0
    8.7700    7.8434   21.3915 C   0  0  0  0  0  0  0  0  0  0  0  0
   11.7856    6.8851   19.2401 C   0  0  0  0  0  0  0  0  0  0  0  0
   10.5281    7.4276   19.5649 C   0  0  0  0  0  0  0  0  0  0  0  0
   10.0256    7.2907   20.8484 C   0  0  0  0  0  0  0  0  0  0  0  0
    9.3113    5.3049   14.4911 C   0  0  0  0  0  0  0  0  0  0  0  0
    9.4607    7.5646   16.0139 C   0  0  0  0  0  0  0  0  0  0  0  0
   10.4192    7.3157   15.0955 C   0  0  0  0  0  0  0  0  0  0  0  0
   10.2489    6.4227   23.0218 N   0  0  0  0  0  0  0  0  0  0  0  0
    7.2472    8.0746   23.5050 C   0  0  0  0  0  0  0  0  0  0  0  0
    9.2051    6.9101   23.4604 C   0  0  0  0  0  0  0  0  0  0  0  0
   11.9646    6.0299   21.4251 C   0  0  0  0  0  0  0  0  0  0  0  0
  1  5  1  0
  1 13  1  0
  2 20  2  0
  2 28  1  0
  2 29  1  0
  3 19  4  0
  3 25  4  0
  4 23  4  0
  4 27  1  0
  4 30  4  0
  5 17  1  0
  6  8  1  0
  6 29  1  0
  7 24  4  0
  7 26  4  0
  8 28  1  0
  9 13  2  0
 10 18  1  0
 10 21  4  0
 10 30  4  0
 11 17  2  0
 12 18  1  0
 13 15  1  0
 14 24  1  0
 15 25  1  0
 16 28  2  0
 17 20  1  0
 19 24  4  0
 20 23  1  0
 21 22  4  0
 22 23  4  0
 25 26  4  0
 27 29  2  0
M  END
$$$$

 Created by Python create_sdf_string function

 30 33  0  0  0  0  0  0  0  0999 V2000
    8.3036    9.8571   18.4133 C   0  0  0  0  0  0  0  0  0  0  0  0
    8.3694    7.6612   22.6703 C   0  0  0  0  0  0  0  0  0  0  0  0
    8.4143    6.6863   16.2273 C   0  0  0  0  0  0  0  0  0  0  0  0
   10.7581    6.5674   21.7636 C   0  0  0  0  0  0  0  0  0  0  0  0
    8.4452    8.7960   19.2958 O   0  0  0  0  0  0  0  0  0  0  0  0
    8.7122    6.7842   24.8569 C   0  0  0  0  0  0  0  0  0  0  0  0
   10.3400    6.1726   14.3081 C   0  0  0  0  0  0  0  0  0  0  0  0
    7.4297    7.5873   24.8962 C   0  0  0  0  0  0  0  0  0  0  0  0
    8.1566   10.0536   16.0516 O   0  0  0  0  0  0  0  0  0  0  0  0
   12.4989    6.2074   20.1776 C   0  0  0  0  0  0  0  0  0  0  0  0
    6.9192    9.1053   20.9073 O   0  0  0  0  0  0  0  0  0  0  0  0
   14.3979    6.0729   18.7784 C   0  0  0  0  0  0  0  0  0  0  0  0
    8.6811    9.5354   16.9998 C   0  0  0  0  0  0  0  0  0  0  0  0
    9.2512    4.2713   13.7653 O   0  0  0  0  0  0  0  0  0  0  0  0
    9.6495    8.6317   16.8332 N   0  0  0  0  0  0  0  0  0  0  0  0
    6.2934    8.6988   23.1988 O   0  0  0  0  0  0  0  0  0  0  0  0
    7.9806    8.6543   20.5437 C   0  0  0  0  0  0  0  0  0  0  0  0
   13.7270    5.7144   19.8610 O   0  0  0  0  0  0  0  0  0  0  0  0
    8.3351    5.5235   15.4478 C   0  0  0  0  0  0  0  0  0  0  0  0
    8.7700    7.8434   21.3915 C   0  0  0  0  0  0  0  0  0  0  0  0
   11.7856    6.8851   19.2401 C   0  0  0  0  0  0  0  0  0  0  0  0
   10.5281    7.4276   19.5649 C   0  0  0  0  0  0  0  0  0  0  0  0
   10.0256    7.2907   20.8484 C   0  0  0  0  0  0  0  0  0  0  0  0
    9.3113    5.3049   14.4911 C   0  0  0  0  0  0  0  0  0  0  0  0
    9.4607    7.5646   16.0139 C   0  0  0  0  0  0  0  0  0  0  0  0
   10.4192    7.3157   15.0955 C   0  0  0  0  0  0  0  0  0  0  0  0
   10.2489    6.4227   23.0218 N   0  0  0  0  0  0  0  0  0  0  0  0
    7.2472    8.0746   23.5050 C   0  0  0  0  0  0  0  0  0  0  0  0
    9.2051    6.9101   23.4604 C   0  0  0  0  0  0  0  0  0  0  0  0
   11.9646    6.0299   21.4251 C   0  0  0  0  0  0  0  0  0  0  0  0
  1  5  1  0
  1 13  1  0
  2 20  2  0
  2 28  1  0
  2 29  1  0
  3 19  4  0
  3 25  4  0
  4 23  4  0
  4 27  1  0
  4 30  4  0
  5 17  1  0
  6  8  1  0
  6 29  1  0
  7 24  4  0
  7 26  4  0
  8 28  1  0
  9 13  2  0
 10 18  1  0
 10 21  4  0
 10 30  4  0
 11 17  2  0
 12 18  1  0
 13 15  1  0
 14 24  1  0
 15 25  1  0
 16 28  2  0
 17 20  1  0
 19 24  4  0
 20 23  1  0
 21 22  4  0
 22 23  4  0
 25 26  4  0
 27 29  2  0
M  END
$$$$

 Created by Python create_sdf_string function

 30 33  0  0  0  0  0  0  0  0999 V2000
    8.3036    9.8571   18.4133 C   0  0  0  0  0  0  0  0  0  0  0  0
    8.3694    7.6612   22.6703 C   0  0  0  0  0  0  0  0  0  0  0  0
    8.4143    6.6863   16.2273 C   0  0  0  0  0  0  0  0  0  0  0  0
   10.7581    6.5674   21.7636 C   0  0  0  0  0  0  0  0  0  0  0  0
    8.4452    8.7960   19.2958 O   0  0  0  0  0  0  0  0  0  0  0  0
    8.7122    6.7842   24.8569 C   0  0  0  0  0  0  0  0  0  0  0  0
   10.3400    6.1726   14.3081 C   0  0  0  0  0  0  0  0  0  0  0  0
    7.4297    7.5873   24.8962 C   0  0  0  0  0  0  0  0  0  0  0  0
    8.1566   10.0536   16.0516 O   0  0  0  0  0  0  0  0  0  0  0  0
   12.4989    6.2074   20.1776 C   0  0  0  0  0  0  0  0  0  0  0  0
    6.9192    9.1053   20.9073 O   0  0  0  0  0  0  0  0  0  0  0  0
   14.3979    6.0729   18.7784 C   0  0  0  0  0  0  0  0  0  0  0  0
    8.6811    9.5354   16.9998 C   0  0  0  0  0  0  0  0  0  0  0  0
    9.2512    4.2713   13.7653 O   0  0  0  0  0  0  0  0  0  0  0  0
    9.6495    8.6317   16.8332 N   0  0  0  0  0  0  0  0  0  0  0  0
    6.2934    8.6988   23.1988 O   0  0  0  0  0  0  0  0  0  0  0  0
    7.9806    8.6543   20.5437 C   0  0  0  0  0  0  0  0  0  0  0  0
   13.7270    5.7144   19.8610 O   0  0  0  0  0  0  0  0  0  0  0  0
    8.3351    5.5235   15.4478 C   0  0  0  0  0  0  0  0  0  0  0  0
    8.7700    7.8434   21.3915 C   0  0  0  0  0  0  0  0  0  0  0  0
   11.7856    6.8851   19.2401 C   0  0  0  0  0  0  0  0  0  0  0  0
   10.5281    7.4276   19.5649 C   0  0  0  0  0  0  0  0  0  0  0  0
   10.0256    7.2907   20.8484 C   0  0  0  0  0  0  0  0  0  0  0  0
    9.3113    5.3049   14.4911 C   0  0  0  0  0  0  0  0  0  0  0  0
    9.4607    7.5646   16.0139 C   0  0  0  0  0  0  0  0  0  0  0  0
   10.4192    7.3157   15.0955 C   0  0  0  0  0  0  0  0  0  0  0  0
   10.2489    6.4227   23.0218 N   0  0  0  0  0  0  0  0  0  0  0  0
    7.2472    8.0746   23.5050 C   0  0  0  0  0  0  0  0  0  0  0  0
    9.2051    6.9101   23.4604 C   0  0  0  0  0  0  0  0  0  0  0  0
   11.9646    6.0299   21.4251 C   0  0  0  0  0  0  0  0  0  0  0  0
  1  5  1  0
  1 13  1  0
  2 20  2  0
  2 28  1  0
  2 29  1  0
  3 19  4  0
  3 25  4  0
  4 23  4  0
  4 27  1  0
  4 30  4  0
  5 17  1  0
  6  8  1  0
  6 29  1  0
  7 24  4  0
  7 26  4  0
  8 28  1  0
  9 13  2  0
 10 18  1  0
 10 21  4  0
 10 30  4  0
 11 17  2  0
 12 18  1  0
 13 15  1  0
 14 24  1  0
 15 25  1  0
 16 28  2  0
 17 20  1  0
 19 24  4  0
 20 23  1  0
 21 22  4  0
 22 23  4  0
 25 26  4  0
 27 29  2  0
M  END
$$$$

 Created by Python create_sdf_string function

 30 33  0  0  0  0  0  0  0  0999 V2000
    8.3036    9.8571   18.4133 C   0  0  0  0  0  0  0  0  0  0  0  0
    8.3694    7.6612   22.6703 C   0  0  0  0  0  0  0  0  0  0  0  0
    8.4143    6.6863   16.2273 C   0  0  0  0  0  0  0  0  0  0  0  0
   10.7581    6.5674   21.7636 C   0  0  0  0  0  0  0  0  0  0  0  0
    8.4452    8.7960   19.2958 O   0  0  0  0  0  0  0  0  0  0  0  0
    8.7122    6.7842   24.8569 C   0  0  0  0  0  0  0  0  0  0  0  0
   10.3400    6.1726   14.3081 C   0  0  0  0  0  0  0  0  0  0  0  0
    7.4297    7.5873   24.8962 C   0  0  0  0  0  0  0  0  0  0  0  0
    8.1566   10.0536   16.0516 O   0  0  0  0  0  0  0  0  0  0  0  0
   12.4989    6.2074   20.1776 C   0  0  0  0  0  0  0  0  0  0  0  0
    6.9192    9.1053   20.9073 O   0  0  0  0  0  0  0  0  0  0  0  0
   14.3979    6.0729   18.7784 C   0  0  0  0  0  0  0  0  0  0  0  0
    8.6811    9.5354   16.9998 C   0  0  0  0  0  0  0  0  0  0  0  0
    9.2512    4.2713   13.7653 O   0  0  0  0  0  0  0  0  0  0  0  0
    9.6495    8.6317   16.8332 N   0  0  0  0  0  0  0  0  0  0  0  0
    6.2934    8.6988   23.1988 O   0  0  0  0  0  0  0  0  0  0  0  0
    7.9806    8.6543   20.5437 C   0  0  0  0  0  0  0  0  0  0  0  0
   13.7270    5.7144   19.8610 O   0  0  0  0  0  0  0  0  0  0  0  0
    8.3351    5.5235   15.4478 C   0  0  0  0  0  0  0  0  0  0  0  0
    8.7700    7.8434   21.3915 C   0  0  0  0  0  0  0  0  0  0  0  0
   11.7856    6.8851   19.2401 C   0  0  0  0  0  0  0  0  0  0  0  0
   10.5281    7.4276   19.5649 C   0  0  0  0  0  0  0  0  0  0  0  0
   10.0256    7.2907   20.8484 C   0  0  0  0  0  0  0  0  0  0  0  0
    9.3113    5.3049   14.4911 C   0  0  0  0  0  0  0  0  0  0  0  0
    9.4607    7.5646   16.0139 C   0  0  0  0  0  0  0  0  0  0  0  0
   10.4192    7.3157   15.0955 C   0  0  0  0  0  0  0  0  0  0  0  0
   10.2489    6.4227   23.0218 N   0  0  0  0  0  0  0  0  0  0  0  0
    7.2472    8.0746   23.5050 C   0  0  0  0  0  0  0  0  0  0  0  0
    9.2051    6.9101   23.4604 C   0  0  0  0  0  0  0  0  0  0  0  0
   11.9646    6.0299   21.4251 C   0  0  0  0  0  0  0  0  0  0  0  0
  1  5  1  0
  1 13  1  0
  2 20  2  0
  2 28  1  0
  2 29  1  0
  3 19  4  0
  3 25  4  0
  4 23  4  0
  4 27  1  0
  4 30  4  0
  5 17  1  0
  6  8  1  0
  6 29  1  0
  7 24  4  0
  7 26  4  0
  8 28  1  0
  9 13  2  0
 10 18  1  0
 10 21  4  0
 10 30  4  0
 11 17  2  0
 12 18  1  0
 13 15  1  0
 14 24  1  0
 15 25  1  0
 16 28  2  0
 17 20  1  0
 19 24  4  0
 20 23  1  0
 21 22  4  0
 22 23  4  0
 25 26  4  0
 27 29  2  0
M  END
$$$$

 Created by Python create_sdf_string function

 30 33  0  0  0  0  0  0  0  0999 V2000
    8.3036    9.8571   18.4133 C   0  0  0  0  0  0  0  0  0  0  0  0
    8.3694    7.6612   22.6703 C   0  0  0  0  0  0  0  0  0  0  0  0
    8.4143    6.6863   16.2273 C   0  0  0  0  0  0  0  0  0  0  0  0
   10.7581    6.5674   21.7636 C   0  0  0  0  0  0  0  0  0  0  0  0
    8.4452    8.7960   19.2958 O   0  0  0  0  0  0  0  0  0  0  0  0
    8.7122    6.7842   24.8569 C   0  0  0  0  0  0  0  0  0  0  0  0
   10.3400    6.1726   14.3081 C   0  0  0  0  0  0  0  0  0  0  0  0
    7.4297    7.5873   24.8962 C   0  0  0  0  0  0  0  0  0  0  0  0
    8.1566   10.0536   16.0516 O   0  0  0  0  0  0  0  0  0  0  0  0
   12.4989    6.2074   20.1776 C   0  0  0  0  0  0  0  0  0  0  0  0
    6.9192    9.1053   20.9073 O   0  0  0  0  0  0  0  0  0  0  0  0
   14.3979    6.0729   18.7784 C   0  0  0  0  0  0  0  0  0  0  0  0
    8.6811    9.5354   16.9998 C   0  0  0  0  0  0  0  0  0  0  0  0
    9.2512    4.2713   13.7653 O   0  0  0  0  0  0  0  0  0  0  0  0
    9.6495    8.6317   16.8332 N   0  0  0  0  0  0  0  0  0  0  0  0
    6.2934    8.6988   23.1988 O   0  0  0  0  0  0  0  0  0  0  0  0
    7.9806    8.6543   20.5437 C   0  0  0  0  0  0  0  0  0  0  0  0
   13.7270    5.7144   19.8610 O   0  0  0  0  0  0  0  0  0  0  0  0
    8.3351    5.5235   15.4478 C   0  0  0  0  0  0  0  0  0  0  0  0
    8.7700    7.8434   21.3915 C   0  0  0  0  0  0  0  0  0  0  0  0
   11.7856    6.8851   19.2401 C   0  0  0  0  0  0  0  0  0  0  0  0
   10.5281    7.4276   19.5649 C   0  0  0  0  0  0  0  0  0  0  0  0
   10.0256    7.2907   20.8484 C   0  0  0  0  0  0  0  0  0  0  0  0
    9.3113    5.3049   14.4911 C   0  0  0  0  0  0  0  0  0  0  0  0
    9.4607    7.5646   16.0139 C   0  0  0  0  0  0  0  0  0  0  0  0
   10.4192    7.3157   15.0955 C   0  0  0  0  0  0  0  0  0  0  0  0
   10.2489    6.4227   23.0218 N   0  0  0  0  0  0  0  0  0  0  0  0
    7.2472    8.0746   23.5050 C   0  0  0  0  0  0  0  0  0  0  0  0
    9.2051    6.9101   23.4604 C   0  0  0  0  0  0  0  0  0  0  0  0
   11.9646    6.0299   21.4251 C   0  0  0  0  0  0  0  0  0  0  0  0
  1  5  1  0
  1 13  1  0
  2 20  2  0
  2 28  1  0
  2 29  1  0
  3 19  4  0
  3 25  4  0
  4 23  4  0
  4 27  1  0
  4 30  4  0
  5 17  1  0
  6  8  1  0
  6 29  1  0
  7 24  4  0
  7 26  4  0
  8 28  1  0
  9 13  2  0
 10 18  1  0
 10 21  4  0
 10 30  4  0
 11 17  2  0
 12 18  1  0
 13 15  1  0
 14 24  1  0
 15 25  1  0
 16 28  2  0
 17 20  1  0
 19 24  4  0
 20 23  1  0
 21 22  4  0
 22 23  4  0
 25 26  4  0
 27 29  2  0
M  END
$$$$

 Created by Python create_sdf_string function

 30 33  0  0  0  0  0  0  0  0999 V2000
    8.3036    9.8571   18.4133 C   0  0  0  0  0  0  0  0  0  0  0  0
    8.3694    7.6612   22.6703 C   0  0  0  0  0  0  0  0  0  0  0  0
    8.4143    6.6863   16.2273 C   0  0  0  0  0  0  0  0  0  0  0  0
   10.7581    6.5674   21.7636 C   0  0  0  0  0  0  0  0  0  0  0  0
    8.4452    8.7960   19.2958 O   0  0  0  0  0  0  0  0  0  0  0  0
    8.7122    6.7842   24.8569 C   0  0  0  0  0  0  0  0  0  0  0  0
   10.3400    6.1726   14.3081 C   0  0  0  0  0  0  0  0  0  0  0  0
    7.4297    7.5873   24.8962 C   0  0  0  0  0  0  0  0  0  0  0  0
    8.1566   10.0536   16.0516 O   0  0  0  0  0  0  0  0  0  0  0  0
   12.4989    6.2074   20.1776 C   0  0  0  0  0  0  0  0  0  0  0  0
    6.9192    9.1053   20.9073 O   0  0  0  0  0  0  0  0  0  0  0  0
   14.3979    6.0729   18.7784 C   0  0  0  0  0  0  0  0  0  0  0  0
    8.6811    9.5354   16.9998 C   0  0  0  0  0  0  0  0  0  0  0  0
    9.2512    4.2713   13.7653 O   0  0  0  0  0  0  0  0  0  0  0  0
    9.6495    8.6317   16.8332 N   0  0  0  0  0  0  0  0  0  0  0  0
    6.2934    8.6988   23.1988 O   0  0  0  0  0  0  0  0  0  0  0  0
    7.9806    8.6543   20.5437 C   0  0  0  0  0  0  0  0  0  0  0  0
   13.7270    5.7144   19.8610 O   0  0  0  0  0  0  0  0  0  0  0  0
    8.3351    5.5235   15.4478 C   0  0  0  0  0  0  0  0  0  0  0  0
    8.7700    7.8434   21.3915 C   0  0  0  0  0  0  0  0  0  0  0  0
   11.7856    6.8851   19.2401 C   0  0  0  0  0  0  0  0  0  0  0  0
   10.5281    7.4276   19.5649 C   0  0  0  0  0  0  0  0  0  0  0  0
   10.0256    7.2907   20.8484 C   0  0  0  0  0  0  0  0  0  0  0  0
    9.3113    5.3049   14.4911 C   0  0  0  0  0  0  0  0  0  0  0  0
    9.4607    7.5646   16.0139 C   0  0  0  0  0  0  0  0  0  0  0  0
   10.4192    7.3157   15.0955 C   0  0  0  0  0  0  0  0  0  0  0  0
   10.2489    6.4227   23.0218 N   0  0  0  0  0  0  0  0  0  0  0  0
    7.2472    8.0746   23.5050 C   0  0  0  0  0  0  0  0  0  0  0  0
    9.2051    6.9101   23.4604 C   0  0  0  0  0  0  0  0  0  0  0  0
   11.9646    6.0299   21.4251 C   0  0  0  0  0  0  0  0  0  0  0  0
  1  5  1  0
  1 13  1  0
  2 20  2  0
  2 28  1  0
  2 29  1  0
  3 19  4  0
  3 25  4  0
  4 23  4  0
  4 27  1  0
  4 30  4  0
  5 17  1  0
  6  8  1  0
  6 29  1  0
  7 24  4  0
  7 26  4  0
  8 28  1  0
  9 13  2  0
 10 18  1  0
 10 21  4  0
 10 30  4  0
 11 17  2  0
 12 18  1  0
 13 15  1  0
 14 24  1  0
 15 25  1  0
 16 28  2  0
 17 20  1  0
 19 24  4  0
 20 23  1  0
 21 22  4  0
 22 23  4  0
 25 26  4  0
 27 29  2  0
M  END
$$$$

 Created by Python create_sdf_string function

 30 33  0  0  0  0  0  0  0  0999 V2000
    8.3036    9.8571   18.4133 C   0  0  0  0  0  0  0  0  0  0  0  0
    8.3694    7.6612   22.6703 C   0  0  0  0  0  0  0  0  0  0  0  0
    8.4143    6.6863   16.2273 C   0  0  0  0  0  0  0  0  0  0  0  0
   10.7581    6.5674   21.7636 C   0  0  0  0  0  0  0  0  0  0  0  0
    8.4452    8.7960   19.2958 O   0  0  0  0  0  0  0  0  0  0  0  0
    8.7122    6.7842   24.8569 C   0  0  0  0  0  0  0  0  0  0  0  0
   10.3400    6.1726   14.3081 C   0  0  0  0  0  0  0  0  0  0  0  0
    7.4297    7.5873   24.8962 C   0  0  0  0  0  0  0  0  0  0  0  0
    8.1566   10.0536   16.0516 O   0  0  0  0  0  0  0  0  0  0  0  0
   12.4989    6.2074   20.1776 C   0  0  0  0  0  0  0  0  0  0  0  0
    6.9192    9.1053   20.9073 O   0  0  0  0  0  0  0  0  0  0  0  0
   14.3979    6.0729   18.7784 C   0  0  0  0  0  0  0  0  0  0  0  0
    8.6811    9.5354   16.9998 C   0  0  0  0  0  0  0  0  0  0  0  0
    9.2512    4.2713   13.7653 O   0  0  0  0  0  0  0  0  0  0  0  0
    9.6495    8.6317   16.8332 N   0  0  0  0  0  0  0  0  0  0  0  0
    6.2934    8.6988   23.1988 O   0  0  0  0  0  0  0  0  0  0  0  0
    7.9806    8.6543   20.5437 C   0  0  0  0  0  0  0  0  0  0  0  0
   13.7270    5.7144   19.8610 O   0  0  0  0  0  0  0  0  0  0  0  0
    8.3351    5.5235   15.4478 C   0  0  0  0  0  0  0  0  0  0  0  0
    8.7700    7.8434   21.3915 C   0  0  0  0  0  0  0  0  0  0  0  0
   11.7856    6.8851   19.2401 C   0  0  0  0  0  0  0  0  0  0  0  0
   10.5281    7.4276   19.5649 C   0  0  0  0  0  0  0  0  0  0  0  0
   10.0256    7.2907   20.8484 C   0  0  0  0  0  0  0  0  0  0  0  0
    9.3113    5.3049   14.4911 C   0  0  0  0  0  0  0  0  0  0  0  0
    9.4607    7.5646   16.0139 C   0  0  0  0  0  0  0  0  0  0  0  0
   10.4192    7.3157   15.0955 C   0  0  0  0  0  0  0  0  0  0  0  0
   10.2489    6.4227   23.0218 N   0  0  0  0  0  0  0  0  0  0  0  0
    7.2472    8.0746   23.5050 C   0  0  0  0  0  0  0  0  0  0  0  0
    9.2051    6.9101   23.4604 C   0  0  0  0  0  0  0  0  0  0  0  0
   11.9646    6.0299   21.4251 C   0  0  0  0  0  0  0  0  0  0  0  0
  1  5  1  0
  1 13  1  0
  2 20  2  0
  2 28  1  0
  2 29  1  0
  3 19  4  0
  3 25  4  0
  4 23  4  0
  4 27  1  0
  4 30  4  0
  5 17  1  0
  6  8  1  0
  6 29  1  0
  7 24  4  0
  7 26  4  0
  8 28  1  0
  9 13  2  0
 10 18  1  0
 10 21  4  0
 10 30  4  0
 11 17  2  0
 12 18  1  0
 13 15  1  0
 14 24  1  0
 15 25  1  0
 16 28  2  0
 17 20  1  0
 19 24  4  0
 20 23  1  0
 21 22  4  0
 22 23  4  0
 25 26  4  0
 27 29  2  0
M  END
$$$$

 Created by Python create_sdf_string function

 30 33  0  0  0  0  0  0  0  0999 V2000
    8.3036    9.8571   18.4133 C   0  0  0  0  0  0  0  0  0  0  0  0
    8.3694    7.6612   22.6703 C   0  0  0  0  0  0  0  0  0  0  0  0
    8.4143    6.6863   16.2273 C   0  0  0  0  0  0  0  0  0  0  0  0
   10.7581    6.5674   21.7636 C   0  0  0  0  0  0  0  0  0  0  0  0
    8.4452    8.7960   19.2958 O   0  0  0  0  0  0  0  0  0  0  0  0
    8.7122    6.7842   24.8569 C   0  0  0  0  0  0  0  0  0  0  0  0
   10.3400    6.1726   14.3081 C   0  0  0  0  0  0  0  0  0  0  0  0
    7.4297    7.5873   24.8962 C   0  0  0  0  0  0  0  0  0  0  0  0
    8.1566   10.0536   16.0516 O   0  0  0  0  0  0  0  0  0  0  0  0
   12.4989    6.2074   20.1776 C   0  0  0  0  0  0  0  0  0  0  0  0
    6.9192    9.1053   20.9073 O   0  0  0  0  0  0  0  0  0  0  0  0
   14.3979    6.0729   18.7784 C   0  0  0  0  0  0  0  0  0  0  0  0
    8.6811    9.5354   16.9998 C   0  0  0  0  0  0  0  0  0  0  0  0
    9.2512    4.2713   13.7653 O   0  0  0  0  0  0  0  0  0  0  0  0
    9.6495    8.6317   16.8332 N   0  0  0  0  0  0  0  0  0  0  0  0
    6.2934    8.6988   23.1988 O   0  0  0  0  0  0  0  0  0  0  0  0
    7.9806    8.6543   20.5437 C   0  0  0  0  0  0  0  0  0  0  0  0
   13.7270    5.7144   19.8610 O   0  0  0  0  0  0  0  0  0  0  0  0
    8.3351    5.5235   15.4478 C   0  0  0  0  0  0  0  0  0  0  0  0
    8.7700    7.8434   21.3915 C   0  0  0  0  0  0  0  0  0  0  0  0
   11.7856    6.8851   19.2401 C   0  0  0  0  0  0  0  0  0  0  0  0
   10.5281    7.4276   19.5649 C   0  0  0  0  0  0  0  0  0  0  0  0
   10.0256    7.2907   20.8484 C   0  0  0  0  0  0  0  0  0  0  0  0
    9.3113    5.3049   14.4911 C   0  0  0  0  0  0  0  0  0  0  0  0
    9.4607    7.5646   16.0139 C   0  0  0  0  0  0  0  0  0  0  0  0
   10.4192    7.3157   15.0955 C   0  0  0  0  0  0  0  0  0  0  0  0
   10.2489    6.4227   23.0218 N   0  0  0  0  0  0  0  0  0  0  0  0
    7.2472    8.0746   23.5050 C   0  0  0  0  0  0  0  0  0  0  0  0
    9.2051    6.9101   23.4604 C   0  0  0  0  0  0  0  0  0  0  0  0
   11.9646    6.0299   21.4251 C   0  0  0  0  0  0  0  0  0  0  0  0
  1  5  1  0
  1 13  1  0
  2 20  2  0
  2 28  1  0
  2 29  1  0
  3 19  4  0
  3 25  4  0
  4 23  4  0
  4 27  1  0
  4 30  4  0
  5 17  1  0
  6  8  1  0
  6 29  1  0
  7 24  4  0
  7 26  4  0
  8 28  1  0
  9 13  2  0
 10 18  1  0
 10 21  4  0
 10 30  4  0
 11 17  2  0
 12 18  1  0
 13 15  1  0
 14 24  1  0
 15 25  1  0
 16 28  2  0
 17 20  1  0
 19 24  4  0
 20 23  1  0
 21 22  4  0
 22 23  4  0
 25 26  4  0
 27 29  2  0
M  END
$$$$

 Created by Python create_sdf_string function

 30 33  0  0  0  0  0  0  0  0999 V2000
    8.3036    9.8571   18.4133 C   0  0  0  0  0  0  0  0  0  0  0  0
    8.3694    7.6612   22.6703 C   0  0  0  0  0  0  0  0  0  0  0  0
    8.4143    6.6863   16.2273 C   0  0  0  0  0  0  0  0  0  0  0  0
   10.7581    6.5674   21.7636 C   0  0  0  0  0  0  0  0  0  0  0  0
    8.4452    8.7960   19.2958 O   0  0  0  0  0  0  0  0  0  0  0  0
    8.7122    6.7842   24.8569 C   0  0  0  0  0  0  0  0  0  0  0  0
   10.3400    6.1726   14.3081 C   0  0  0  0  0  0  0  0  0  0  0  0
    7.4297    7.5873   24.8962 C   0  0  0  0  0  0  0  0  0  0  0  0
    8.1566   10.0536   16.0516 O   0  0  0  0  0  0  0  0  0  0  0  0
   12.4989    6.2074   20.1776 C   0  0  0  0  0  0  0  0  0  0  0  0
    6.9192    9.1053   20.9073 O   0  0  0  0  0  0  0  0  0  0  0  0
   14.3979    6.0729   18.7784 C   0  0  0  0  0  0  0  0  0  0  0  0
    8.6811    9.5354   16.9998 C   0  0  0  0  0  0  0  0  0  0  0  0
    9.2512    4.2713   13.7653 O   0  0  0  0  0  0  0  0  0  0  0  0
    9.6495    8.6317   16.8332 N   0  0  0  0  0  0  0  0  0  0  0  0
    6.2934    8.6988   23.1988 O   0  0  0  0  0  0  0  0  0  0  0  0
    7.9806    8.6543   20.5437 C   0  0  0  0  0  0  0  0  0  0  0  0
   13.7270    5.7144   19.8610 O   0  0  0  0  0  0  0  0  0  0  0  0
    8.3351    5.5235   15.4478 C   0  0  0  0  0  0  0  0  0  0  0  0
    8.7700    7.8434   21.3915 C   0  0  0  0  0  0  0  0  0  0  0  0
   11.7856    6.8851   19.2401 C   0  0  0  0  0  0  0  0  0  0  0  0
   10.5281    7.4276   19.5649 C   0  0  0  0  0  0  0  0  0  0  0  0
   10.0256    7.2907   20.8484 C   0  0  0  0  0  0  0  0  0  0  0  0
    9.3113    5.3049   14.4911 C   0  0  0  0  0  0  0  0  0  0  0  0
    9.4607    7.5646   16.0139 C   0  0  0  0  0  0  0  0  0  0  0  0
   10.4192    7.3157   15.0955 C   0  0  0  0  0  0  0  0  0  0  0  0
   10.2489    6.4227   23.0218 N   0  0  0  0  0  0  0  0  0  0  0  0
    7.2472    8.0746   23.5050 C   0  0  0  0  0  0  0  0  0  0  0  0
    9.2051    6.9101   23.4604 C   0  0  0  0  0  0  0  0  0  0  0  0
   11.9646    6.0299   21.4251 C   0  0  0  0  0  0  0  0  0  0  0  0
  1  5  1  0
  1 13  1  0
  2 20  2  0
  2 28  1  0
  2 29  1  0
  3 19  4  0
  3 25  4  0
  4 23  4  0
  4 27  1  0
  4 30  4  0
  5 17  1  0
  6  8  1  0
  6 29  1  0
  7 24  4  0
  7 26  4  0
  8 28  1  0
  9 13  2  0
 10 18  1  0
 10 21  4  0
 10 30  4  0
 11 17  2  0
 12 18  1  0
 13 15  1  0
 14 24  1  0
 15 25  1  0
 16 28  2  0
 17 20  1  0
 19 24  4  0
 20 23  1  0
 21 22  4  0
 22 23  4  0
 25 26  4  0
 27 29  2  0
M  END
$$$$

 Created by Python create_sdf_string function

 30 33  0  0  0  0  0  0  0  0999 V2000
    8.3036    9.8571   18.4133 C   0  0  0  0  0  0  0  0  0  0  0  0
    8.3694    7.6612   22.6703 C   0  0  0  0  0  0  0  0  0  0  0  0
    8.4143    6.6863   16.2273 C   0  0  0  0  0  0  0  0  0  0  0  0
   10.7581    6.5674   21.7636 C   0  0  0  0  0  0  0  0  0  0  0  0
    8.4452    8.7960   19.2958 O   0  0  0  0  0  0  0  0  0  0  0  0
    8.7122    6.7842   24.8569 C   0  0  0  0  0  0  0  0  0  0  0  0
   10.3400    6.1726   14.3081 C   0  0  0  0  0  0  0  0  0  0  0  0
    7.4297    7.5873   24.8962 C   0  0  0  0  0  0  0  0  0  0  0  0
    8.1566   10.0536   16.0516 O   0  0  0  0  0  0  0  0  0  0  0  0
   12.4989    6.2074   20.1776 C   0  0  0  0  0  0  0  0  0  0  0  0
    6.9192    9.1053   20.9073 O   0  0  0  0  0  0  0  0  0  0  0  0
   14.3979    6.0729   18.7784 C   0  0  0  0  0  0  0  0  0  0  0  0
    8.6811    9.5354   16.9998 C   0  0  0  0  0  0  0  0  0  0  0  0
    9.2512    4.2713   13.7653 O   0  0  0  0  0  0  0  0  0  0  0  0
    9.6495    8.6317   16.8332 N   0  0  0  0  0  0  0  0  0  0  0  0
    6.2934    8.6988   23.1988 O   0  0  0  0  0  0  0  0  0  0  0  0
    7.9806    8.6543   20.5437 C   0  0  0  0  0  0  0  0  0  0  0  0
   13.7270    5.7144   19.8610 O   0  0  0  0  0  0  0  0  0  0  0  0
    8.3351    5.5235   15.4478 C   0  0  0  0  0  0  0  0  0  0  0  0
    8.7700    7.8434   21.3915 C   0  0  0  0  0  0  0  0  0  0  0  0
   11.7856    6.8851   19.2401 C   0  0  0  0  0  0  0  0  0  0  0  0
   10.5281    7.4276   19.5649 C   0  0  0  0  0  0  0  0  0  0  0  0
   10.0256    7.2907   20.8484 C   0  0  0  0  0  0  0  0  0  0  0  0
    9.3113    5.3049   14.4911 C   0  0  0  0  0  0  0  0  0  0  0  0
    9.4607    7.5646   16.0139 C   0  0  0  0  0  0  0  0  0  0  0  0
   10.4192    7.3157   15.0955 C   0  0  0  0  0  0  0  0  0  0  0  0
   10.2489    6.4227   23.0218 N   0  0  0  0  0  0  0  0  0  0  0  0
    7.2472    8.0746   23.5050 C   0  0  0  0  0  0  0  0  0  0  0  0
    9.2051    6.9101   23.4604 C   0  0  0  0  0  0  0  0  0  0  0  0
   11.9646    6.0299   21.4251 C   0  0  0  0  0  0  0  0  0  0  0  0
  1  5  1  0
  1 13  1  0
  2 20  2  0
  2 28  1  0
  2 29  1  0
  3 19  4  0
  3 25  4  0
  4 23  4  0
  4 27  1  0
  4 30  4  0
  5 17  1  0
  6  8  1  0
  6 29  1  0
  7 24  4  0
  7 26  4  0
  8 28  1  0
  9 13  2  0
 10 18  1  0
 10 21  4  0
 10 30  4  0
 11 17  2  0
 12 18  1  0
 13 15  1  0
 14 24  1  0
 15 25  1  0
 16 28  2  0
 17 20  1  0
 19 24  4  0
 20 23  1  0
 21 22  4  0
 22 23  4  0
 25 26  4  0
 27 29  2  0
M  END
$$$$

 Created by Python create_sdf_string function

 30 33  0  0  0  0  0  0  0  0999 V2000
    8.3036    9.8571   18.4133 C   0  0  0  0  0  0  0  0  0  0  0  0
    8.3694    7.6612   22.6703 C   0  0  0  0  0  0  0  0  0  0  0  0
    8.4143    6.6863   16.2273 C   0  0  0  0  0  0  0  0  0  0  0  0
   10.7581    6.5674   21.7636 C   0  0  0  0  0  0  0  0  0  0  0  0
    8.4452    8.7960   19.2958 O   0  0  0  0  0  0  0  0  0  0  0  0
    8.7122    6.7842   24.8569 C   0  0  0  0  0  0  0  0  0  0  0  0
   10.3400    6.1726   14.3081 C   0  0  0  0  0  0  0  0  0  0  0  0
    7.4297    7.5873   24.8962 C   0  0  0  0  0  0  0  0  0  0  0  0
    8.1566   10.0536   16.0516 O   0  0  0  0  0  0  0  0  0  0  0  0
   12.4989    6.2074   20.1776 C   0  0  0  0  0  0  0  0  0  0  0  0
    6.9192    9.1053   20.9073 O   0  0  0  0  0  0  0  0  0  0  0  0
   14.3979    6.0729   18.7784 C   0  0  0  0  0  0  0  0  0  0  0  0
    8.6811    9.5354   16.9998 C   0  0  0  0  0  0  0  0  0  0  0  0
    9.2512    4.2713   13.7653 O   0  0  0  0  0  0  0  0  0  0  0  0
    9.6495    8.6317   16.8332 N   0  0  0  0  0  0  0  0  0  0  0  0
    6.2934    8.6988   23.1988 O   0  0  0  0  0  0  0  0  0  0  0  0
    7.9806    8.6543   20.5437 C   0  0  0  0  0  0  0  0  0  0  0  0
   13.7270    5.7144   19.8610 O   0  0  0  0  0  0  0  0  0  0  0  0
    8.3351    5.5235   15.4478 C   0  0  0  0  0  0  0  0  0  0  0  0
    8.7700    7.8434   21.3915 C   0  0  0  0  0  0  0  0  0  0  0  0
   11.7856    6.8851   19.2401 C   0  0  0  0  0  0  0  0  0  0  0  0
   10.5281    7.4276   19.5649 C   0  0  0  0  0  0  0  0  0  0  0  0
   10.0256    7.2907   20.8484 C   0  0  0  0  0  0  0  0  0  0  0  0
    9.3113    5.3049   14.4911 C   0  0  0  0  0  0  0  0  0  0  0  0
    9.4607    7.5646   16.0139 C   0  0  0  0  0  0  0  0  0  0  0  0
   10.4192    7.3157   15.0955 C   0  0  0  0  0  0  0  0  0  0  0  0
   10.2489    6.4227   23.0218 N   0  0  0  0  0  0  0  0  0  0  0  0
    7.2472    8.0746   23.5050 C   0  0  0  0  0  0  0  0  0  0  0  0
    9.2051    6.9101   23.4604 C   0  0  0  0  0  0  0  0  0  0  0  0
   11.9646    6.0299   21.4251 C   0  0  0  0  0  0  0  0  0  0  0  0
  1  5  1  0
  1 13  1  0
  2 20  2  0
  2 28  1  0
  2 29  1  0
  3 19  4  0
  3 25  4  0
  4 23  4  0
  4 27  1  0
  4 30  4  0
  5 17  1  0
  6  8  1  0
  6 29  1  0
  7 24  4  0
  7 26  4  0
  8 28  1  0
  9 13  2  0
 10 18  1  0
 10 21  4  0
 10 30  4  0
 11 17  2  0
 12 18  1  0
 13 15  1  0
 14 24  1  0
 15 25  1  0
 16 28  2  0
 17 20  1  0
 19 24  4  0
 20 23  1  0
 21 22  4  0
 22 23  4  0
 25 26  4  0
 27 29  2  0
M  END
$$$$

 Created by Python create_sdf_string function

 30 33  0  0  0  0  0  0  0  0999 V2000
    8.3036    9.8571   18.4133 C   0  0  0  0  0  0  0  0  0  0  0  0
    8.3694    7.6612   22.6703 C   0  0  0  0  0  0  0  0  0  0  0  0
    8.4143    6.6863   16.2273 C   0  0  0  0  0  0  0  0  0  0  0  0
   10.7581    6.5674   21.7636 C   0  0  0  0  0  0  0  0  0  0  0  0
    8.4452    8.7960   19.2958 O   0  0  0  0  0  0  0  0  0  0  0  0
    8.7122    6.7842   24.8569 C   0  0  0  0  0  0  0  0  0  0  0  0
   10.3400    6.1726   14.3081 C   0  0  0  0  0  0  0  0  0  0  0  0
    7.4297    7.5873   24.8962 C   0  0  0  0  0  0  0  0  0  0  0  0
    8.1566   10.0536   16.0516 O   0  0  0  0  0  0  0  0  0  0  0  0
   12.4989    6.2074   20.1776 C   0  0  0  0  0  0  0  0  0  0  0  0
    6.9192    9.1053   20.9073 O   0  0  0  0  0  0  0  0  0  0  0  0
   14.3979    6.0729   18.7784 C   0  0  0  0  0  0  0  0  0  0  0  0
    8.6811    9.5354   16.9998 C   0  0  0  0  0  0  0  0  0  0  0  0
    9.2512    4.2713   13.7653 O   0  0  0  0  0  0  0  0  0  0  0  0
    9.6495    8.6317   16.8332 N   0  0  0  0  0  0  0  0  0  0  0  0
    6.2934    8.6988   23.1988 O   0  0  0  0  0  0  0  0  0  0  0  0
    7.9806    8.6543   20.5437 C   0  0  0  0  0  0  0  0  0  0  0  0
   13.7270    5.7144   19.8610 O   0  0  0  0  0  0  0  0  0  0  0  0
    8.3351    5.5235   15.4478 C   0  0  0  0  0  0  0  0  0  0  0  0
    8.7700    7.8434   21.3915 C   0  0  0  0  0  0  0  0  0  0  0  0
   11.7856    6.8851   19.2401 C   0  0  0  0  0  0  0  0  0  0  0  0
   10.5281    7.4276   19.5649 C   0  0  0  0  0  0  0  0  0  0  0  0
   10.0256    7.2907   20.8484 C   0  0  0  0  0  0  0  0  0  0  0  0
    9.3113    5.3049   14.4911 C   0  0  0  0  0  0  0  0  0  0  0  0
    9.4607    7.5646   16.0139 C   0  0  0  0  0  0  0  0  0  0  0  0
   10.4192    7.3157   15.0955 C   0  0  0  0  0  0  0  0  0  0  0  0
   10.2489    6.4227   23.0218 N   0  0  0  0  0  0  0  0  0  0  0  0
    7.2472    8.0746   23.5050 C   0  0  0  0  0  0  0  0  0  0  0  0
    9.2051    6.9101   23.4604 C   0  0  0  0  0  0  0  0  0  0  0  0
   11.9646    6.0299   21.4251 C   0  0  0  0  0  0  0  0  0  0  0  0
  1  5  1  0
  1 13  1  0
  2 20  2  0
  2 28  1  0
  2 29  1  0
  3 19  4  0
  3 25  4  0
  4 23  4  0
  4 27  1  0
  4 30  4  0
  5 17  1  0
  6  8  1  0
  6 29  1  0
  7 24  4  0
  7 26  4  0
  8 28  1  0
  9 13  2  0
 10 18  1  0
 10 21  4  0
 10 30  4  0
 11 17  2  0
 12 18  1  0
 13 15  1  0
 14 24  1  0
 15 25  1  0
 16 28  2  0
 17 20  1  0
 19 24  4  0
 20 23  1  0
 21 22  4  0
 22 23  4  0
 25 26  4  0
 27 29  2  0
M  END
$$$$

 Created by Python create_sdf_string function

 30 33  0  0  0  0  0  0  0  0999 V2000
    8.3036    9.8571   18.4133 C   0  0  0  0  0  0  0  0  0  0  0  0
    8.3694    7.6612   22.6703 C   0  0  0  0  0  0  0  0  0  0  0  0
    8.4143    6.6863   16.2273 C   0  0  0  0  0  0  0  0  0  0  0  0
   10.7581    6.5674   21.7636 C   0  0  0  0  0  0  0  0  0  0  0  0
    8.4452    8.7960   19.2958 O   0  0  0  0  0  0  0  0  0  0  0  0
    8.7122    6.7842   24.8569 C   0  0  0  0  0  0  0  0  0  0  0  0
   10.3400    6.1726   14.3081 C   0  0  0  0  0  0  0  0  0  0  0  0
    7.4297    7.5873   24.8962 C   0  0  0  0  0  0  0  0  0  0  0  0
    8.1566   10.0536   16.0516 O   0  0  0  0  0  0  0  0  0  0  0  0
   12.4989    6.2074   20.1776 C   0  0  0  0  0  0  0  0  0  0  0  0
    6.9192    9.1053   20.9073 O   0  0  0  0  0  0  0  0  0  0  0  0
   14.3979    6.0729   18.7784 C   0  0  0  0  0  0  0  0  0  0  0  0
    8.6811    9.5354   16.9998 C   0  0  0  0  0  0  0  0  0  0  0  0
    9.2512    4.2713   13.7653 O   0  0  0  0  0  0  0  0  0  0  0  0
    9.6495    8.6317   16.8332 N   0  0  0  0  0  0  0  0  0  0  0  0
    6.2934    8.6988   23.1988 O   0  0  0  0  0  0  0  0  0  0  0  0
    7.9806    8.6543   20.5437 C   0  0  0  0  0  0  0  0  0  0  0  0
   13.7270    5.7144   19.8610 O   0  0  0  0  0  0  0  0  0  0  0  0
    8.3351    5.5235   15.4478 C   0  0  0  0  0  0  0  0  0  0  0  0
    8.7700    7.8434   21.3915 C   0  0  0  0  0  0  0  0  0  0  0  0
   11.7856    6.8851   19.2401 C   0  0  0  0  0  0  0  0  0  0  0  0
   10.5281    7.4276   19.5649 C   0  0  0  0  0  0  0  0  0  0  0  0
   10.0256    7.2907   20.8484 C   0  0  0  0  0  0  0  0  0  0  0  0
    9.3113    5.3049   14.4911 C   0  0  0  0  0  0  0  0  0  0  0  0
    9.4607    7.5646   16.0139 C   0  0  0  0  0  0  0  0  0  0  0  0
   10.4192    7.3157   15.0955 C   0  0  0  0  0  0  0  0  0  0  0  0
   10.2489    6.4227   23.0218 N   0  0  0  0  0  0  0  0  0  0  0  0
    7.2472    8.0746   23.5050 C   0  0  0  0  0  0  0  0  0  0  0  0
    9.2051    6.9101   23.4604 C   0  0  0  0  0  0  0  0  0  0  0  0
   11.9646    6.0299   21.4251 C   0  0  0  0  0  0  0  0  0  0  0  0
  1  5  1  0
  1 13  1  0
  2 20  2  0
  2 28  1  0
  2 29  1  0
  3 19  4  0
  3 25  4  0
  4 23  4  0
  4 27  1  0
  4 30  4  0
  5 17  1  0
  6  8  1  0
  6 29  1  0
  7 24  4  0
  7 26  4  0
  8 28  1  0
  9 13  2  0
 10 18  1  0
 10 21  4  0
 10 30  4  0
 11 17  2  0
 12 18  1  0
 13 15  1  0
 14 24  1  0
 15 25  1  0
 16 28  2  0
 17 20  1  0
 19 24  4  0
 20 23  1  0
 21 22  4  0
 22 23  4  0
 25 26  4  0
 27 29  2  0
M  END
$$$$

 Created by Python create_sdf_string function

 30 33  0  0  0  0  0  0  0  0999 V2000
    8.3036    9.8571   18.4133 C   0  0  0  0  0  0  0  0  0  0  0  0
    8.3694    7.6612   22.6703 C   0  0  0  0  0  0  0  0  0  0  0  0
    8.4143    6.6863   16.2273 C   0  0  0  0  0  0  0  0  0  0  0  0
   10.7581    6.5674   21.7636 C   0  0  0  0  0  0  0  0  0  0  0  0
    8.4452    8.7960   19.2958 O   0  0  0  0  0  0  0  0  0  0  0  0
    8.7122    6.7842   24.8569 C   0  0  0  0  0  0  0  0  0  0  0  0
   10.3400    6.1726   14.3081 C   0  0  0  0  0  0  0  0  0  0  0  0
    7.4297    7.5873   24.8962 C   0  0  0  0  0  0  0  0  0  0  0  0
    8.1566   10.0536   16.0516 O   0  0  0  0  0  0  0  0  0  0  0  0
   12.4989    6.2074   20.1776 C   0  0  0  0  0  0  0  0  0  0  0  0
    6.9192    9.1053   20.9073 O   0  0  0  0  0  0  0  0  0  0  0  0
   14.3979    6.0729   18.7784 C   0  0  0  0  0  0  0  0  0  0  0  0
    8.6811    9.5354   16.9998 C   0  0  0  0  0  0  0  0  0  0  0  0
    9.2512    4.2713   13.7653 O   0  0  0  0  0  0  0  0  0  0  0  0
    9.6495    8.6317   16.8332 N   0  0  0  0  0  0  0  0  0  0  0  0
    6.2934    8.6988   23.1988 O   0  0  0  0  0  0  0  0  0  0  0  0
    7.9806    8.6543   20.5437 C   0  0  0  0  0  0  0  0  0  0  0  0
   13.7270    5.7144   19.8610 O   0  0  0  0  0  0  0  0  0  0  0  0
    8.3351    5.5235   15.4478 C   0  0  0  0  0  0  0  0  0  0  0  0
    8.7700    7.8434   21.3915 C   0  0  0  0  0  0  0  0  0  0  0  0
   11.7856    6.8851   19.2401 C   0  0  0  0  0  0  0  0  0  0  0  0
   10.5281    7.4276   19.5649 C   0  0  0  0  0  0  0  0  0  0  0  0
   10.0256    7.2907   20.8484 C   0  0  0  0  0  0  0  0  0  0  0  0
    9.3113    5.3049   14.4911 C   0  0  0  0  0  0  0  0  0  0  0  0
    9.4607    7.5646   16.0139 C   0  0  0  0  0  0  0  0  0  0  0  0
   10.4192    7.3157   15.0955 C   0  0  0  0  0  0  0  0  0  0  0  0
   10.2489    6.4227   23.0218 N   0  0  0  0  0  0  0  0  0  0  0  0
    7.2472    8.0746   23.5050 C   0  0  0  0  0  0  0  0  0  0  0  0
    9.2051    6.9101   23.4604 C   0  0  0  0  0  0  0  0  0  0  0  0
   11.9646    6.0299   21.4251 C   0  0  0  0  0  0  0  0  0  0  0  0
  1  5  1  0
  1 13  1  0
  2 20  2  0
  2 28  1  0
  2 29  1  0
  3 19  4  0
  3 25  4  0
  4 23  4  0
  4 27  1  0
  4 30  4  0
  5 17  1  0
  6  8  1  0
  6 29  1  0
  7 24  4  0
  7 26  4  0
  8 28  1  0
  9 13  2  0
 10 18  1  0
 10 21  4  0
 10 30  4  0
 11 17  2  0
 12 18  1  0
 13 15  1  0
 14 24  1  0
 15 25  1  0
 16 28  2  0
 17 20  1  0
 19 24  4  0
 20 23  1  0
 21 22  4  0
 22 23  4  0
 25 26  4  0
 27 29  2  0
M  END
$$$$

 Created by Python create_sdf_string function

 30 33  0  0  0  0  0  0  0  0999 V2000
    8.3036    9.8571   18.4133 C   0  0  0  0  0  0  0  0  0  0  0  0
    8.3694    7.6612   22.6703 C   0  0  0  0  0  0  0  0  0  0  0  0
    8.4143    6.6863   16.2273 C   0  0  0  0  0  0  0  0  0  0  0  0
   10.7581    6.5674   21.7636 C   0  0  0  0  0  0  0  0  0  0  0  0
    8.4452    8.7960   19.2958 O   0  0  0  0  0  0  0  0  0  0  0  0
    8.7122    6.7842   24.8569 C   0  0  0  0  0  0  0  0  0  0  0  0
   10.3400    6.1726   14.3081 C   0  0  0  0  0  0  0  0  0  0  0  0
    7.4297    7.5873   24.8962 C   0  0  0  0  0  0  0  0  0  0  0  0
    8.1566   10.0536   16.0516 O   0  0  0  0  0  0  0  0  0  0  0  0
   12.4989    6.2074   20.1776 C   0  0  0  0  0  0  0  0  0  0  0  0
    6.9192    9.1053   20.9073 O   0  0  0  0  0  0  0  0  0  0  0  0
   14.3979    6.0729   18.7784 C   0  0  0  0  0  0  0  0  0  0  0  0
    8.6811    9.5354   16.9998 C   0  0  0  0  0  0  0  0  0  0  0  0
    9.2512    4.2713   13.7653 O   0  0  0  0  0  0  0  0  0  0  0  0
    9.6495    8.6317   16.8332 N   0  0  0  0  0  0  0  0  0  0  0  0
    6.2934    8.6988   23.1988 O   0  0  0  0  0  0  0  0  0  0  0  0
    7.9806    8.6543   20.5437 C   0  0  0  0  0  0  0  0  0  0  0  0
   13.7270    5.7144   19.8610 O   0  0  0  0  0  0  0  0  0  0  0  0
    8.3351    5.5235   15.4478 C   0  0  0  0  0  0  0  0  0  0  0  0
    8.7700    7.8434   21.3915 C   0  0  0  0  0  0  0  0  0  0  0  0
   11.7856    6.8851   19.2401 C   0  0  0  0  0  0  0  0  0  0  0  0
   10.5281    7.4276   19.5649 C   0  0  0  0  0  0  0  0  0  0  0  0
   10.0256    7.2907   20.8484 C   0  0  0  0  0  0  0  0  0  0  0  0
    9.3113    5.3049   14.4911 C   0  0  0  0  0  0  0  0  0  0  0  0
    9.4607    7.5646   16.0139 C   0  0  0  0  0  0  0  0  0  0  0  0
   10.4192    7.3157   15.0955 C   0  0  0  0  0  0  0  0  0  0  0  0
   10.2489    6.4227   23.0218 N   0  0  0  0  0  0  0  0  0  0  0  0
    7.2472    8.0746   23.5050 C   0  0  0  0  0  0  0  0  0  0  0  0
    9.2051    6.9101   23.4604 C   0  0  0  0  0  0  0  0  0  0  0  0
   11.9646    6.0299   21.4251 C   0  0  0  0  0  0  0  0  0  0  0  0
  1  5  1  0
  1 13  1  0
  2 20  2  0
  2 28  1  0
  2 29  1  0
  3 19  4  0
  3 25  4  0
  4 23  4  0
  4 27  1  0
  4 30  4  0
  5 17  1  0
  6  8  1  0
  6 29  1  0
  7 24  4  0
  7 26  4  0
  8 28  1  0
  9 13  2  0
 10 18  1  0
 10 21  4  0
 10 30  4  0
 11 17  2  0
 12 18  1  0
 13 15  1  0
 14 24  1  0
 15 25  1  0
 16 28  2  0
 17 20  1  0
 19 24  4  0
 20 23  1  0
 21 22  4  0
 22 23  4  0
 25 26  4  0
 27 29  2  0
M  END
$$$$

 Created by Python create_sdf_string function

 30 33  0  0  0  0  0  0  0  0999 V2000
    8.3036    9.8571   18.4133 C   0  0  0  0  0  0  0  0  0  0  0  0
    8.3694    7.6612   22.6703 C   0  0  0  0  0  0  0  0  0  0  0  0
    8.4143    6.6863   16.2273 C   0  0  0  0  0  0  0  0  0  0  0  0
   10.7581    6.5674   21.7636 C   0  0  0  0  0  0  0  0  0  0  0  0
    8.4452    8.7960   19.2958 O   0  0  0  0  0  0  0  0  0  0  0  0
    8.7122    6.7842   24.8569 C   0  0  0  0  0  0  0  0  0  0  0  0
   10.3400    6.1726   14.3081 C   0  0  0  0  0  0  0  0  0  0  0  0
    7.4297    7.5873   24.8962 C   0  0  0  0  0  0  0  0  0  0  0  0
    8.1566   10.0536   16.0516 O   0  0  0  0  0  0  0  0  0  0  0  0
   12.4989    6.2074   20.1776 C   0  0  0  0  0  0  0  0  0  0  0  0
    6.9192    9.1053   20.9073 O   0  0  0  0  0  0  0  0  0  0  0  0
   14.3979    6.0729   18.7784 C   0  0  0  0  0  0  0  0  0  0  0  0
    8.6811    9.5354   16.9998 C   0  0  0  0  0  0  0  0  0  0  0  0
    9.2512    4.2713   13.7653 O   0  0  0  0  0  0  0  0  0  0  0  0
    9.6495    8.6317   16.8332 N   0  0  0  0  0  0  0  0  0  0  0  0
    6.2934    8.6988   23.1988 O   0  0  0  0  0  0  0  0  0  0  0  0
    7.9806    8.6543   20.5437 C   0  0  0  0  0  0  0  0  0  0  0  0
   13.7270    5.7144   19.8610 O   0  0  0  0  0  0  0  0  0  0  0  0
    8.3351    5.5235   15.4478 C   0  0  0  0  0  0  0  0  0  0  0  0
    8.7700    7.8434   21.3915 C   0  0  0  0  0  0  0  0  0  0  0  0
   11.7856    6.8851   19.2401 C   0  0  0  0  0  0  0  0  0  0  0  0
   10.5281    7.4276   19.5649 C   0  0  0  0  0  0  0  0  0  0  0  0
   10.0256    7.2907   20.8484 C   0  0  0  0  0  0  0  0  0  0  0  0
    9.3113    5.3049   14.4911 C   0  0  0  0  0  0  0  0  0  0  0  0
    9.4607    7.5646   16.0139 C   0  0  0  0  0  0  0  0  0  0  0  0
   10.4192    7.3157   15.0955 C   0  0  0  0  0  0  0  0  0  0  0  0
   10.2489    6.4227   23.0218 N   0  0  0  0  0  0  0  0  0  0  0  0
    7.2472    8.0746   23.5050 C   0  0  0  0  0  0  0  0  0  0  0  0
    9.2051    6.9101   23.4604 C   0  0  0  0  0  0  0  0  0  0  0  0
   11.9646    6.0299   21.4251 C   0  0  0  0  0  0  0  0  0  0  0  0
  1  5  1  0
  1 13  1  0
  2 20  2  0
  2 28  1  0
  2 29  1  0
  3 19  4  0
  3 25  4  0
  4 23  4  0
  4 27  1  0
  4 30  4  0
  5 17  1  0
  6  8  1  0
  6 29  1  0
  7 24  4  0
  7 26  4  0
  8 28  1  0
  9 13  2  0
 10 18  1  0
 10 21  4  0
 10 30  4  0
 11 17  2  0
 12 18  1  0
 13 15  1  0
 14 24  1  0
 15 25  1  0
 16 28  2  0
 17 20  1  0
 19 24  4  0
 20 23  1  0
 21 22  4  0
 22 23  4  0
 25 26  4  0
 27 29  2  0
M  END
$$$$

 Created by Python create_sdf_string function

 30 33  0  0  0  0  0  0  0  0999 V2000
    8.3036    9.8571   18.4133 C   0  0  0  0  0  0  0  0  0  0  0  0
    8.3694    7.6612   22.6703 C   0  0  0  0  0  0  0  0  0  0  0  0
    8.4143    6.6863   16.2273 C   0  0  0  0  0  0  0  0  0  0  0  0
   10.7581    6.5674   21.7636 C   0  0  0  0  0  0  0  0  0  0  0  0
    8.4452    8.7960   19.2958 O   0  0  0  0  0  0  0  0  0  0  0  0
    8.7122    6.7842   24.8569 C   0  0  0  0  0  0  0  0  0  0  0  0
   10.3400    6.1726   14.3081 C   0  0  0  0  0  0  0  0  0  0  0  0
    7.4297    7.5873   24.8962 C   0  0  0  0  0  0  0  0  0  0  0  0
    8.1566   10.0536   16.0516 O   0  0  0  0  0  0  0  0  0  0  0  0
   12.4989    6.2074   20.1776 C   0  0  0  0  0  0  0  0  0  0  0  0
    6.9192    9.1053   20.9073 O   0  0  0  0  0  0  0  0  0  0  0  0
   14.3979    6.0729   18.7784 C   0  0  0  0  0  0  0  0  0  0  0  0
    8.6811    9.5354   16.9998 C   0  0  0  0  0  0  0  0  0  0  0  0
    9.2512    4.2713   13.7653 O   0  0  0  0  0  0  0  0  0  0  0  0
    9.6495    8.6317   16.8332 N   0  0  0  0  0  0  0  0  0  0  0  0
    6.2934    8.6988   23.1988 O   0  0  0  0  0  0  0  0  0  0  0  0
    7.9806    8.6543   20.5437 C   0  0  0  0  0  0  0  0  0  0  0  0
   13.7270    5.7144   19.8610 O   0  0  0  0  0  0  0  0  0  0  0  0
    8.3351    5.5235   15.4478 C   0  0  0  0  0  0  0  0  0  0  0  0
    8.7700    7.8434   21.3915 C   0  0  0  0  0  0  0  0  0  0  0  0
   11.7856    6.8851   19.2401 C   0  0  0  0  0  0  0  0  0  0  0  0
   10.5281    7.4276   19.5649 C   0  0  0  0  0  0  0  0  0  0  0  0
   10.0256    7.2907   20.8484 C   0  0  0  0  0  0  0  0  0  0  0  0
    9.3113    5.3049   14.4911 C   0  0  0  0  0  0  0  0  0  0  0  0
    9.4607    7.5646   16.0139 C   0  0  0  0  0  0  0  0  0  0  0  0
   10.4192    7.3157   15.0955 C   0  0  0  0  0  0  0  0  0  0  0  0
   10.2489    6.4227   23.0218 N   0  0  0  0  0  0  0  0  0  0  0  0
    7.2472    8.0746   23.5050 C   0  0  0  0  0  0  0  0  0  0  0  0
    9.2051    6.9101   23.4604 C   0  0  0  0  0  0  0  0  0  0  0  0
   11.9646    6.0299   21.4251 C   0  0  0  0  0  0  0  0  0  0  0  0
  1  5  1  0
  1 13  1  0
  2 20  2  0
  2 28  1  0
  2 29  1  0
  3 19  4  0
  3 25  4  0
  4 23  4  0
  4 27  1  0
  4 30  4  0
  5 17  1  0
  6  8  1  0
  6 29  1  0
  7 24  4  0
  7 26  4  0
  8 28  1  0
  9 13  2  0
 10 18  1  0
 10 21  4  0
 10 30  4  0
 11 17  2  0
 12 18  1  0
 13 15  1  0
 14 24  1  0
 15 25  1  0
 16 28  2  0
 17 20  1  0
 19 24  4  0
 20 23  1  0
 21 22  4  0
 22 23  4  0
 25 26  4  0
 27 29  2  0
M  END
$$$$

 Created by Python create_sdf_string function

 30 33  0  0  0  0  0  0  0  0999 V2000
    8.3036    9.8571   18.4133 C   0  0  0  0  0  0  0  0  0  0  0  0
    8.3694    7.6612   22.6703 C   0  0  0  0  0  0  0  0  0  0  0  0
    8.4143    6.6863   16.2273 C   0  0  0  0  0  0  0  0  0  0  0  0
   10.7581    6.5674   21.7636 C   0  0  0  0  0  0  0  0  0  0  0  0
    8.4452    8.7960   19.2958 O   0  0  0  0  0  0  0  0  0  0  0  0
    8.7122    6.7842   24.8569 C   0  0  0  0  0  0  0  0  0  0  0  0
   10.3400    6.1726   14.3081 C   0  0  0  0  0  0  0  0  0  0  0  0
    7.4297    7.5873   24.8962 C   0  0  0  0  0  0  0  0  0  0  0  0
    8.1566   10.0536   16.0516 O   0  0  0  0  0  0  0  0  0  0  0  0
   12.4989    6.2074   20.1776 C   0  0  0  0  0  0  0  0  0  0  0  0
    6.9192    9.1053   20.9073 O   0  0  0  0  0  0  0  0  0  0  0  0
   14.3979    6.0729   18.7784 C   0  0  0  0  0  0  0  0  0  0  0  0
    8.6811    9.5354   16.9998 C   0  0  0  0  0  0  0  0  0  0  0  0
    9.2512    4.2713   13.7653 O   0  0  0  0  0  0  0  0  0  0  0  0
    9.6495    8.6317   16.8332 N   0  0  0  0  0  0  0  0  0  0  0  0
    6.2934    8.6988   23.1988 O   0  0  0  0  0  0  0  0  0  0  0  0
    7.9806    8.6543   20.5437 C   0  0  0  0  0  0  0  0  0  0  0  0
   13.7270    5.7144   19.8610 O   0  0  0  0  0  0  0  0  0  0  0  0
    8.3351    5.5235   15.4478 C   0  0  0  0  0  0  0  0  0  0  0  0
    8.7700    7.8434   21.3915 C   0  0  0  0  0  0  0  0  0  0  0  0
   11.7856    6.8851   19.2401 C   0  0  0  0  0  0  0  0  0  0  0  0
   10.5281    7.4276   19.5649 C   0  0  0  0  0  0  0  0  0  0  0  0
   10.0256    7.2907   20.8484 C   0  0  0  0  0  0  0  0  0  0  0  0
    9.3113    5.3049   14.4911 C   0  0  0  0  0  0  0  0  0  0  0  0
    9.4607    7.5646   16.0139 C   0  0  0  0  0  0  0  0  0  0  0  0
   10.4192    7.3157   15.0955 C   0  0  0  0  0  0  0  0  0  0  0  0
   10.2489    6.4227   23.0218 N   0  0  0  0  0  0  0  0  0  0  0  0
    7.2472    8.0746   23.5050 C   0  0  0  0  0  0  0  0  0  0  0  0
    9.2051    6.9101   23.4604 C   0  0  0  0  0  0  0  0  0  0  0  0
   11.9646    6.0299   21.4251 C   0  0  0  0  0  0  0  0  0  0  0  0
  1  5  1  0
  1 13  1  0
  2 20  2  0
  2 28  1  0
  2 29  1  0
  3 19  4  0
  3 25  4  0
  4 23  4  0
  4 27  1  0
  4 30  4  0
  5 17  1  0
  6  8  1  0
  6 29  1  0
  7 24  4  0
  7 26  4  0
  8 28  1  0
  9 13  2  0
 10 18  1  0
 10 21  4  0
 10 30  4  0
 11 17  2  0
 12 18  1  0
 13 15  1  0
 14 24  1  0
 15 25  1  0
 16 28  2  0
 17 20  1  0
 19 24  4  0
 20 23  1  0
 21 22  4  0
 22 23  4  0
 25 26  4  0
 27 29  2  0
M  END
$$$$

 Created by Python create_sdf_string function

 30 33  0  0  0  0  0  0  0  0999 V2000
    8.3036    9.8571   18.4133 C   0  0  0  0  0  0  0  0  0  0  0  0
    8.3694    7.6612   22.6703 C   0  0  0  0  0  0  0  0  0  0  0  0
    8.4143    6.6863   16.2273 C   0  0  0  0  0  0  0  0  0  0  0  0
   10.7581    6.5674   21.7636 C   0  0  0  0  0  0  0  0  0  0  0  0
    8.4452    8.7960   19.2958 O   0  0  0  0  0  0  0  0  0  0  0  0
    8.7122    6.7842   24.8569 C   0  0  0  0  0  0  0  0  0  0  0  0
   10.3400    6.1726   14.3081 C   0  0  0  0  0  0  0  0  0  0  0  0
    7.4297    7.5873   24.8962 C   0  0  0  0  0  0  0  0  0  0  0  0
    8.1566   10.0536   16.0516 O   0  0  0  0  0  0  0  0  0  0  0  0
   12.4989    6.2074   20.1776 C   0  0  0  0  0  0  0  0  0  0  0  0
    6.9192    9.1053   20.9073 O   0  0  0  0  0  0  0  0  0  0  0  0
   14.3979    6.0729   18.7784 C   0  0  0  0  0  0  0  0  0  0  0  0
    8.6811    9.5354   16.9998 C   0  0  0  0  0  0  0  0  0  0  0  0
    9.2512    4.2713   13.7653 O   0  0  0  0  0  0  0  0  0  0  0  0
    9.6495    8.6317   16.8332 N   0  0  0  0  0  0  0  0  0  0  0  0
    6.2934    8.6988   23.1988 O   0  0  0  0  0  0  0  0  0  0  0  0
    7.9806    8.6543   20.5437 C   0  0  0  0  0  0  0  0  0  0  0  0
   13.7270    5.7144   19.8610 O   0  0  0  0  0  0  0  0  0  0  0  0
    8.3351    5.5235   15.4478 C   0  0  0  0  0  0  0  0  0  0  0  0
    8.7700    7.8434   21.3915 C   0  0  0  0  0  0  0  0  0  0  0  0
   11.7856    6.8851   19.2401 C   0  0  0  0  0  0  0  0  0  0  0  0
   10.5281    7.4276   19.5649 C   0  0  0  0  0  0  0  0  0  0  0  0
   10.0256    7.2907   20.8484 C   0  0  0  0  0  0  0  0  0  0  0  0
    9.3113    5.3049   14.4911 C   0  0  0  0  0  0  0  0  0  0  0  0
    9.4607    7.5646   16.0139 C   0  0  0  0  0  0  0  0  0  0  0  0
   10.4192    7.3157   15.0955 C   0  0  0  0  0  0  0  0  0  0  0  0
   10.2489    6.4227   23.0218 N   0  0  0  0  0  0  0  0  0  0  0  0
    7.2472    8.0746   23.5050 C   0  0  0  0  0  0  0  0  0  0  0  0
    9.2051    6.9101   23.4604 C   0  0  0  0  0  0  0  0  0  0  0  0
   11.9646    6.0299   21.4251 C   0  0  0  0  0  0  0  0  0  0  0  0
  1  5  1  0
  1 13  1  0
  2 20  2  0
  2 28  1  0
  2 29  1  0
  3 19  4  0
  3 25  4  0
  4 23  4  0
  4 27  1  0
  4 30  4  0
  5 17  1  0
  6  8  1  0
  6 29  1  0
  7 24  4  0
  7 26  4  0
  8 28  1  0
  9 13  2  0
 10 18  1  0
 10 21  4  0
 10 30  4  0
 11 17  2  0
 12 18  1  0
 13 15  1  0
 14 24  1  0
 15 25  1  0
 16 28  2  0
 17 20  1  0
 19 24  4  0
 20 23  1  0
 21 22  4  0
 22 23  4  0
 25 26  4  0
 27 29  2  0
M  END
$$$$

 Created by Python create_sdf_string function

 30 33  0  0  0  0  0  0  0  0999 V2000
    8.3036    9.8571   18.4133 C   0  0  0  0  0  0  0  0  0  0  0  0
    8.3694    7.6612   22.6703 C   0  0  0  0  0  0  0  0  0  0  0  0
    8.4143    6.6863   16.2273 C   0  0  0  0  0  0  0  0  0  0  0  0
   10.7581    6.5674   21.7636 C   0  0  0  0  0  0  0  0  0  0  0  0
    8.4452    8.7960   19.2958 O   0  0  0  0  0  0  0  0  0  0  0  0
    8.7122    6.7842   24.8569 C   0  0  0  0  0  0  0  0  0  0  0  0
   10.3400    6.1726   14.3081 C   0  0  0  0  0  0  0  0  0  0  0  0
    7.4297    7.5873   24.8962 C   0  0  0  0  0  0  0  0  0  0  0  0
    8.1566   10.0536   16.0516 O   0  0  0  0  0  0  0  0  0  0  0  0
   12.4989    6.2074   20.1776 C   0  0  0  0  0  0  0  0  0  0  0  0
    6.9192    9.1053   20.9073 O   0  0  0  0  0  0  0  0  0  0  0  0
   14.3979    6.0729   18.7784 C   0  0  0  0  0  0  0  0  0  0  0  0
    8.6811    9.5354   16.9998 C   0  0  0  0  0  0  0  0  0  0  0  0
    9.2512    4.2713   13.7653 O   0  0  0  0  0  0  0  0  0  0  0  0
    9.6495    8.6317   16.8332 N   0  0  0  0  0  0  0  0  0  0  0  0
    6.2934    8.6988   23.1988 O   0  0  0  0  0  0  0  0  0  0  0  0
    7.9806    8.6543   20.5437 C   0  0  0  0  0  0  0  0  0  0  0  0
   13.7270    5.7144   19.8610 O   0  0  0  0  0  0  0  0  0  0  0  0
    8.3351    5.5235   15.4478 C   0  0  0  0  0  0  0  0  0  0  0  0
    8.7700    7.8434   21.3915 C   0  0  0  0  0  0  0  0  0  0  0  0
   11.7856    6.8851   19.2401 C   0  0  0  0  0  0  0  0  0  0  0  0
   10.5281    7.4276   19.5649 C   0  0  0  0  0  0  0  0  0  0  0  0
   10.0256    7.2907   20.8484 C   0  0  0  0  0  0  0  0  0  0  0  0
    9.3113    5.3049   14.4911 C   0  0  0  0  0  0  0  0  0  0  0  0
    9.4607    7.5646   16.0139 C   0  0  0  0  0  0  0  0  0  0  0  0
   10.4192    7.3157   15.0955 C   0  0  0  0  0  0  0  0  0  0  0  0
   10.2489    6.4227   23.0218 N   0  0  0  0  0  0  0  0  0  0  0  0
    7.2472    8.0746   23.5050 C   0  0  0  0  0  0  0  0  0  0  0  0
    9.2051    6.9101   23.4604 C   0  0  0  0  0  0  0  0  0  0  0  0
   11.9646    6.0299   21.4251 C   0  0  0  0  0  0  0  0  0  0  0  0
  1  5  1  0
  1 13  1  0
  2 20  2  0
  2 28  1  0
  2 29  1  0
  3 19  4  0
  3 25  4  0
  4 23  4  0
  4 27  1  0
  4 30  4  0
  5 17  1  0
  6  8  1  0
  6 29  1  0
  7 24  4  0
  7 26  4  0
  8 28  1  0
  9 13  2  0
 10 18  1  0
 10 21  4  0
 10 30  4  0
 11 17  2  0
 12 18  1  0
 13 15  1  0
 14 24  1  0
 15 25  1  0
 16 28  2  0
 17 20  1  0
 19 24  4  0
 20 23  1  0
 21 22  4  0
 22 23  4  0
 25 26  4  0
 27 29  2  0
M  END
$$$$

 Created by Python create_sdf_string function

 30 33  0  0  0  0  0  0  0  0999 V2000
    8.3036    9.8571   18.4133 C   0  0  0  0  0  0  0  0  0  0  0  0
    8.3694    7.6612   22.6703 C   0  0  0  0  0  0  0  0  0  0  0  0
    8.4143    6.6863   16.2273 C   0  0  0  0  0  0  0  0  0  0  0  0
   10.7581    6.5674   21.7636 C   0  0  0  0  0  0  0  0  0  0  0  0
    8.4452    8.7960   19.2958 O   0  0  0  0  0  0  0  0  0  0  0  0
    8.7122    6.7842   24.8569 C   0  0  0  0  0  0  0  0  0  0  0  0
   10.3400    6.1726   14.3081 C   0  0  0  0  0  0  0  0  0  0  0  0
    7.4297    7.5873   24.8962 C   0  0  0  0  0  0  0  0  0  0  0  0
    8.1566   10.0536   16.0516 O   0  0  0  0  0  0  0  0  0  0  0  0
   12.4989    6.2074   20.1776 C   0  0  0  0  0  0  0  0  0  0  0  0
    6.9192    9.1053   20.9073 O   0  0  0  0  0  0  0  0  0  0  0  0
   14.3979    6.0729   18.7784 C   0  0  0  0  0  0  0  0  0  0  0  0
    8.6811    9.5354   16.9998 C   0  0  0  0  0  0  0  0  0  0  0  0
    9.2512    4.2713   13.7653 O   0  0  0  0  0  0  0  0  0  0  0  0
    9.6495    8.6317   16.8332 N   0  0  0  0  0  0  0  0  0  0  0  0
    6.2934    8.6988   23.1988 O   0  0  0  0  0  0  0  0  0  0  0  0
    7.9806    8.6543   20.5437 C   0  0  0  0  0  0  0  0  0  0  0  0
   13.7270    5.7144   19.8610 O   0  0  0  0  0  0  0  0  0  0  0  0
    8.3351    5.5235   15.4478 C   0  0  0  0  0  0  0  0  0  0  0  0
    8.7700    7.8434   21.3915 C   0  0  0  0  0  0  0  0  0  0  0  0
   11.7856    6.8851   19.2401 C   0  0  0  0  0  0  0  0  0  0  0  0
   10.5281    7.4276   19.5649 C   0  0  0  0  0  0  0  0  0  0  0  0
   10.0256    7.2907   20.8484 C   0  0  0  0  0  0  0  0  0  0  0  0
    9.3113    5.3049   14.4911 C   0  0  0  0  0  0  0  0  0  0  0  0
    9.4607    7.5646   16.0139 C   0  0  0  0  0  0  0  0  0  0  0  0
   10.4192    7.3157   15.0955 C   0  0  0  0  0  0  0  0  0  0  0  0
   10.2489    6.4227   23.0218 N   0  0  0  0  0  0  0  0  0  0  0  0
    7.2472    8.0746   23.5050 C   0  0  0  0  0  0  0  0  0  0  0  0
    9.2051    6.9101   23.4604 C   0  0  0  0  0  0  0  0  0  0  0  0
   11.9646    6.0299   21.4251 C   0  0  0  0  0  0  0  0  0  0  0  0
  1  5  1  0
  1 13  1  0
  2 20  2  0
  2 28  1  0
  2 29  1  0
  3 19  4  0
  3 25  4  0
  4 23  4  0
  4 27  1  0
  4 30  4  0
  5 17  1  0
  6  8  1  0
  6 29  1  0
  7 24  4  0
  7 26  4  0
  8 28  1  0
  9 13  2  0
 10 18  1  0
 10 21  4  0
 10 30  4  0
 11 17  2  0
 12 18  1  0
 13 15  1  0
 14 24  1  0
 15 25  1  0
 16 28  2  0
 17 20  1  0
 19 24  4  0
 20 23  1  0
 21 22  4  0
 22 23  4  0
 25 26  4  0
 27 29  2  0
M  END
$$$$

 Created by Python create_sdf_string function

 30 33  0  0  0  0  0  0  0  0999 V2000
    8.3036    9.8571   18.4133 C   0  0  0  0  0  0  0  0  0  0  0  0
    8.3694    7.6612   22.6703 C   0  0  0  0  0  0  0  0  0  0  0  0
    8.4143    6.6863   16.2273 C   0  0  0  0  0  0  0  0  0  0  0  0
   10.7581    6.5674   21.7636 C   0  0  0  0  0  0  0  0  0  0  0  0
    8.4452    8.7960   19.2958 O   0  0  0  0  0  0  0  0  0  0  0  0
    8.7122    6.7842   24.8569 C   0  0  0  0  0  0  0  0  0  0  0  0
   10.3400    6.1726   14.3081 C   0  0  0  0  0  0  0  0  0  0  0  0
    7.4297    7.5873   24.8962 C   0  0  0  0  0  0  0  0  0  0  0  0
    8.1566   10.0536   16.0516 O   0  0  0  0  0  0  0  0  0  0  0  0
   12.4989    6.2074   20.1776 C   0  0  0  0  0  0  0  0  0  0  0  0
    6.9192    9.1053   20.9073 O   0  0  0  0  0  0  0  0  0  0  0  0
   14.3979    6.0729   18.7784 C   0  0  0  0  0  0  0  0  0  0  0  0
    8.6811    9.5354   16.9998 C   0  0  0  0  0  0  0  0  0  0  0  0
    9.2512    4.2713   13.7653 O   0  0  0  0  0  0  0  0  0  0  0  0
    9.6495    8.6317   16.8332 N   0  0  0  0  0  0  0  0  0  0  0  0
    6.2934    8.6988   23.1988 O   0  0  0  0  0  0  0  0  0  0  0  0
    7.9806    8.6543   20.5437 C   0  0  0  0  0  0  0  0  0  0  0  0
   13.7270    5.7144   19.8610 O   0  0  0  0  0  0  0  0  0  0  0  0
    8.3351    5.5235   15.4478 C   0  0  0  0  0  0  0  0  0  0  0  0
    8.7700    7.8434   21.3915 C   0  0  0  0  0  0  0  0  0  0  0  0
   11.7856    6.8851   19.2401 C   0  0  0  0  0  0  0  0  0  0  0  0
   10.5281    7.4276   19.5649 C   0  0  0  0  0  0  0  0  0  0  0  0
   10.0256    7.2907   20.8484 C   0  0  0  0  0  0  0  0  0  0  0  0
    9.3113    5.3049   14.4911 C   0  0  0  0  0  0  0  0  0  0  0  0
    9.4607    7.5646   16.0139 C   0  0  0  0  0  0  0  0  0  0  0  0
   10.4192    7.3157   15.0955 C   0  0  0  0  0  0  0  0  0  0  0  0
   10.2489    6.4227   23.0218 N   0  0  0  0  0  0  0  0  0  0  0  0
    7.2472    8.0746   23.5050 C   0  0  0  0  0  0  0  0  0  0  0  0
    9.2051    6.9101   23.4604 C   0  0  0  0  0  0  0  0  0  0  0  0
   11.9646    6.0299   21.4251 C   0  0  0  0  0  0  0  0  0  0  0  0
  1  5  1  0
  1 13  1  0
  2 20  2  0
  2 28  1  0
  2 29  1  0
  3 19  4  0
  3 25  4  0
  4 23  4  0
  4 27  1  0
  4 30  4  0
  5 17  1  0
  6  8  1  0
  6 29  1  0
  7 24  4  0
  7 26  4  0
  8 28  1  0
  9 13  2  0
 10 18  1  0
 10 21  4  0
 10 30  4  0
 11 17  2  0
 12 18  1  0
 13 15  1  0
 14 24  1  0
 15 25  1  0
 16 28  2  0
 17 20  1  0
 19 24  4  0
 20 23  1  0
 21 22  4  0
 22 23  4  0
 25 26  4  0
 27 29  2  0
M  END
$$$$

 Created by Python create_sdf_string function

 30 33  0  0  0  0  0  0  0  0999 V2000
    8.3036    9.8571   18.4133 C   0  0  0  0  0  0  0  0  0  0  0  0
    8.3694    7.6612   22.6703 C   0  0  0  0  0  0  0  0  0  0  0  0
    8.4143    6.6863   16.2273 C   0  0  0  0  0  0  0  0  0  0  0  0
   10.7581    6.5674   21.7636 C   0  0  0  0  0  0  0  0  0  0  0  0
    8.4452    8.7960   19.2958 O   0  0  0  0  0  0  0  0  0  0  0  0
    8.7122    6.7842   24.8569 C   0  0  0  0  0  0  0  0  0  0  0  0
   10.3400    6.1726   14.3081 C   0  0  0  0  0  0  0  0  0  0  0  0
    7.4297    7.5873   24.8962 C   0  0  0  0  0  0  0  0  0  0  0  0
    8.1566   10.0536   16.0516 O   0  0  0  0  0  0  0  0  0  0  0  0
   12.4989    6.2074   20.1776 C   0  0  0  0  0  0  0  0  0  0  0  0
    6.9192    9.1053   20.9073 O   0  0  0  0  0  0  0  0  0  0  0  0
   14.3979    6.0729   18.7784 C   0  0  0  0  0  0  0  0  0  0  0  0
    8.6811    9.5354   16.9998 C   0  0  0  0  0  0  0  0  0  0  0  0
    9.2512    4.2713   13.7653 O   0  0  0  0  0  0  0  0  0  0  0  0
    9.6495    8.6317   16.8332 N   0  0  0  0  0  0  0  0  0  0  0  0
    6.2934    8.6988   23.1988 O   0  0  0  0  0  0  0  0  0  0  0  0
    7.9806    8.6543   20.5437 C   0  0  0  0  0  0  0  0  0  0  0  0
   13.7270    5.7144   19.8610 O   0  0  0  0  0  0  0  0  0  0  0  0
    8.3351    5.5235   15.4478 C   0  0  0  0  0  0  0  0  0  0  0  0
    8.7700    7.8434   21.3915 C   0  0  0  0  0  0  0  0  0  0  0  0
   11.7856    6.8851   19.2401 C   0  0  0  0  0  0  0  0  0  0  0  0
   10.5281    7.4276   19.5649 C   0  0  0  0  0  0  0  0  0  0  0  0
   10.0256    7.2907   20.8484 C   0  0  0  0  0  0  0  0  0  0  0  0
    9.3113    5.3049   14.4911 C   0  0  0  0  0  0  0  0  0  0  0  0
    9.4607    7.5646   16.0139 C   0  0  0  0  0  0  0  0  0  0  0  0
   10.4192    7.3157   15.0955 C   0  0  0  0  0  0  0  0  0  0  0  0
   10.2489    6.4227   23.0218 N   0  0  0  0  0  0  0  0  0  0  0  0
    7.2472    8.0746   23.5050 C   0  0  0  0  0  0  0  0  0  0  0  0
    9.2051    6.9101   23.4604 C   0  0  0  0  0  0  0  0  0  0  0  0
   11.9646    6.0299   21.4251 C   0  0  0  0  0  0  0  0  0  0  0  0
  1  5  1  0
  1 13  1  0
  2 20  2  0
  2 28  1  0
  2 29  1  0
  3 19  4  0
  3 25  4  0
  4 23  4  0
  4 27  1  0
  4 30  4  0
  5 17  1  0
  6  8  1  0
  6 29  1  0
  7 24  4  0
  7 26  4  0
  8 28  1  0
  9 13  2  0
 10 18  1  0
 10 21  4  0
 10 30  4  0
 11 17  2  0
 12 18  1  0
 13 15  1  0
 14 24  1  0
 15 25  1  0
 16 28  2  0
 17 20  1  0
 19 24  4  0
 20 23  1  0
 21 22  4  0
 22 23  4  0
 25 26  4  0
 27 29  2  0
M  END
$$$$

 Created by Python create_sdf_string function

 30 33  0  0  0  0  0  0  0  0999 V2000
    8.3036    9.8571   18.4133 C   0  0  0  0  0  0  0  0  0  0  0  0
    8.3694    7.6612   22.6703 C   0  0  0  0  0  0  0  0  0  0  0  0
    8.4143    6.6863   16.2273 C   0  0  0  0  0  0  0  0  0  0  0  0
   10.7581    6.5674   21.7636 C   0  0  0  0  0  0  0  0  0  0  0  0
    8.4452    8.7960   19.2958 O   0  0  0  0  0  0  0  0  0  0  0  0
    8.7122    6.7842   24.8569 C   0  0  0  0  0  0  0  0  0  0  0  0
   10.3400    6.1726   14.3081 C   0  0  0  0  0  0  0  0  0  0  0  0
    7.4297    7.5873   24.8962 C   0  0  0  0  0  0  0  0  0  0  0  0
    8.1566   10.0536   16.0516 O   0  0  0  0  0  0  0  0  0  0  0  0
   12.4989    6.2074   20.1776 C   0  0  0  0  0  0  0  0  0  0  0  0
    6.9192    9.1053   20.9073 O   0  0  0  0  0  0  0  0  0  0  0  0
   14.3979    6.0729   18.7784 C   0  0  0  0  0  0  0  0  0  0  0  0
    8.6811    9.5354   16.9998 C   0  0  0  0  0  0  0  0  0  0  0  0
    9.2512    4.2713   13.7653 O   0  0  0  0  0  0  0  0  0  0  0  0
    9.6495    8.6317   16.8332 N   0  0  0  0  0  0  0  0  0  0  0  0
    6.2934    8.6988   23.1988 O   0  0  0  0  0  0  0  0  0  0  0  0
    7.9806    8.6543   20.5437 C   0  0  0  0  0  0  0  0  0  0  0  0
   13.7270    5.7144   19.8610 O   0  0  0  0  0  0  0  0  0  0  0  0
    8.3351    5.5235   15.4478 C   0  0  0  0  0  0  0  0  0  0  0  0
    8.7700    7.8434   21.3915 C   0  0  0  0  0  0  0  0  0  0  0  0
   11.7856    6.8851   19.2401 C   0  0  0  0  0  0  0  0  0  0  0  0
   10.5281    7.4276   19.5649 C   0  0  0  0  0  0  0  0  0  0  0  0
   10.0256    7.2907   20.8484 C   0  0  0  0  0  0  0  0  0  0  0  0
    9.3113    5.3049   14.4911 C   0  0  0  0  0  0  0  0  0  0  0  0
    9.4607    7.5646   16.0139 C   0  0  0  0  0  0  0  0  0  0  0  0
   10.4192    7.3157   15.0955 C   0  0  0  0  0  0  0  0  0  0  0  0
   10.2489    6.4227   23.0218 N   0  0  0  0  0  0  0  0  0  0  0  0
    7.2472    8.0746   23.5050 C   0  0  0  0  0  0  0  0  0  0  0  0
    9.2051    6.9101   23.4604 C   0  0  0  0  0  0  0  0  0  0  0  0
   11.9646    6.0299   21.4251 C   0  0  0  0  0  0  0  0  0  0  0  0
  1  5  1  0
  1 13  1  0
  2 20  2  0
  2 28  1  0
  2 29  1  0
  3 19  4  0
  3 25  4  0
  4 23  4  0
  4 27  1  0
  4 30  4  0
  5 17  1  0
  6  8  1  0
  6 29  1  0
  7 24  4  0
  7 26  4  0
  8 28  1  0
  9 13  2  0
 10 18  1  0
 10 21  4  0
 10 30  4  0
 11 17  2  0
 12 18  1  0
 13 15  1  0
 14 24  1  0
 15 25  1  0
 16 28  2  0
 17 20  1  0
 19 24  4  0
 20 23  1  0
 21 22  4  0
 22 23  4  0
 25 26  4  0
 27 29  2  0
M  END
$$$$

 Created by Python create_sdf_string function

 30 33  0  0  0  0  0  0  0  0999 V2000
    8.3036    9.8571   18.4133 C   0  0  0  0  0  0  0  0  0  0  0  0
    8.3694    7.6612   22.6703 C   0  0  0  0  0  0  0  0  0  0  0  0
    8.4143    6.6863   16.2273 C   0  0  0  0  0  0  0  0  0  0  0  0
   10.7581    6.5674   21.7636 C   0  0  0  0  0  0  0  0  0  0  0  0
    8.4452    8.7960   19.2958 O   0  0  0  0  0  0  0  0  0  0  0  0
    8.7122    6.7842   24.8569 C   0  0  0  0  0  0  0  0  0  0  0  0
   10.3400    6.1726   14.3081 C   0  0  0  0  0  0  0  0  0  0  0  0
    7.4297    7.5873   24.8962 C   0  0  0  0  0  0  0  0  0  0  0  0
    8.1566   10.0536   16.0516 O   0  0  0  0  0  0  0  0  0  0  0  0
   12.4989    6.2074   20.1776 C   0  0  0  0  0  0  0  0  0  0  0  0
    6.9192    9.1053   20.9073 O   0  0  0  0  0  0  0  0  0  0  0  0
   14.3979    6.0729   18.7784 C   0  0  0  0  0  0  0  0  0  0  0  0
    8.6811    9.5354   16.9998 C   0  0  0  0  0  0  0  0  0  0  0  0
    9.2512    4.2713   13.7653 O   0  0  0  0  0  0  0  0  0  0  0  0
    9.6495    8.6317   16.8332 N   0  0  0  0  0  0  0  0  0  0  0  0
    6.2934    8.6988   23.1988 O   0  0  0  0  0  0  0  0  0  0  0  0
    7.9806    8.6543   20.5437 C   0  0  0  0  0  0  0  0  0  0  0  0
   13.7270    5.7144   19.8610 O   0  0  0  0  0  0  0  0  0  0  0  0
    8.3351    5.5235   15.4478 C   0  0  0  0  0  0  0  0  0  0  0  0
    8.7700    7.8434   21.3915 C   0  0  0  0  0  0  0  0  0  0  0  0
   11.7856    6.8851   19.2401 C   0  0  0  0  0  0  0  0  0  0  0  0
   10.5281    7.4276   19.5649 C   0  0  0  0  0  0  0  0  0  0  0  0
   10.0256    7.2907   20.8484 C   0  0  0  0  0  0  0  0  0  0  0  0
    9.3113    5.3049   14.4911 C   0  0  0  0  0  0  0  0  0  0  0  0
    9.4607    7.5646   16.0139 C   0  0  0  0  0  0  0  0  0  0  0  0
   10.4192    7.3157   15.0955 C   0  0  0  0  0  0  0  0  0  0  0  0
   10.2489    6.4227   23.0218 N   0  0  0  0  0  0  0  0  0  0  0  0
    7.2472    8.0746   23.5050 C   0  0  0  0  0  0  0  0  0  0  0  0
    9.2051    6.9101   23.4604 C   0  0  0  0  0  0  0  0  0  0  0  0
   11.9646    6.0299   21.4251 C   0  0  0  0  0  0  0  0  0  0  0  0
  1  5  1  0
  1 13  1  0
  2 20  2  0
  2 28  1  0
  2 29  1  0
  3 19  4  0
  3 25  4  0
  4 23  4  0
  4 27  1  0
  4 30  4  0
  5 17  1  0
  6  8  1  0
  6 29  1  0
  7 24  4  0
  7 26  4  0
  8 28  1  0
  9 13  2  0
 10 18  1  0
 10 21  4  0
 10 30  4  0
 11 17  2  0
 12 18  1  0
 13 15  1  0
 14 24  1  0
 15 25  1  0
 16 28  2  0
 17 20  1  0
 19 24  4  0
 20 23  1  0
 21 22  4  0
 22 23  4  0
 25 26  4  0
 27 29  2  0
M  END
$$$$

 Created by Python create_sdf_string function

 30 33  0  0  0  0  0  0  0  0999 V2000
    8.3036    9.8571   18.4133 C   0  0  0  0  0  0  0  0  0  0  0  0
    8.3694    7.6612   22.6703 C   0  0  0  0  0  0  0  0  0  0  0  0
    8.4143    6.6863   16.2273 C   0  0  0  0  0  0  0  0  0  0  0  0
   10.7581    6.5674   21.7636 C   0  0  0  0  0  0  0  0  0  0  0  0
    8.4452    8.7960   19.2958 O   0  0  0  0  0  0  0  0  0  0  0  0
    8.7122    6.7842   24.8569 C   0  0  0  0  0  0  0  0  0  0  0  0
   10.3400    6.1726   14.3081 C   0  0  0  0  0  0  0  0  0  0  0  0
    7.4297    7.5873   24.8962 C   0  0  0  0  0  0  0  0  0  0  0  0
    8.1566   10.0536   16.0516 O   0  0  0  0  0  0  0  0  0  0  0  0
   12.4989    6.2074   20.1776 C   0  0  0  0  0  0  0  0  0  0  0  0
    6.9192    9.1053   20.9073 O   0  0  0  0  0  0  0  0  0  0  0  0
   14.3979    6.0729   18.7784 C   0  0  0  0  0  0  0  0  0  0  0  0
    8.6811    9.5354   16.9998 C   0  0  0  0  0  0  0  0  0  0  0  0
    9.2512    4.2713   13.7653 O   0  0  0  0  0  0  0  0  0  0  0  0
    9.6495    8.6317   16.8332 N   0  0  0  0  0  0  0  0  0  0  0  0
    6.2934    8.6988   23.1988 O   0  0  0  0  0  0  0  0  0  0  0  0
    7.9806    8.6543   20.5437 C   0  0  0  0  0  0  0  0  0  0  0  0
   13.7270    5.7144   19.8610 O   0  0  0  0  0  0  0  0  0  0  0  0
    8.3351    5.5235   15.4478 C   0  0  0  0  0  0  0  0  0  0  0  0
    8.7700    7.8434   21.3915 C   0  0  0  0  0  0  0  0  0  0  0  0
   11.7856    6.8851   19.2401 C   0  0  0  0  0  0  0  0  0  0  0  0
   10.5281    7.4276   19.5649 C   0  0  0  0  0  0  0  0  0  0  0  0
   10.0256    7.2907   20.8484 C   0  0  0  0  0  0  0  0  0  0  0  0
    9.3113    5.3049   14.4911 C   0  0  0  0  0  0  0  0  0  0  0  0
    9.4607    7.5646   16.0139 C   0  0  0  0  0  0  0  0  0  0  0  0
   10.4192    7.3157   15.0955 C   0  0  0  0  0  0  0  0  0  0  0  0
   10.2489    6.4227   23.0218 N   0  0  0  0  0  0  0  0  0  0  0  0
    7.2472    8.0746   23.5050 C   0  0  0  0  0  0  0  0  0  0  0  0
    9.2051    6.9101   23.4604 C   0  0  0  0  0  0  0  0  0  0  0  0
   11.9646    6.0299   21.4251 C   0  0  0  0  0  0  0  0  0  0  0  0
  1  5  1  0
  1 13  1  0
  2 20  2  0
  2 28  1  0
  2 29  1  0
  3 19  4  0
  3 25  4  0
  4 23  4  0
  4 27  1  0
  4 30  4  0
  5 17  1  0
  6  8  1  0
  6 29  1  0
  7 24  4  0
  7 26  4  0
  8 28  1  0
  9 13  2  0
 10 18  1  0
 10 21  4  0
 10 30  4  0
 11 17  2  0
 12 18  1  0
 13 15  1  0
 14 24  1  0
 15 25  1  0
 16 28  2  0
 17 20  1  0
 19 24  4  0
 20 23  1  0
 21 22  4  0
 22 23  4  0
 25 26  4  0
 27 29  2  0
M  END
$$$$

 Created by Python create_sdf_string function

 30 33  0  0  0  0  0  0  0  0999 V2000
    8.3036    9.8571   18.4133 C   0  0  0  0  0  0  0  0  0  0  0  0
    8.3694    7.6612   22.6703 C   0  0  0  0  0  0  0  0  0  0  0  0
    8.4143    6.6863   16.2273 C   0  0  0  0  0  0  0  0  0  0  0  0
   10.7581    6.5674   21.7636 C   0  0  0  0  0  0  0  0  0  0  0  0
    8.4452    8.7960   19.2958 O   0  0  0  0  0  0  0  0  0  0  0  0
    8.7122    6.7842   24.8569 C   0  0  0  0  0  0  0  0  0  0  0  0
   10.3400    6.1726   14.3081 C   0  0  0  0  0  0  0  0  0  0  0  0
    7.4297    7.5873   24.8962 C   0  0  0  0  0  0  0  0  0  0  0  0
    8.1566   10.0536   16.0516 O   0  0  0  0  0  0  0  0  0  0  0  0
   12.4989    6.2074   20.1776 C   0  0  0  0  0  0  0  0  0  0  0  0
    6.9192    9.1053   20.9073 O   0  0  0  0  0  0  0  0  0  0  0  0
   14.3979    6.0729   18.7784 C   0  0  0  0  0  0  0  0  0  0  0  0
    8.6811    9.5354   16.9998 C   0  0  0  0  0  0  0  0  0  0  0  0
    9.2512    4.2713   13.7653 O   0  0  0  0  0  0  0  0  0  0  0  0
    9.6495    8.6317   16.8332 N   0  0  0  0  0  0  0  0  0  0  0  0
    6.2934    8.6988   23.1988 O   0  0  0  0  0  0  0  0  0  0  0  0
    7.9806    8.6543   20.5437 C   0  0  0  0  0  0  0  0  0  0  0  0
   13.7270    5.7144   19.8610 O   0  0  0  0  0  0  0  0  0  0  0  0
    8.3351    5.5235   15.4478 C   0  0  0  0  0  0  0  0  0  0  0  0
    8.7700    7.8434   21.3915 C   0  0  0  0  0  0  0  0  0  0  0  0
   11.7856    6.8851   19.2401 C   0  0  0  0  0  0  0  0  0  0  0  0
   10.5281    7.4276   19.5649 C   0  0  0  0  0  0  0  0  0  0  0  0
   10.0256    7.2907   20.8484 C   0  0  0  0  0  0  0  0  0  0  0  0
    9.3113    5.3049   14.4911 C   0  0  0  0  0  0  0  0  0  0  0  0
    9.4607    7.5646   16.0139 C   0  0  0  0  0  0  0  0  0  0  0  0
   10.4192    7.3157   15.0955 C   0  0  0  0  0  0  0  0  0  0  0  0
   10.2489    6.4227   23.0218 N   0  0  0  0  0  0  0  0  0  0  0  0
    7.2472    8.0746   23.5050 C   0  0  0  0  0  0  0  0  0  0  0  0
    9.2051    6.9101   23.4604 C   0  0  0  0  0  0  0  0  0  0  0  0
   11.9646    6.0299   21.4251 C   0  0  0  0  0  0  0  0  0  0  0  0
  1  5  1  0
  1 13  1  0
  2 20  2  0
  2 28  1  0
  2 29  1  0
  3 19  4  0
  3 25  4  0
  4 23  4  0
  4 27  1  0
  4 30  4  0
  5 17  1  0
  6  8  1  0
  6 29  1  0
  7 24  4  0
  7 26  4  0
  8 28  1  0
  9 13  2  0
 10 18  1  0
 10 21  4  0
 10 30  4  0
 11 17  2  0
 12 18  1  0
 13 15  1  0
 14 24  1  0
 15 25  1  0
 16 28  2  0
 17 20  1  0
 19 24  4  0
 20 23  1  0
 21 22  4  0
 22 23  4  0
 25 26  4  0
 27 29  2  0
M  END
$$$$

 Created by Python create_sdf_string function

 30 33  0  0  0  0  0  0  0  0999 V2000
    8.3036    9.8571   18.4133 C   0  0  0  0  0  0  0  0  0  0  0  0
    8.3694    7.6612   22.6703 C   0  0  0  0  0  0  0  0  0  0  0  0
    8.4143    6.6863   16.2273 C   0  0  0  0  0  0  0  0  0  0  0  0
   10.7581    6.5674   21.7636 C   0  0  0  0  0  0  0  0  0  0  0  0
    8.4452    8.7960   19.2958 O   0  0  0  0  0  0  0  0  0  0  0  0
    8.7122    6.7842   24.8569 C   0  0  0  0  0  0  0  0  0  0  0  0
   10.3400    6.1726   14.3081 C   0  0  0  0  0  0  0  0  0  0  0  0
    7.4297    7.5873   24.8962 C   0  0  0  0  0  0  0  0  0  0  0  0
    8.1566   10.0536   16.0516 O   0  0  0  0  0  0  0  0  0  0  0  0
   12.4989    6.2074   20.1776 C   0  0  0  0  0  0  0  0  0  0  0  0
    6.9192    9.1053   20.9073 O   0  0  0  0  0  0  0  0  0  0  0  0
   14.3979    6.0729   18.7784 C   0  0  0  0  0  0  0  0  0  0  0  0
    8.6811    9.5354   16.9998 C   0  0  0  0  0  0  0  0  0  0  0  0
    9.2512    4.2713   13.7653 O   0  0  0  0  0  0  0  0  0  0  0  0
    9.6495    8.6317   16.8332 N   0  0  0  0  0  0  0  0  0  0  0  0
    6.2934    8.6988   23.1988 O   0  0  0  0  0  0  0  0  0  0  0  0
    7.9806    8.6543   20.5437 C   0  0  0  0  0  0  0  0  0  0  0  0
   13.7270    5.7144   19.8610 O   0  0  0  0  0  0  0  0  0  0  0  0
    8.3351    5.5235   15.4478 C   0  0  0  0  0  0  0  0  0  0  0  0
    8.7700    7.8434   21.3915 C   0  0  0  0  0  0  0  0  0  0  0  0
   11.7856    6.8851   19.2401 C   0  0  0  0  0  0  0  0  0  0  0  0
   10.5281    7.4276   19.5649 C   0  0  0  0  0  0  0  0  0  0  0  0
   10.0256    7.2907   20.8484 C   0  0  0  0  0  0  0  0  0  0  0  0
    9.3113    5.3049   14.4911 C   0  0  0  0  0  0  0  0  0  0  0  0
    9.4607    7.5646   16.0139 C   0  0  0  0  0  0  0  0  0  0  0  0
   10.4192    7.3157   15.0955 C   0  0  0  0  0  0  0  0  0  0  0  0
   10.2489    6.4227   23.0218 N   0  0  0  0  0  0  0  0  0  0  0  0
    7.2472    8.0746   23.5050 C   0  0  0  0  0  0  0  0  0  0  0  0
    9.2051    6.9101   23.4604 C   0  0  0  0  0  0  0  0  0  0  0  0
   11.9646    6.0299   21.4251 C   0  0  0  0  0  0  0  0  0  0  0  0
  1  5  1  0
  1 13  1  0
  2 20  2  0
  2 28  1  0
  2 29  1  0
  3 19  4  0
  3 25  4  0
  4 23  4  0
  4 27  1  0
  4 30  4  0
  5 17  1  0
  6  8  1  0
  6 29  1  0
  7 24  4  0
  7 26  4  0
  8 28  1  0
  9 13  2  0
 10 18  1  0
 10 21  4  0
 10 30  4  0
 11 17  2  0
 12 18  1  0
 13 15  1  0
 14 24  1  0
 15 25  1  0
 16 28  2  0
 17 20  1  0
 19 24  4  0
 20 23  1  0
 21 22  4  0
 22 23  4  0
 25 26  4  0
 27 29  2  0
M  END
$$$$

 Created by Python create_sdf_string function

 30 33  0  0  0  0  0  0  0  0999 V2000
    8.3036    9.8571   18.4133 C   0  0  0  0  0  0  0  0  0  0  0  0
    8.3694    7.6612   22.6703 C   0  0  0  0  0  0  0  0  0  0  0  0
    8.4143    6.6863   16.2273 C   0  0  0  0  0  0  0  0  0  0  0  0
   10.7581    6.5674   21.7636 C   0  0  0  0  0  0  0  0  0  0  0  0
    8.4452    8.7960   19.2958 O   0  0  0  0  0  0  0  0  0  0  0  0
    8.7122    6.7842   24.8569 C   0  0  0  0  0  0  0  0  0  0  0  0
   10.3400    6.1726   14.3081 C   0  0  0  0  0  0  0  0  0  0  0  0
    7.4297    7.5873   24.8962 C   0  0  0  0  0  0  0  0  0  0  0  0
    8.1566   10.0536   16.0516 O   0  0  0  0  0  0  0  0  0  0  0  0
   12.4989    6.2074   20.1776 C   0  0  0  0  0  0  0  0  0  0  0  0
    6.9192    9.1053   20.9073 O   0  0  0  0  0  0  0  0  0  0  0  0
   14.3979    6.0729   18.7784 C   0  0  0  0  0  0  0  0  0  0  0  0
    8.6811    9.5354   16.9998 C   0  0  0  0  0  0  0  0  0  0  0  0
    9.2512    4.2713   13.7653 O   0  0  0  0  0  0  0  0  0  0  0  0
    9.6495    8.6317   16.8332 N   0  0  0  0  0  0  0  0  0  0  0  0
    6.2934    8.6988   23.1988 O   0  0  0  0  0  0  0  0  0  0  0  0
    7.9806    8.6543   20.5437 C   0  0  0  0  0  0  0  0  0  0  0  0
   13.7270    5.7144   19.8610 O   0  0  0  0  0  0  0  0  0  0  0  0
    8.3351    5.5235   15.4478 C   0  0  0  0  0  0  0  0  0  0  0  0
    8.7700    7.8434   21.3915 C   0  0  0  0  0  0  0  0  0  0  0  0
   11.7856    6.8851   19.2401 C   0  0  0  0  0  0  0  0  0  0  0  0
   10.5281    7.4276   19.5649 C   0  0  0  0  0  0  0  0  0  0  0  0
   10.0256    7.2907   20.8484 C   0  0  0  0  0  0  0  0  0  0  0  0
    9.3113    5.3049   14.4911 C   0  0  0  0  0  0  0  0  0  0  0  0
    9.4607    7.5646   16.0139 C   0  0  0  0  0  0  0  0  0  0  0  0
   10.4192    7.3157   15.0955 C   0  0  0  0  0  0  0  0  0  0  0  0
   10.2489    6.4227   23.0218 N   0  0  0  0  0  0  0  0  0  0  0  0
    7.2472    8.0746   23.5050 C   0  0  0  0  0  0  0  0  0  0  0  0
    9.2051    6.9101   23.4604 C   0  0  0  0  0  0  0  0  0  0  0  0
   11.9646    6.0299   21.4251 C   0  0  0  0  0  0  0  0  0  0  0  0
  1  5  1  0
  1 13  1  0
  2 20  2  0
  2 28  1  0
  2 29  1  0
  3 19  4  0
  3 25  4  0
  4 23  4  0
  4 27  1  0
  4 30  4  0
  5 17  1  0
  6  8  1  0
  6 29  1  0
  7 24  4  0
  7 26  4  0
  8 28  1  0
  9 13  2  0
 10 18  1  0
 10 21  4  0
 10 30  4  0
 11 17  2  0
 12 18  1  0
 13 15  1  0
 14 24  1  0
 15 25  1  0
 16 28  2  0
 17 20  1  0
 19 24  4  0
 20 23  1  0
 21 22  4  0
 22 23  4  0
 25 26  4  0
 27 29  2  0
M  END
$$$$

 Created by Python create_sdf_string function

 30 33  0  0  0  0  0  0  0  0999 V2000
    8.3036    9.8571   18.4133 C   0  0  0  0  0  0  0  0  0  0  0  0
    8.3694    7.6612   22.6703 C   0  0  0  0  0  0  0  0  0  0  0  0
    8.4143    6.6863   16.2273 C   0  0  0  0  0  0  0  0  0  0  0  0
   10.7581    6.5674   21.7636 C   0  0  0  0  0  0  0  0  0  0  0  0
    8.4452    8.7960   19.2958 O   0  0  0  0  0  0  0  0  0  0  0  0
    8.7122    6.7842   24.8569 C   0  0  0  0  0  0  0  0  0  0  0  0
   10.3400    6.1726   14.3081 C   0  0  0  0  0  0  0  0  0  0  0  0
    7.4297    7.5873   24.8962 C   0  0  0  0  0  0  0  0  0  0  0  0
    8.1566   10.0536   16.0516 O   0  0  0  0  0  0  0  0  0  0  0  0
   12.4989    6.2074   20.1776 C   0  0  0  0  0  0  0  0  0  0  0  0
    6.9192    9.1053   20.9073 O   0  0  0  0  0  0  0  0  0  0  0  0
   14.3979    6.0729   18.7784 C   0  0  0  0  0  0  0  0  0  0  0  0
    8.6811    9.5354   16.9998 C   0  0  0  0  0  0  0  0  0  0  0  0
    9.2512    4.2713   13.7653 O   0  0  0  0  0  0  0  0  0  0  0  0
    9.6495    8.6317   16.8332 N   0  0  0  0  0  0  0  0  0  0  0  0
    6.2934    8.6988   23.1988 O   0  0  0  0  0  0  0  0  0  0  0  0
    7.9806    8.6543   20.5437 C   0  0  0  0  0  0  0  0  0  0  0  0
   13.7270    5.7144   19.8610 O   0  0  0  0  0  0  0  0  0  0  0  0
    8.3351    5.5235   15.4478 C   0  0  0  0  0  0  0  0  0  0  0  0
    8.7700    7.8434   21.3915 C   0  0  0  0  0  0  0  0  0  0  0  0
   11.7856    6.8851   19.2401 C   0  0  0  0  0  0  0  0  0  0  0  0
   10.5281    7.4276   19.5649 C   0  0  0  0  0  0  0  0  0  0  0  0
   10.0256    7.2907   20.8484 C   0  0  0  0  0  0  0  0  0  0  0  0
    9.3113    5.3049   14.4911 C   0  0  0  0  0  0  0  0  0  0  0  0
    9.4607    7.5646   16.0139 C   0  0  0  0  0  0  0  0  0  0  0  0
   10.4192    7.3157   15.0955 C   0  0  0  0  0  0  0  0  0  0  0  0
   10.2489    6.4227   23.0218 N   0  0  0  0  0  0  0  0  0  0  0  0
    7.2472    8.0746   23.5050 C   0  0  0  0  0  0  0  0  0  0  0  0
    9.2051    6.9101   23.4604 C   0  0  0  0  0  0  0  0  0  0  0  0
   11.9646    6.0299   21.4251 C   0  0  0  0  0  0  0  0  0  0  0  0
  1  5  1  0
  1 13  1  0
  2 20  2  0
  2 28  1  0
  2 29  1  0
  3 19  4  0
  3 25  4  0
  4 23  4  0
  4 27  1  0
  4 30  4  0
  5 17  1  0
  6  8  1  0
  6 29  1  0
  7 24  4  0
  7 26  4  0
  8 28  1  0
  9 13  2  0
 10 18  1  0
 10 21  4  0
 10 30  4  0
 11 17  2  0
 12 18  1  0
 13 15  1  0
 14 24  1  0
 15 25  1  0
 16 28  2  0
 17 20  1  0
 19 24  4  0
 20 23  1  0
 21 22  4  0
 22 23  4  0
 25 26  4  0
 27 29  2  0
M  END
$$$$

 Created by Python create_sdf_string function

 30 33  0  0  0  0  0  0  0  0999 V2000
    8.3036    9.8571   18.4133 C   0  0  0  0  0  0  0  0  0  0  0  0
    8.3694    7.6612   22.6703 C   0  0  0  0  0  0  0  0  0  0  0  0
    8.4143    6.6863   16.2273 C   0  0  0  0  0  0  0  0  0  0  0  0
   10.7581    6.5674   21.7636 C   0  0  0  0  0  0  0  0  0  0  0  0
    8.4452    8.7960   19.2958 O   0  0  0  0  0  0  0  0  0  0  0  0
    8.7122    6.7842   24.8569 C   0  0  0  0  0  0  0  0  0  0  0  0
   10.3400    6.1726   14.3081 C   0  0  0  0  0  0  0  0  0  0  0  0
    7.4297    7.5873   24.8962 C   0  0  0  0  0  0  0  0  0  0  0  0
    8.1566   10.0536   16.0516 O   0  0  0  0  0  0  0  0  0  0  0  0
   12.4989    6.2074   20.1776 C   0  0  0  0  0  0  0  0  0  0  0  0
    6.9192    9.1053   20.9073 O   0  0  0  0  0  0  0  0  0  0  0  0
   14.3979    6.0729   18.7784 C   0  0  0  0  0  0  0  0  0  0  0  0
    8.6811    9.5354   16.9998 C   0  0  0  0  0  0  0  0  0  0  0  0
    9.2512    4.2713   13.7653 O   0  0  0  0  0  0  0  0  0  0  0  0
    9.6495    8.6317   16.8332 N   0  0  0  0  0  0  0  0  0  0  0  0
    6.2934    8.6988   23.1988 O   0  0  0  0  0  0  0  0  0  0  0  0
    7.9806    8.6543   20.5437 C   0  0  0  0  0  0  0  0  0  0  0  0
   13.7270    5.7144   19.8610 O   0  0  0  0  0  0  0  0  0  0  0  0
    8.3351    5.5235   15.4478 C   0  0  0  0  0  0  0  0  0  0  0  0
    8.7700    7.8434   21.3915 C   0  0  0  0  0  0  0  0  0  0  0  0
   11.7856    6.8851   19.2401 C   0  0  0  0  0  0  0  0  0  0  0  0
   10.5281    7.4276   19.5649 C   0  0  0  0  0  0  0  0  0  0  0  0
   10.0256    7.2907   20.8484 C   0  0  0  0  0  0  0  0  0  0  0  0
    9.3113    5.3049   14.4911 C   0  0  0  0  0  0  0  0  0  0  0  0
    9.4607    7.5646   16.0139 C   0  0  0  0  0  0  0  0  0  0  0  0
   10.4192    7.3157   15.0955 C   0  0  0  0  0  0  0  0  0  0  0  0
   10.2489    6.4227   23.0218 N   0  0  0  0  0  0  0  0  0  0  0  0
    7.2472    8.0746   23.5050 C   0  0  0  0  0  0  0  0  0  0  0  0
    9.2051    6.9101   23.4604 C   0  0  0  0  0  0  0  0  0  0  0  0
   11.9646    6.0299   21.4251 C   0  0  0  0  0  0  0  0  0  0  0  0
  1  5  1  0
  1 13  1  0
  2 20  2  0
  2 28  1  0
  2 29  1  0
  3 19  4  0
  3 25  4  0
  4 23  4  0
  4 27  1  0
  4 30  4  0
  5 17  1  0
  6  8  1  0
  6 29  1  0
  7 24  4  0
  7 26  4  0
  8 28  1  0
  9 13  2  0
 10 18  1  0
 10 21  4  0
 10 30  4  0
 11 17  2  0
 12 18  1  0
 13 15  1  0
 14 24  1  0
 15 25  1  0
 16 28  2  0
 17 20  1  0
 19 24  4  0
 20 23  1  0
 21 22  4  0
 22 23  4  0
 25 26  4  0
 27 29  2  0
M  END
$$$$

 Created by Python create_sdf_string function

 30 33  0  0  0  0  0  0  0  0999 V2000
    8.3036    9.8571   18.4133 C   0  0  0  0  0  0  0  0  0  0  0  0
    8.3694    7.6612   22.6703 C   0  0  0  0  0  0  0  0  0  0  0  0
    8.4143    6.6863   16.2273 C   0  0  0  0  0  0  0  0  0  0  0  0
   10.7581    6.5674   21.7636 C   0  0  0  0  0  0  0  0  0  0  0  0
    8.4452    8.7960   19.2958 O   0  0  0  0  0  0  0  0  0  0  0  0
    8.7122    6.7842   24.8569 C   0  0  0  0  0  0  0  0  0  0  0  0
   10.3400    6.1726   14.3081 C   0  0  0  0  0  0  0  0  0  0  0  0
    7.4297    7.5873   24.8962 C   0  0  0  0  0  0  0  0  0  0  0  0
    8.1566   10.0536   16.0516 O   0  0  0  0  0  0  0  0  0  0  0  0
   12.4989    6.2074   20.1776 C   0  0  0  0  0  0  0  0  0  0  0  0
    6.9192    9.1053   20.9073 O   0  0  0  0  0  0  0  0  0  0  0  0
   14.3979    6.0729   18.7784 C   0  0  0  0  0  0  0  0  0  0  0  0
    8.6811    9.5354   16.9998 C   0  0  0  0  0  0  0  0  0  0  0  0
    9.2512    4.2713   13.7653 O   0  0  0  0  0  0  0  0  0  0  0  0
    9.6495    8.6317   16.8332 N   0  0  0  0  0  0  0  0  0  0  0  0
    6.2934    8.6988   23.1988 O   0  0  0  0  0  0  0  0  0  0  0  0
    7.9806    8.6543   20.5437 C   0  0  0  0  0  0  0  0  0  0  0  0
   13.7270    5.7144   19.8610 O   0  0  0  0  0  0  0  0  0  0  0  0
    8.3351    5.5235   15.4478 C   0  0  0  0  0  0  0  0  0  0  0  0
    8.7700    7.8434   21.3915 C   0  0  0  0  0  0  0  0  0  0  0  0
   11.7856    6.8851   19.2401 C   0  0  0  0  0  0  0  0  0  0  0  0
   10.5281    7.4276   19.5649 C   0  0  0  0  0  0  0  0  0  0  0  0
   10.0256    7.2907   20.8484 C   0  0  0  0  0  0  0  0  0  0  0  0
    9.3113    5.3049   14.4911 C   0  0  0  0  0  0  0  0  0  0  0  0
    9.4607    7.5646   16.0139 C   0  0  0  0  0  0  0  0  0  0  0  0
   10.4192    7.3157   15.0955 C   0  0  0  0  0  0  0  0  0  0  0  0
   10.2489    6.4227   23.0218 N   0  0  0  0  0  0  0  0  0  0  0  0
    7.2472    8.0746   23.5050 C   0  0  0  0  0  0  0  0  0  0  0  0
    9.2051    6.9101   23.4604 C   0  0  0  0  0  0  0  0  0  0  0  0
   11.9646    6.0299   21.4251 C   0  0  0  0  0  0  0  0  0  0  0  0
  1  5  1  0
  1 13  1  0
  2 20  2  0
  2 28  1  0
  2 29  1  0
  3 19  4  0
  3 25  4  0
  4 23  4  0
  4 27  1  0
  4 30  4  0
  5 17  1  0
  6  8  1  0
  6 29  1  0
  7 24  4  0
  7 26  4  0
  8 28  1  0
  9 13  2  0
 10 18  1  0
 10 21  4  0
 10 30  4  0
 11 17  2  0
 12 18  1  0
 13 15  1  0
 14 24  1  0
 15 25  1  0
 16 28  2  0
 17 20  1  0
 19 24  4  0
 20 23  1  0
 21 22  4  0
 22 23  4  0
 25 26  4  0
 27 29  2  0
M  END
$$$$

 Created by Python create_sdf_string function

 30 33  0  0  0  0  0  0  0  0999 V2000
    8.3036    9.8571   18.4133 C   0  0  0  0  0  0  0  0  0  0  0  0
    8.3694    7.6612   22.6703 C   0  0  0  0  0  0  0  0  0  0  0  0
    8.4143    6.6863   16.2273 C   0  0  0  0  0  0  0  0  0  0  0  0
   10.7581    6.5674   21.7636 C   0  0  0  0  0  0  0  0  0  0  0  0
    8.4452    8.7960   19.2958 O   0  0  0  0  0  0  0  0  0  0  0  0
    8.7122    6.7842   24.8569 C   0  0  0  0  0  0  0  0  0  0  0  0
   10.3400    6.1726   14.3081 C   0  0  0  0  0  0  0  0  0  0  0  0
    7.4297    7.5873   24.8962 C   0  0  0  0  0  0  0  0  0  0  0  0
    8.1566   10.0536   16.0516 O   0  0  0  0  0  0  0  0  0  0  0  0
   12.4989    6.2074   20.1776 C   0  0  0  0  0  0  0  0  0  0  0  0
    6.9192    9.1053   20.9073 O   0  0  0  0  0  0  0  0  0  0  0  0
   14.3979    6.0729   18.7784 C   0  0  0  0  0  0  0  0  0  0  0  0
    8.6811    9.5354   16.9998 C   0  0  0  0  0  0  0  0  0  0  0  0
    9.2512    4.2713   13.7653 O   0  0  0  0  0  0  0  0  0  0  0  0
    9.6495    8.6317   16.8332 N   0  0  0  0  0  0  0  0  0  0  0  0
    6.2934    8.6988   23.1988 O   0  0  0  0  0  0  0  0  0  0  0  0
    7.9806    8.6543   20.5437 C   0  0  0  0  0  0  0  0  0  0  0  0
   13.7270    5.7144   19.8610 O   0  0  0  0  0  0  0  0  0  0  0  0
    8.3351    5.5235   15.4478 C   0  0  0  0  0  0  0  0  0  0  0  0
    8.7700    7.8434   21.3915 C   0  0  0  0  0  0  0  0  0  0  0  0
   11.7856    6.8851   19.2401 C   0  0  0  0  0  0  0  0  0  0  0  0
   10.5281    7.4276   19.5649 C   0  0  0  0  0  0  0  0  0  0  0  0
   10.0256    7.2907   20.8484 C   0  0  0  0  0  0  0  0  0  0  0  0
    9.3113    5.3049   14.4911 C   0  0  0  0  0  0  0  0  0  0  0  0
    9.4607    7.5646   16.0139 C   0  0  0  0  0  0  0  0  0  0  0  0
   10.4192    7.3157   15.0955 C   0  0  0  0  0  0  0  0  0  0  0  0
   10.2489    6.4227   23.0218 N   0  0  0  0  0  0  0  0  0  0  0  0
    7.2472    8.0746   23.5050 C   0  0  0  0  0  0  0  0  0  0  0  0
    9.2051    6.9101   23.4604 C   0  0  0  0  0  0  0  0  0  0  0  0
   11.9646    6.0299   21.4251 C   0  0  0  0  0  0  0  0  0  0  0  0
  1  5  1  0
  1 13  1  0
  2 20  2  0
  2 28  1  0
  2 29  1  0
  3 19  4  0
  3 25  4  0
  4 23  4  0
  4 27  1  0
  4 30  4  0
  5 17  1  0
  6  8  1  0
  6 29  1  0
  7 24  4  0
  7 26  4  0
  8 28  1  0
  9 13  2  0
 10 18  1  0
 10 21  4  0
 10 30  4  0
 11 17  2  0
 12 18  1  0
 13 15  1  0
 14 24  1  0
 15 25  1  0
 16 28  2  0
 17 20  1  0
 19 24  4  0
 20 23  1  0
 21 22  4  0
 22 23  4  0
 25 26  4  0
 27 29  2  0
M  END
$$$$

 Created by Python create_sdf_string function

 30 33  0  0  0  0  0  0  0  0999 V2000
    8.3036    9.8571   18.4133 C   0  0  0  0  0  0  0  0  0  0  0  0
    8.3694    7.6612   22.6703 C   0  0  0  0  0  0  0  0  0  0  0  0
    8.4143    6.6863   16.2273 C   0  0  0  0  0  0  0  0  0  0  0  0
   10.7581    6.5674   21.7636 C   0  0  0  0  0  0  0  0  0  0  0  0
    8.4452    8.7960   19.2958 O   0  0  0  0  0  0  0  0  0  0  0  0
    8.7122    6.7842   24.8569 C   0  0  0  0  0  0  0  0  0  0  0  0
   10.3400    6.1726   14.3081 C   0  0  0  0  0  0  0  0  0  0  0  0
    7.4297    7.5873   24.8962 C   0  0  0  0  0  0  0  0  0  0  0  0
    8.1566   10.0536   16.0516 O   0  0  0  0  0  0  0  0  0  0  0  0
   12.4989    6.2074   20.1776 C   0  0  0  0  0  0  0  0  0  0  0  0
    6.9192    9.1053   20.9073 O   0  0  0  0  0  0  0  0  0  0  0  0
   14.3979    6.0729   18.7784 C   0  0  0  0  0  0  0  0  0  0  0  0
    8.6811    9.5354   16.9998 C   0  0  0  0  0  0  0  0  0  0  0  0
    9.2512    4.2713   13.7653 O   0  0  0  0  0  0  0  0  0  0  0  0
    9.6495    8.6317   16.8332 N   0  0  0  0  0  0  0  0  0  0  0  0
    6.2934    8.6988   23.1988 O   0  0  0  0  0  0  0  0  0  0  0  0
    7.9806    8.6543   20.5437 C   0  0  0  0  0  0  0  0  0  0  0  0
   13.7270    5.7144   19.8610 O   0  0  0  0  0  0  0  0  0  0  0  0
    8.3351    5.5235   15.4478 C   0  0  0  0  0  0  0  0  0  0  0  0
    8.7700    7.8434   21.3915 C   0  0  0  0  0  0  0  0  0  0  0  0
   11.7856    6.8851   19.2401 C   0  0  0  0  0  0  0  0  0  0  0  0
   10.5281    7.4276   19.5649 C   0  0  0  0  0  0  0  0  0  0  0  0
   10.0256    7.2907   20.8484 C   0  0  0  0  0  0  0  0  0  0  0  0
    9.3113    5.3049   14.4911 C   0  0  0  0  0  0  0  0  0  0  0  0
    9.4607    7.5646   16.0139 C   0  0  0  0  0  0  0  0  0  0  0  0
   10.4192    7.3157   15.0955 C   0  0  0  0  0  0  0  0  0  0  0  0
   10.2489    6.4227   23.0218 N   0  0  0  0  0  0  0  0  0  0  0  0
    7.2472    8.0746   23.5050 C   0  0  0  0  0  0  0  0  0  0  0  0
    9.2051    6.9101   23.4604 C   0  0  0  0  0  0  0  0  0  0  0  0
   11.9646    6.0299   21.4251 C   0  0  0  0  0  0  0  0  0  0  0  0
  1  5  1  0
  1 13  1  0
  2 20  2  0
  2 28  1  0
  2 29  1  0
  3 19  4  0
  3 25  4  0
  4 23  4  0
  4 27  1  0
  4 30  4  0
  5 17  1  0
  6  8  1  0
  6 29  1  0
  7 24  4  0
  7 26  4  0
  8 28  1  0
  9 13  2  0
 10 18  1  0
 10 21  4  0
 10 30  4  0
 11 17  2  0
 12 18  1  0
 13 15  1  0
 14 24  1  0
 15 25  1  0
 16 28  2  0
 17 20  1  0
 19 24  4  0
 20 23  1  0
 21 22  4  0
 22 23  4  0
 25 26  4  0
 27 29  2  0
M  END
$$$$

 Created by Python create_sdf_string function

 30 33  0  0  0  0  0  0  0  0999 V2000
    8.3036    9.8571   18.4133 C   0  0  0  0  0  0  0  0  0  0  0  0
    8.3694    7.6612   22.6703 C   0  0  0  0  0  0  0  0  0  0  0  0
    8.4143    6.6863   16.2273 C   0  0  0  0  0  0  0  0  0  0  0  0
   10.7581    6.5674   21.7636 C   0  0  0  0  0  0  0  0  0  0  0  0
    8.4452    8.7960   19.2958 O   0  0  0  0  0  0  0  0  0  0  0  0
    8.7122    6.7842   24.8569 C   0  0  0  0  0  0  0  0  0  0  0  0
   10.3400    6.1726   14.3081 C   0  0  0  0  0  0  0  0  0  0  0  0
    7.4297    7.5873   24.8962 C   0  0  0  0  0  0  0  0  0  0  0  0
    8.1566   10.0536   16.0516 O   0  0  0  0  0  0  0  0  0  0  0  0
   12.4989    6.2074   20.1776 C   0  0  0  0  0  0  0  0  0  0  0  0
    6.9192    9.1053   20.9073 O   0  0  0  0  0  0  0  0  0  0  0  0
   14.3979    6.0729   18.7784 C   0  0  0  0  0  0  0  0  0  0  0  0
    8.6811    9.5354   16.9998 C   0  0  0  0  0  0  0  0  0  0  0  0
    9.2512    4.2713   13.7653 O   0  0  0  0  0  0  0  0  0  0  0  0
    9.6495    8.6317   16.8332 N   0  0  0  0  0  0  0  0  0  0  0  0
    6.2934    8.6988   23.1988 O   0  0  0  0  0  0  0  0  0  0  0  0
    7.9806    8.6543   20.5437 C   0  0  0  0  0  0  0  0  0  0  0  0
   13.7270    5.7144   19.8610 O   0  0  0  0  0  0  0  0  0  0  0  0
    8.3351    5.5235   15.4478 C   0  0  0  0  0  0  0  0  0  0  0  0
    8.7700    7.8434   21.3915 C   0  0  0  0  0  0  0  0  0  0  0  0
   11.7856    6.8851   19.2401 C   0  0  0  0  0  0  0  0  0  0  0  0
   10.5281    7.4276   19.5649 C   0  0  0  0  0  0  0  0  0  0  0  0
   10.0256    7.2907   20.8484 C   0  0  0  0  0  0  0  0  0  0  0  0
    9.3113    5.3049   14.4911 C   0  0  0  0  0  0  0  0  0  0  0  0
    9.4607    7.5646   16.0139 C   0  0  0  0  0  0  0  0  0  0  0  0
   10.4192    7.3157   15.0955 C   0  0  0  0  0  0  0  0  0  0  0  0
   10.2489    6.4227   23.0218 N   0  0  0  0  0  0  0  0  0  0  0  0
    7.2472    8.0746   23.5050 C   0  0  0  0  0  0  0  0  0  0  0  0
    9.2051    6.9101   23.4604 C   0  0  0  0  0  0  0  0  0  0  0  0
   11.9646    6.0299   21.4251 C   0  0  0  0  0  0  0  0  0  0  0  0
  1  5  1  0
  1 13  1  0
  2 20  2  0
  2 28  1  0
  2 29  1  0
  3 19  4  0
  3 25  4  0
  4 23  4  0
  4 27  1  0
  4 30  4  0
  5 17  1  0
  6  8  1  0
  6 29  1  0
  7 24  4  0
  7 26  4  0
  8 28  1  0
  9 13  2  0
 10 18  1  0
 10 21  4  0
 10 30  4  0
 11 17  2  0
 12 18  1  0
 13 15  1  0
 14 24  1  0
 15 25  1  0
 16 28  2  0
 17 20  1  0
 19 24  4  0
 20 23  1  0
 21 22  4  0
 22 23  4  0
 25 26  4  0
 27 29  2  0
M  END
$$$$

 Created by Python create_sdf_string function

 30 33  0  0  0  0  0  0  0  0999 V2000
    8.3036    9.8571   18.4133 C   0  0  0  0  0  0  0  0  0  0  0  0
    8.3694    7.6612   22.6703 C   0  0  0  0  0  0  0  0  0  0  0  0
    8.4143    6.6863   16.2273 C   0  0  0  0  0  0  0  0  0  0  0  0
   10.7581    6.5674   21.7636 C   0  0  0  0  0  0  0  0  0  0  0  0
    8.4452    8.7960   19.2958 O   0  0  0  0  0  0  0  0  0  0  0  0
    8.7122    6.7842   24.8569 C   0  0  0  0  0  0  0  0  0  0  0  0
   10.3400    6.1726   14.3081 C   0  0  0  0  0  0  0  0  0  0  0  0
    7.4297    7.5873   24.8962 C   0  0  0  0  0  0  0  0  0  0  0  0
    8.1566   10.0536   16.0516 O   0  0  0  0  0  0  0  0  0  0  0  0
   12.4989    6.2074   20.1776 C   0  0  0  0  0  0  0  0  0  0  0  0
    6.9192    9.1053   20.9073 O   0  0  0  0  0  0  0  0  0  0  0  0
   14.3979    6.0729   18.7784 C   0  0  0  0  0  0  0  0  0  0  0  0
    8.6811    9.5354   16.9998 C   0  0  0  0  0  0  0  0  0  0  0  0
    9.2512    4.2713   13.7653 O   0  0  0  0  0  0  0  0  0  0  0  0
    9.6495    8.6317   16.8332 N   0  0  0  0  0  0  0  0  0  0  0  0
    6.2934    8.6988   23.1988 O   0  0  0  0  0  0  0  0  0  0  0  0
    7.9806    8.6543   20.5437 C   0  0  0  0  0  0  0  0  0  0  0  0
   13.7270    5.7144   19.8610 O   0  0  0  0  0  0  0  0  0  0  0  0
    8.3351    5.5235   15.4478 C   0  0  0  0  0  0  0  0  0  0  0  0
    8.7700    7.8434   21.3915 C   0  0  0  0  0  0  0  0  0  0  0  0
   11.7856    6.8851   19.2401 C   0  0  0  0  0  0  0  0  0  0  0  0
   10.5281    7.4276   19.5649 C   0  0  0  0  0  0  0  0  0  0  0  0
   10.0256    7.2907   20.8484 C   0  0  0  0  0  0  0  0  0  0  0  0
    9.3113    5.3049   14.4911 C   0  0  0  0  0  0  0  0  0  0  0  0
    9.4607    7.5646   16.0139 C   0  0  0  0  0  0  0  0  0  0  0  0
   10.4192    7.3157   15.0955 C   0  0  0  0  0  0  0  0  0  0  0  0
   10.2489    6.4227   23.0218 N   0  0  0  0  0  0  0  0  0  0  0  0
    7.2472    8.0746   23.5050 C   0  0  0  0  0  0  0  0  0  0  0  0
    9.2051    6.9101   23.4604 C   0  0  0  0  0  0  0  0  0  0  0  0
   11.9646    6.0299   21.4251 C   0  0  0  0  0  0  0  0  0  0  0  0
  1  5  1  0
  1 13  1  0
  2 20  2  0
  2 28  1  0
  2 29  1  0
  3 19  4  0
  3 25  4  0
  4 23  4  0
  4 27  1  0
  4 30  4  0
  5 17  1  0
  6  8  1  0
  6 29  1  0
  7 24  4  0
  7 26  4  0
  8 28  1  0
  9 13  2  0
 10 18  1  0
 10 21  4  0
 10 30  4  0
 11 17  2  0
 12 18  1  0
 13 15  1  0
 14 24  1  0
 15 25  1  0
 16 28  2  0
 17 20  1  0
 19 24  4  0
 20 23  1  0
 21 22  4  0
 22 23  4  0
 25 26  4  0
 27 29  2  0
M  END
$$$$

 Created by Python create_sdf_string function

 30 33  0  0  0  0  0  0  0  0999 V2000
    8.3036    9.8571   18.4133 C   0  0  0  0  0  0  0  0  0  0  0  0
    8.3694    7.6612   22.6703 C   0  0  0  0  0  0  0  0  0  0  0  0
    8.4143    6.6863   16.2273 C   0  0  0  0  0  0  0  0  0  0  0  0
   10.7581    6.5674   21.7636 C   0  0  0  0  0  0  0  0  0  0  0  0
    8.4452    8.7960   19.2958 O   0  0  0  0  0  0  0  0  0  0  0  0
    8.7122    6.7842   24.8569 C   0  0  0  0  0  0  0  0  0  0  0  0
   10.3400    6.1726   14.3081 C   0  0  0  0  0  0  0  0  0  0  0  0
    7.4297    7.5873   24.8962 C   0  0  0  0  0  0  0  0  0  0  0  0
    8.1566   10.0536   16.0516 O   0  0  0  0  0  0  0  0  0  0  0  0
   12.4989    6.2074   20.1776 C   0  0  0  0  0  0  0  0  0  0  0  0
    6.9192    9.1053   20.9073 O   0  0  0  0  0  0  0  0  0  0  0  0
   14.3979    6.0729   18.7784 C   0  0  0  0  0  0  0  0  0  0  0  0
    8.6811    9.5354   16.9998 C   0  0  0  0  0  0  0  0  0  0  0  0
    9.2512    4.2713   13.7653 O   0  0  0  0  0  0  0  0  0  0  0  0
    9.6495    8.6317   16.8332 N   0  0  0  0  0  0  0  0  0  0  0  0
    6.2934    8.6988   23.1988 O   0  0  0  0  0  0  0  0  0  0  0  0
    7.9806    8.6543   20.5437 C   0  0  0  0  0  0  0  0  0  0  0  0
   13.7270    5.7144   19.8610 O   0  0  0  0  0  0  0  0  0  0  0  0
    8.3351    5.5235   15.4478 C   0  0  0  0  0  0  0  0  0  0  0  0
    8.7700    7.8434   21.3915 C   0  0  0  0  0  0  0  0  0  0  0  0
   11.7856    6.8851   19.2401 C   0  0  0  0  0  0  0  0  0  0  0  0
   10.5281    7.4276   19.5649 C   0  0  0  0  0  0  0  0  0  0  0  0
   10.0256    7.2907   20.8484 C   0  0  0  0  0  0  0  0  0  0  0  0
    9.3113    5.3049   14.4911 C   0  0  0  0  0  0  0  0  0  0  0  0
    9.4607    7.5646   16.0139 C   0  0  0  0  0  0  0  0  0  0  0  0
   10.4192    7.3157   15.0955 C   0  0  0  0  0  0  0  0  0  0  0  0
   10.2489    6.4227   23.0218 N   0  0  0  0  0  0  0  0  0  0  0  0
    7.2472    8.0746   23.5050 C   0  0  0  0  0  0  0  0  0  0  0  0
    9.2051    6.9101   23.4604 C   0  0  0  0  0  0  0  0  0  0  0  0
   11.9646    6.0299   21.4251 C   0  0  0  0  0  0  0  0  0  0  0  0
  1  5  1  0
  1 13  1  0
  2 20  2  0
  2 28  1  0
  2 29  1  0
  3 19  4  0
  3 25  4  0
  4 23  4  0
  4 27  1  0
  4 30  4  0
  5 17  1  0
  6  8  1  0
  6 29  1  0
  7 24  4  0
  7 26  4  0
  8 28  1  0
  9 13  2  0
 10 18  1  0
 10 21  4  0
 10 30  4  0
 11 17  2  0
 12 18  1  0
 13 15  1  0
 14 24  1  0
 15 25  1  0
 16 28  2  0
 17 20  1  0
 19 24  4  0
 20 23  1  0
 21 22  4  0
 22 23  4  0
 25 26  4  0
 27 29  2  0
M  END
$$$$

 Created by Python create_sdf_string function

 30 33  0  0  0  0  0  0  0  0999 V2000
    8.3036    9.8571   18.4133 C   0  0  0  0  0  0  0  0  0  0  0  0
    8.3694    7.6612   22.6703 C   0  0  0  0  0  0  0  0  0  0  0  0
    8.4143    6.6863   16.2273 C   0  0  0  0  0  0  0  0  0  0  0  0
   10.7581    6.5674   21.7636 C   0  0  0  0  0  0  0  0  0  0  0  0
    8.4452    8.7960   19.2958 O   0  0  0  0  0  0  0  0  0  0  0  0
    8.7122    6.7842   24.8569 C   0  0  0  0  0  0  0  0  0  0  0  0
   10.3400    6.1726   14.3081 C   0  0  0  0  0  0  0  0  0  0  0  0
    7.4297    7.5873   24.8962 C   0  0  0  0  0  0  0  0  0  0  0  0
    8.1566   10.0536   16.0516 O   0  0  0  0  0  0  0  0  0  0  0  0
   12.4989    6.2074   20.1776 C   0  0  0  0  0  0  0  0  0  0  0  0
    6.9192    9.1053   20.9073 O   0  0  0  0  0  0  0  0  0  0  0  0
   14.3979    6.0729   18.7784 C   0  0  0  0  0  0  0  0  0  0  0  0
    8.6811    9.5354   16.9998 C   0  0  0  0  0  0  0  0  0  0  0  0
    9.2512    4.2713   13.7653 O   0  0  0  0  0  0  0  0  0  0  0  0
    9.6495    8.6317   16.8332 N   0  0  0  0  0  0  0  0  0  0  0  0
    6.2934    8.6988   23.1988 O   0  0  0  0  0  0  0  0  0  0  0  0
    7.9806    8.6543   20.5437 C   0  0  0  0  0  0  0  0  0  0  0  0
   13.7270    5.7144   19.8610 O   0  0  0  0  0  0  0  0  0  0  0  0
    8.3351    5.5235   15.4478 C   0  0  0  0  0  0  0  0  0  0  0  0
    8.7700    7.8434   21.3915 C   0  0  0  0  0  0  0  0  0  0  0  0
   11.7856    6.8851   19.2401 C   0  0  0  0  0  0  0  0  0  0  0  0
   10.5281    7.4276   19.5649 C   0  0  0  0  0  0  0  0  0  0  0  0
   10.0256    7.2907   20.8484 C   0  0  0  0  0  0  0  0  0  0  0  0
    9.3113    5.3049   14.4911 C   0  0  0  0  0  0  0  0  0  0  0  0
    9.4607    7.5646   16.0139 C   0  0  0  0  0  0  0  0  0  0  0  0
   10.4192    7.3157   15.0955 C   0  0  0  0  0  0  0  0  0  0  0  0
   10.2489    6.4227   23.0218 N   0  0  0  0  0  0  0  0  0  0  0  0
    7.2472    8.0746   23.5050 C   0  0  0  0  0  0  0  0  0  0  0  0
    9.2051    6.9101   23.4604 C   0  0  0  0  0  0  0  0  0  0  0  0
   11.9646    6.0299   21.4251 C   0  0  0  0  0  0  0  0  0  0  0  0
  1  5  1  0
  1 13  1  0
  2 20  2  0
  2 28  1  0
  2 29  1  0
  3 19  4  0
  3 25  4  0
  4 23  4  0
  4 27  1  0
  4 30  4  0
  5 17  1  0
  6  8  1  0
  6 29  1  0
  7 24  4  0
  7 26  4  0
  8 28  1  0
  9 13  2  0
 10 18  1  0
 10 21  4  0
 10 30  4  0
 11 17  2  0
 12 18  1  0
 13 15  1  0
 14 24  1  0
 15 25  1  0
 16 28  2  0
 17 20  1  0
 19 24  4  0
 20 23  1  0
 21 22  4  0
 22 23  4  0
 25 26  4  0
 27 29  2  0
M  END
$$$$

 Created by Python create_sdf_string function

 30 33  0  0  0  0  0  0  0  0999 V2000
    8.3036    9.8571   18.4133 C   0  0  0  0  0  0  0  0  0  0  0  0
    8.3694    7.6612   22.6703 C   0  0  0  0  0  0  0  0  0  0  0  0
    8.4143    6.6863   16.2273 C   0  0  0  0  0  0  0  0  0  0  0  0
   10.7581    6.5674   21.7636 C   0  0  0  0  0  0  0  0  0  0  0  0
    8.4452    8.7960   19.2958 O   0  0  0  0  0  0  0  0  0  0  0  0
    8.7122    6.7842   24.8569 C   0  0  0  0  0  0  0  0  0  0  0  0
   10.3400    6.1726   14.3081 C   0  0  0  0  0  0  0  0  0  0  0  0
    7.4297    7.5873   24.8962 C   0  0  0  0  0  0  0  0  0  0  0  0
    8.1566   10.0536   16.0516 O   0  0  0  0  0  0  0  0  0  0  0  0
   12.4989    6.2074   20.1776 C   0  0  0  0  0  0  0  0  0  0  0  0
    6.9192    9.1053   20.9073 O   0  0  0  0  0  0  0  0  0  0  0  0
   14.3979    6.0729   18.7784 C   0  0  0  0  0  0  0  0  0  0  0  0
    8.6811    9.5354   16.9998 C   0  0  0  0  0  0  0  0  0  0  0  0
    9.2512    4.2713   13.7653 O   0  0  0  0  0  0  0  0  0  0  0  0
    9.6495    8.6317   16.8332 N   0  0  0  0  0  0  0  0  0  0  0  0
    6.2934    8.6988   23.1988 O   0  0  0  0  0  0  0  0  0  0  0  0
    7.9806    8.6543   20.5437 C   0  0  0  0  0  0  0  0  0  0  0  0
   13.7270    5.7144   19.8610 O   0  0  0  0  0  0  0  0  0  0  0  0
    8.3351    5.5235   15.4478 C   0  0  0  0  0  0  0  0  0  0  0  0
    8.7700    7.8434   21.3915 C   0  0  0  0  0  0  0  0  0  0  0  0
   11.7856    6.8851   19.2401 C   0  0  0  0  0  0  0  0  0  0  0  0
   10.5281    7.4276   19.5649 C   0  0  0  0  0  0  0  0  0  0  0  0
   10.0256    7.2907   20.8484 C   0  0  0  0  0  0  0  0  0  0  0  0
    9.3113    5.3049   14.4911 C   0  0  0  0  0  0  0  0  0  0  0  0
    9.4607    7.5646   16.0139 C   0  0  0  0  0  0  0  0  0  0  0  0
   10.4192    7.3157   15.0955 C   0  0  0  0  0  0  0  0  0  0  0  0
   10.2489    6.4227   23.0218 N   0  0  0  0  0  0  0  0  0  0  0  0
    7.2472    8.0746   23.5050 C   0  0  0  0  0  0  0  0  0  0  0  0
    9.2051    6.9101   23.4604 C   0  0  0  0  0  0  0  0  0  0  0  0
   11.9646    6.0299   21.4251 C   0  0  0  0  0  0  0  0  0  0  0  0
  1  5  1  0
  1 13  1  0
  2 20  2  0
  2 28  1  0
  2 29  1  0
  3 19  4  0
  3 25  4  0
  4 23  4  0
  4 27  1  0
  4 30  4  0
  5 17  1  0
  6  8  1  0
  6 29  1  0
  7 24  4  0
  7 26  4  0
  8 28  1  0
  9 13  2  0
 10 18  1  0
 10 21  4  0
 10 30  4  0
 11 17  2  0
 12 18  1  0
 13 15  1  0
 14 24  1  0
 15 25  1  0
 16 28  2  0
 17 20  1  0
 19 24  4  0
 20 23  1  0
 21 22  4  0
 22 23  4  0
 25 26  4  0
 27 29  2  0
M  END
$$$$

 Created by Python create_sdf_string function

 30 33  0  0  0  0  0  0  0  0999 V2000
    8.3036    9.8571   18.4133 C   0  0  0  0  0  0  0  0  0  0  0  0
    8.3694    7.6612   22.6703 C   0  0  0  0  0  0  0  0  0  0  0  0
    8.4143    6.6863   16.2273 C   0  0  0  0  0  0  0  0  0  0  0  0
   10.7581    6.5674   21.7636 C   0  0  0  0  0  0  0  0  0  0  0  0
    8.4452    8.7960   19.2958 O   0  0  0  0  0  0  0  0  0  0  0  0
    8.7122    6.7842   24.8569 C   0  0  0  0  0  0  0  0  0  0  0  0
   10.3400    6.1726   14.3081 C   0  0  0  0  0  0  0  0  0  0  0  0
    7.4297    7.5873   24.8962 C   0  0  0  0  0  0  0  0  0  0  0  0
    8.1566   10.0536   16.0516 O   0  0  0  0  0  0  0  0  0  0  0  0
   12.4989    6.2074   20.1776 C   0  0  0  0  0  0  0  0  0  0  0  0
    6.9192    9.1053   20.9073 O   0  0  0  0  0  0  0  0  0  0  0  0
   14.3979    6.0729   18.7784 C   0  0  0  0  0  0  0  0  0  0  0  0
    8.6811    9.5354   16.9998 C   0  0  0  0  0  0  0  0  0  0  0  0
    9.2512    4.2713   13.7653 O   0  0  0  0  0  0  0  0  0  0  0  0
    9.6495    8.6317   16.8332 N   0  0  0  0  0  0  0  0  0  0  0  0
    6.2934    8.6988   23.1988 O   0  0  0  0  0  0  0  0  0  0  0  0
    7.9806    8.6543   20.5437 C   0  0  0  0  0  0  0  0  0  0  0  0
   13.7270    5.7144   19.8610 O   0  0  0  0  0  0  0  0  0  0  0  0
    8.3351    5.5235   15.4478 C   0  0  0  0  0  0  0  0  0  0  0  0
    8.7700    7.8434   21.3915 C   0  0  0  0  0  0  0  0  0  0  0  0
   11.7856    6.8851   19.2401 C   0  0  0  0  0  0  0  0  0  0  0  0
   10.5281    7.4276   19.5649 C   0  0  0  0  0  0  0  0  0  0  0  0
   10.0256    7.2907   20.8484 C   0  0  0  0  0  0  0  0  0  0  0  0
    9.3113    5.3049   14.4911 C   0  0  0  0  0  0  0  0  0  0  0  0
    9.4607    7.5646   16.0139 C   0  0  0  0  0  0  0  0  0  0  0  0
   10.4192    7.3157   15.0955 C   0  0  0  0  0  0  0  0  0  0  0  0
   10.2489    6.4227   23.0218 N   0  0  0  0  0  0  0  0  0  0  0  0
    7.2472    8.0746   23.5050 C   0  0  0  0  0  0  0  0  0  0  0  0
    9.2051    6.9101   23.4604 C   0  0  0  0  0  0  0  0  0  0  0  0
   11.9646    6.0299   21.4251 C   0  0  0  0  0  0  0  0  0  0  0  0
  1  5  1  0
  1 13  1  0
  2 20  2  0
  2 28  1  0
  2 29  1  0
  3 19  4  0
  3 25  4  0
  4 23  4  0
  4 27  1  0
  4 30  4  0
  5 17  1  0
  6  8  1  0
  6 29  1  0
  7 24  4  0
  7 26  4  0
  8 28  1  0
  9 13  2  0
 10 18  1  0
 10 21  4  0
 10 30  4  0
 11 17  2  0
 12 18  1  0
 13 15  1  0
 14 24  1  0
 15 25  1  0
 16 28  2  0
 17 20  1  0
 19 24  4  0
 20 23  1  0
 21 22  4  0
 22 23  4  0
 25 26  4  0
 27 29  2  0
M  END
$$$$

 Created by Python create_sdf_string function

 30 33  0  0  0  0  0  0  0  0999 V2000
    8.3036    9.8571   18.4133 C   0  0  0  0  0  0  0  0  0  0  0  0
    8.3694    7.6612   22.6703 C   0  0  0  0  0  0  0  0  0  0  0  0
    8.4143    6.6863   16.2273 C   0  0  0  0  0  0  0  0  0  0  0  0
   10.7581    6.5674   21.7636 C   0  0  0  0  0  0  0  0  0  0  0  0
    8.4452    8.7960   19.2958 O   0  0  0  0  0  0  0  0  0  0  0  0
    8.7122    6.7842   24.8569 C   0  0  0  0  0  0  0  0  0  0  0  0
   10.3400    6.1726   14.3081 C   0  0  0  0  0  0  0  0  0  0  0  0
    7.4297    7.5873   24.8962 C   0  0  0  0  0  0  0  0  0  0  0  0
    8.1566   10.0536   16.0516 O   0  0  0  0  0  0  0  0  0  0  0  0
   12.4989    6.2074   20.1776 C   0  0  0  0  0  0  0  0  0  0  0  0
    6.9192    9.1053   20.9073 O   0  0  0  0  0  0  0  0  0  0  0  0
   14.3979    6.0729   18.7784 C   0  0  0  0  0  0  0  0  0  0  0  0
    8.6811    9.5354   16.9998 C   0  0  0  0  0  0  0  0  0  0  0  0
    9.2512    4.2713   13.7653 O   0  0  0  0  0  0  0  0  0  0  0  0
    9.6495    8.6317   16.8332 N   0  0  0  0  0  0  0  0  0  0  0  0
    6.2934    8.6988   23.1988 O   0  0  0  0  0  0  0  0  0  0  0  0
    7.9806    8.6543   20.5437 C   0  0  0  0  0  0  0  0  0  0  0  0
   13.7270    5.7144   19.8610 O   0  0  0  0  0  0  0  0  0  0  0  0
    8.3351    5.5235   15.4478 C   0  0  0  0  0  0  0  0  0  0  0  0
    8.7700    7.8434   21.3915 C   0  0  0  0  0  0  0  0  0  0  0  0
   11.7856    6.8851   19.2401 C   0  0  0  0  0  0  0  0  0  0  0  0
   10.5281    7.4276   19.5649 C   0  0  0  0  0  0  0  0  0  0  0  0
   10.0256    7.2907   20.8484 C   0  0  0  0  0  0  0  0  0  0  0  0
    9.3113    5.3049   14.4911 C   0  0  0  0  0  0  0  0  0  0  0  0
    9.4607    7.5646   16.0139 C   0  0  0  0  0  0  0  0  0  0  0  0
   10.4192    7.3157   15.0955 C   0  0  0  0  0  0  0  0  0  0  0  0
   10.2489    6.4227   23.0218 N   0  0  0  0  0  0  0  0  0  0  0  0
    7.2472    8.0746   23.5050 C   0  0  0  0  0  0  0  0  0  0  0  0
    9.2051    6.9101   23.4604 C   0  0  0  0  0  0  0  0  0  0  0  0
   11.9646    6.0299   21.4251 C   0  0  0  0  0  0  0  0  0  0  0  0
  1  5  1  0
  1 13  1  0
  2 20  2  0
  2 28  1  0
  2 29  1  0
  3 19  4  0
  3 25  4  0
  4 23  4  0
  4 27  1  0
  4 30  4  0
  5 17  1  0
  6  8  1  0
  6 29  1  0
  7 24  4  0
  7 26  4  0
  8 28  1  0
  9 13  2  0
 10 18  1  0
 10 21  4  0
 10 30  4  0
 11 17  2  0
 12 18  1  0
 13 15  1  0
 14 24  1  0
 15 25  1  0
 16 28  2  0
 17 20  1  0
 19 24  4  0
 20 23  1  0
 21 22  4  0
 22 23  4  0
 25 26  4  0
 27 29  2  0
M  END
$$$$

 Created by Python create_sdf_string function

 30 33  0  0  0  0  0  0  0  0999 V2000
    8.3036    9.8571   18.4133 C   0  0  0  0  0  0  0  0  0  0  0  0
    8.3694    7.6612   22.6703 C   0  0  0  0  0  0  0  0  0  0  0  0
    8.4143    6.6863   16.2273 C   0  0  0  0  0  0  0  0  0  0  0  0
   10.7581    6.5674   21.7636 C   0  0  0  0  0  0  0  0  0  0  0  0
    8.4452    8.7960   19.2958 O   0  0  0  0  0  0  0  0  0  0  0  0
    8.7122    6.7842   24.8569 C   0  0  0  0  0  0  0  0  0  0  0  0
   10.3400    6.1726   14.3081 C   0  0  0  0  0  0  0  0  0  0  0  0
    7.4297    7.5873   24.8962 C   0  0  0  0  0  0  0  0  0  0  0  0
    8.1566   10.0536   16.0516 O   0  0  0  0  0  0  0  0  0  0  0  0
   12.4989    6.2074   20.1776 C   0  0  0  0  0  0  0  0  0  0  0  0
    6.9192    9.1053   20.9073 O   0  0  0  0  0  0  0  0  0  0  0  0
   14.3979    6.0729   18.7784 C   0  0  0  0  0  0  0  0  0  0  0  0
    8.6811    9.5354   16.9998 C   0  0  0  0  0  0  0  0  0  0  0  0
    9.2512    4.2713   13.7653 O   0  0  0  0  0  0  0  0  0  0  0  0
    9.6495    8.6317   16.8332 N   0  0  0  0  0  0  0  0  0  0  0  0
    6.2934    8.6988   23.1988 O   0  0  0  0  0  0  0  0  0  0  0  0
    7.9806    8.6543   20.5437 C   0  0  0  0  0  0  0  0  0  0  0  0
   13.7270    5.7144   19.8610 O   0  0  0  0  0  0  0  0  0  0  0  0
    8.3351    5.5235   15.4478 C   0  0  0  0  0  0  0  0  0  0  0  0
    8.7700    7.8434   21.3915 C   0  0  0  0  0  0  0  0  0  0  0  0
   11.7856    6.8851   19.2401 C   0  0  0  0  0  0  0  0  0  0  0  0
   10.5281    7.4276   19.5649 C   0  0  0  0  0  0  0  0  0  0  0  0
   10.0256    7.2907   20.8484 C   0  0  0  0  0  0  0  0  0  0  0  0
    9.3113    5.3049   14.4911 C   0  0  0  0  0  0  0  0  0  0  0  0
    9.4607    7.5646   16.0139 C   0  0  0  0  0  0  0  0  0  0  0  0
   10.4192    7.3157   15.0955 C   0  0  0  0  0  0  0  0  0  0  0  0
   10.2489    6.4227   23.0218 N   0  0  0  0  0  0  0  0  0  0  0  0
    7.2472    8.0746   23.5050 C   0  0  0  0  0  0  0  0  0  0  0  0
    9.2051    6.9101   23.4604 C   0  0  0  0  0  0  0  0  0  0  0  0
   11.9646    6.0299   21.4251 C   0  0  0  0  0  0  0  0  0  0  0  0
  1  5  1  0
  1 13  1  0
  2 20  2  0
  2 28  1  0
  2 29  1  0
  3 19  4  0
  3 25  4  0
  4 23  4  0
  4 27  1  0
  4 30  4  0
  5 17  1  0
  6  8  1  0
  6 29  1  0
  7 24  4  0
  7 26  4  0
  8 28  1  0
  9 13  2  0
 10 18  1  0
 10 21  4  0
 10 30  4  0
 11 17  2  0
 12 18  1  0
 13 15  1  0
 14 24  1  0
 15 25  1  0
 16 28  2  0
 17 20  1  0
 19 24  4  0
 20 23  1  0
 21 22  4  0
 22 23  4  0
 25 26  4  0
 27 29  2  0
M  END
$$$$

 Created by Python create_sdf_string function

 30 33  0  0  0  0  0  0  0  0999 V2000
    8.3036    9.8571   18.4133 C   0  0  0  0  0  0  0  0  0  0  0  0
    8.3694    7.6612   22.6703 C   0  0  0  0  0  0  0  0  0  0  0  0
    8.4143    6.6863   16.2273 C   0  0  0  0  0  0  0  0  0  0  0  0
   10.7581    6.5674   21.7636 C   0  0  0  0  0  0  0  0  0  0  0  0
    8.4452    8.7960   19.2958 O   0  0  0  0  0  0  0  0  0  0  0  0
    8.7122    6.7842   24.8569 C   0  0  0  0  0  0  0  0  0  0  0  0
   10.3400    6.1726   14.3081 C   0  0  0  0  0  0  0  0  0  0  0  0
    7.4297    7.5873   24.8962 C   0  0  0  0  0  0  0  0  0  0  0  0
    8.1566   10.0536   16.0516 O   0  0  0  0  0  0  0  0  0  0  0  0
   12.4989    6.2074   20.1776 C   0  0  0  0  0  0  0  0  0  0  0  0
    6.9192    9.1053   20.9073 O   0  0  0  0  0  0  0  0  0  0  0  0
   14.3979    6.0729   18.7784 C   0  0  0  0  0  0  0  0  0  0  0  0
    8.6811    9.5354   16.9998 C   0  0  0  0  0  0  0  0  0  0  0  0
    9.2512    4.2713   13.7653 O   0  0  0  0  0  0  0  0  0  0  0  0
    9.6495    8.6317   16.8332 N   0  0  0  0  0  0  0  0  0  0  0  0
    6.2934    8.6988   23.1988 O   0  0  0  0  0  0  0  0  0  0  0  0
    7.9806    8.6543   20.5437 C   0  0  0  0  0  0  0  0  0  0  0  0
   13.7270    5.7144   19.8610 O   0  0  0  0  0  0  0  0  0  0  0  0
    8.3351    5.5235   15.4478 C   0  0  0  0  0  0  0  0  0  0  0  0
    8.7700    7.8434   21.3915 C   0  0  0  0  0  0  0  0  0  0  0  0
   11.7856    6.8851   19.2401 C   0  0  0  0  0  0  0  0  0  0  0  0
   10.5281    7.4276   19.5649 C   0  0  0  0  0  0  0  0  0  0  0  0
   10.0256    7.2907   20.8484 C   0  0  0  0  0  0  0  0  0  0  0  0
    9.3113    5.3049   14.4911 C   0  0  0  0  0  0  0  0  0  0  0  0
    9.4607    7.5646   16.0139 C   0  0  0  0  0  0  0  0  0  0  0  0
   10.4192    7.3157   15.0955 C   0  0  0  0  0  0  0  0  0  0  0  0
   10.2489    6.4227   23.0218 N   0  0  0  0  0  0  0  0  0  0  0  0
    7.2472    8.0746   23.5050 C   0  0  0  0  0  0  0  0  0  0  0  0
    9.2051    6.9101   23.4604 C   0  0  0  0  0  0  0  0  0  0  0  0
   11.9646    6.0299   21.4251 C   0  0  0  0  0  0  0  0  0  0  0  0
  1  5  1  0
  1 13  1  0
  2 20  2  0
  2 28  1  0
  2 29  1  0
  3 19  4  0
  3 25  4  0
  4 23  4  0
  4 27  1  0
  4 30  4  0
  5 17  1  0
  6  8  1  0
  6 29  1  0
  7 24  4  0
  7 26  4  0
  8 28  1  0
  9 13  2  0
 10 18  1  0
 10 21  4  0
 10 30  4  0
 11 17  2  0
 12 18  1  0
 13 15  1  0
 14 24  1  0
 15 25  1  0
 16 28  2  0
 17 20  1  0
 19 24  4  0
 20 23  1  0
 21 22  4  0
 22 23  4  0
 25 26  4  0
 27 29  2  0
M  END
$$$$

 Created by Python create_sdf_string function

 30 33  0  0  0  0  0  0  0  0999 V2000
    8.3036    9.8571   18.4133 C   0  0  0  0  0  0  0  0  0  0  0  0
    8.3694    7.6612   22.6703 C   0  0  0  0  0  0  0  0  0  0  0  0
    8.4143    6.6863   16.2273 C   0  0  0  0  0  0  0  0  0  0  0  0
   10.7581    6.5674   21.7636 C   0  0  0  0  0  0  0  0  0  0  0  0
    8.4452    8.7960   19.2958 O   0  0  0  0  0  0  0  0  0  0  0  0
    8.7122    6.7842   24.8569 C   0  0  0  0  0  0  0  0  0  0  0  0
   10.3400    6.1726   14.3081 C   0  0  0  0  0  0  0  0  0  0  0  0
    7.4297    7.5873   24.8962 C   0  0  0  0  0  0  0  0  0  0  0  0
    8.1566   10.0536   16.0516 O   0  0  0  0  0  0  0  0  0  0  0  0
   12.4989    6.2074   20.1776 C   0  0  0  0  0  0  0  0  0  0  0  0
    6.9192    9.1053   20.9073 O   0  0  0  0  0  0  0  0  0  0  0  0
   14.3979    6.0729   18.7784 C   0  0  0  0  0  0  0  0  0  0  0  0
    8.6811    9.5354   16.9998 C   0  0  0  0  0  0  0  0  0  0  0  0
    9.2512    4.2713   13.7653 O   0  0  0  0  0  0  0  0  0  0  0  0
    9.6495    8.6317   16.8332 N   0  0  0  0  0  0  0  0  0  0  0  0
    6.2934    8.6988   23.1988 O   0  0  0  0  0  0  0  0  0  0  0  0
    7.9806    8.6543   20.5437 C   0  0  0  0  0  0  0  0  0  0  0  0
   13.7270    5.7144   19.8610 O   0  0  0  0  0  0  0  0  0  0  0  0
    8.3351    5.5235   15.4478 C   0  0  0  0  0  0  0  0  0  0  0  0
    8.7700    7.8434   21.3915 C   0  0  0  0  0  0  0  0  0  0  0  0
   11.7856    6.8851   19.2401 C   0  0  0  0  0  0  0  0  0  0  0  0
   10.5281    7.4276   19.5649 C   0  0  0  0  0  0  0  0  0  0  0  0
   10.0256    7.2907   20.8484 C   0  0  0  0  0  0  0  0  0  0  0  0
    9.3113    5.3049   14.4911 C   0  0  0  0  0  0  0  0  0  0  0  0
    9.4607    7.5646   16.0139 C   0  0  0  0  0  0  0  0  0  0  0  0
   10.4192    7.3157   15.0955 C   0  0  0  0  0  0  0  0  0  0  0  0
   10.2489    6.4227   23.0218 N   0  0  0  0  0  0  0  0  0  0  0  0
    7.2472    8.0746   23.5050 C   0  0  0  0  0  0  0  0  0  0  0  0
    9.2051    6.9101   23.4604 C   0  0  0  0  0  0  0  0  0  0  0  0
   11.9646    6.0299   21.4251 C   0  0  0  0  0  0  0  0  0  0  0  0
  1  5  1  0
  1 13  1  0
  2 20  2  0
  2 28  1  0
  2 29  1  0
  3 19  4  0
  3 25  4  0
  4 23  4  0
  4 27  1  0
  4 30  4  0
  5 17  1  0
  6  8  1  0
  6 29  1  0
  7 24  4  0
  7 26  4  0
  8 28  1  0
  9 13  2  0
 10 18  1  0
 10 21  4  0
 10 30  4  0
 11 17  2  0
 12 18  1  0
 13 15  1  0
 14 24  1  0
 15 25  1  0
 16 28  2  0
 17 20  1  0
 19 24  4  0
 20 23  1  0
 21 22  4  0
 22 23  4  0
 25 26  4  0
 27 29  2  0
M  END
$$$$

 Created by Python create_sdf_string function

 30 33  0  0  0  0  0  0  0  0999 V2000
    8.3036    9.8571   18.4133 C   0  0  0  0  0  0  0  0  0  0  0  0
    8.3694    7.6612   22.6703 C   0  0  0  0  0  0  0  0  0  0  0  0
    8.4143    6.6863   16.2273 C   0  0  0  0  0  0  0  0  0  0  0  0
   10.7581    6.5674   21.7636 C   0  0  0  0  0  0  0  0  0  0  0  0
    8.4452    8.7960   19.2958 O   0  0  0  0  0  0  0  0  0  0  0  0
    8.7122    6.7842   24.8569 C   0  0  0  0  0  0  0  0  0  0  0  0
   10.3400    6.1726   14.3081 C   0  0  0  0  0  0  0  0  0  0  0  0
    7.4297    7.5873   24.8962 C   0  0  0  0  0  0  0  0  0  0  0  0
    8.1566   10.0536   16.0516 O   0  0  0  0  0  0  0  0  0  0  0  0
   12.4989    6.2074   20.1776 C   0  0  0  0  0  0  0  0  0  0  0  0
    6.9192    9.1053   20.9073 O   0  0  0  0  0  0  0  0  0  0  0  0
   14.3979    6.0729   18.7784 C   0  0  0  0  0  0  0  0  0  0  0  0
    8.6811    9.5354   16.9998 C   0  0  0  0  0  0  0  0  0  0  0  0
    9.2512    4.2713   13.7653 O   0  0  0  0  0  0  0  0  0  0  0  0
    9.6495    8.6317   16.8332 N   0  0  0  0  0  0  0  0  0  0  0  0
    6.2934    8.6988   23.1988 O   0  0  0  0  0  0  0  0  0  0  0  0
    7.9806    8.6543   20.5437 C   0  0  0  0  0  0  0  0  0  0  0  0
   13.7270    5.7144   19.8610 O   0  0  0  0  0  0  0  0  0  0  0  0
    8.3351    5.5235   15.4478 C   0  0  0  0  0  0  0  0  0  0  0  0
    8.7700    7.8434   21.3915 C   0  0  0  0  0  0  0  0  0  0  0  0
   11.7856    6.8851   19.2401 C   0  0  0  0  0  0  0  0  0  0  0  0
   10.5281    7.4276   19.5649 C   0  0  0  0  0  0  0  0  0  0  0  0
   10.0256    7.2907   20.8484 C   0  0  0  0  0  0  0  0  0  0  0  0
    9.3113    5.3049   14.4911 C   0  0  0  0  0  0  0  0  0  0  0  0
    9.4607    7.5646   16.0139 C   0  0  0  0  0  0  0  0  0  0  0  0
   10.4192    7.3157   15.0955 C   0  0  0  0  0  0  0  0  0  0  0  0
   10.2489    6.4227   23.0218 N   0  0  0  0  0  0  0  0  0  0  0  0
    7.2472    8.0746   23.5050 C   0  0  0  0  0  0  0  0  0  0  0  0
    9.2051    6.9101   23.4604 C   0  0  0  0  0  0  0  0  0  0  0  0
   11.9646    6.0299   21.4251 C   0  0  0  0  0  0  0  0  0  0  0  0
  1  5  1  0
  1 13  1  0
  2 20  2  0
  2 28  1  0
  2 29  1  0
  3 19  4  0
  3 25  4  0
  4 23  4  0
  4 27  1  0
  4 30  4  0
  5 17  1  0
  6  8  1  0
  6 29  1  0
  7 24  4  0
  7 26  4  0
  8 28  1  0
  9 13  2  0
 10 18  1  0
 10 21  4  0
 10 30  4  0
 11 17  2  0
 12 18  1  0
 13 15  1  0
 14 24  1  0
 15 25  1  0
 16 28  2  0
 17 20  1  0
 19 24  4  0
 20 23  1  0
 21 22  4  0
 22 23  4  0
 25 26  4  0
 27 29  2  0
M  END
$$$$

 Created by Python create_sdf_string function

 30 33  0  0  0  0  0  0  0  0999 V2000
    8.3036    9.8571   18.4133 C   0  0  0  0  0  0  0  0  0  0  0  0
    8.3694    7.6612   22.6703 C   0  0  0  0  0  0  0  0  0  0  0  0
    8.4143    6.6863   16.2273 C   0  0  0  0  0  0  0  0  0  0  0  0
   10.7581    6.5674   21.7636 C   0  0  0  0  0  0  0  0  0  0  0  0
    8.4452    8.7960   19.2958 O   0  0  0  0  0  0  0  0  0  0  0  0
    8.7122    6.7842   24.8569 C   0  0  0  0  0  0  0  0  0  0  0  0
   10.3400    6.1726   14.3081 C   0  0  0  0  0  0  0  0  0  0  0  0
    7.4297    7.5873   24.8962 C   0  0  0  0  0  0  0  0  0  0  0  0
    8.1566   10.0536   16.0516 O   0  0  0  0  0  0  0  0  0  0  0  0
   12.4989    6.2074   20.1776 C   0  0  0  0  0  0  0  0  0  0  0  0
    6.9192    9.1053   20.9073 O   0  0  0  0  0  0  0  0  0  0  0  0
   14.3979    6.0729   18.7784 C   0  0  0  0  0  0  0  0  0  0  0  0
    8.6811    9.5354   16.9998 C   0  0  0  0  0  0  0  0  0  0  0  0
    9.2512    4.2713   13.7653 O   0  0  0  0  0  0  0  0  0  0  0  0
    9.6495    8.6317   16.8332 N   0  0  0  0  0  0  0  0  0  0  0  0
    6.2934    8.6988   23.1988 O   0  0  0  0  0  0  0  0  0  0  0  0
    7.9806    8.6543   20.5437 C   0  0  0  0  0  0  0  0  0  0  0  0
   13.7270    5.7144   19.8610 O   0  0  0  0  0  0  0  0  0  0  0  0
    8.3351    5.5235   15.4478 C   0  0  0  0  0  0  0  0  0  0  0  0
    8.7700    7.8434   21.3915 C   0  0  0  0  0  0  0  0  0  0  0  0
   11.7856    6.8851   19.2401 C   0  0  0  0  0  0  0  0  0  0  0  0
   10.5281    7.4276   19.5649 C   0  0  0  0  0  0  0  0  0  0  0  0
   10.0256    7.2907   20.8484 C   0  0  0  0  0  0  0  0  0  0  0  0
    9.3113    5.3049   14.4911 C   0  0  0  0  0  0  0  0  0  0  0  0
    9.4607    7.5646   16.0139 C   0  0  0  0  0  0  0  0  0  0  0  0
   10.4192    7.3157   15.0955 C   0  0  0  0  0  0  0  0  0  0  0  0
   10.2489    6.4227   23.0218 N   0  0  0  0  0  0  0  0  0  0  0  0
    7.2472    8.0746   23.5050 C   0  0  0  0  0  0  0  0  0  0  0  0
    9.2051    6.9101   23.4604 C   0  0  0  0  0  0  0  0  0  0  0  0
   11.9646    6.0299   21.4251 C   0  0  0  0  0  0  0  0  0  0  0  0
  1  5  1  0
  1 13  1  0
  2 20  2  0
  2 28  1  0
  2 29  1  0
  3 19  4  0
  3 25  4  0
  4 23  4  0
  4 27  1  0
  4 30  4  0
  5 17  1  0
  6  8  1  0
  6 29  1  0
  7 24  4  0
  7 26  4  0
  8 28  1  0
  9 13  2  0
 10 18  1  0
 10 21  4  0
 10 30  4  0
 11 17  2  0
 12 18  1  0
 13 15  1  0
 14 24  1  0
 15 25  1  0
 16 28  2  0
 17 20  1  0
 19 24  4  0
 20 23  1  0
 21 22  4  0
 22 23  4  0
 25 26  4  0
 27 29  2  0
M  END
$$$$

 Created by Python create_sdf_string function

 30 33  0  0  0  0  0  0  0  0999 V2000
    8.3036    9.8571   18.4133 C   0  0  0  0  0  0  0  0  0  0  0  0
    8.3694    7.6612   22.6703 C   0  0  0  0  0  0  0  0  0  0  0  0
    8.4143    6.6863   16.2273 C   0  0  0  0  0  0  0  0  0  0  0  0
   10.7581    6.5674   21.7636 C   0  0  0  0  0  0  0  0  0  0  0  0
    8.4452    8.7960   19.2958 O   0  0  0  0  0  0  0  0  0  0  0  0
    8.7122    6.7842   24.8569 C   0  0  0  0  0  0  0  0  0  0  0  0
   10.3400    6.1726   14.3081 C   0  0  0  0  0  0  0  0  0  0  0  0
    7.4297    7.5873   24.8962 C   0  0  0  0  0  0  0  0  0  0  0  0
    8.1566   10.0536   16.0516 O   0  0  0  0  0  0  0  0  0  0  0  0
   12.4989    6.2074   20.1776 C   0  0  0  0  0  0  0  0  0  0  0  0
    6.9192    9.1053   20.9073 O   0  0  0  0  0  0  0  0  0  0  0  0
   14.3979    6.0729   18.7784 C   0  0  0  0  0  0  0  0  0  0  0  0
    8.6811    9.5354   16.9998 C   0  0  0  0  0  0  0  0  0  0  0  0
    9.2512    4.2713   13.7653 O   0  0  0  0  0  0  0  0  0  0  0  0
    9.6495    8.6317   16.8332 N   0  0  0  0  0  0  0  0  0  0  0  0
    6.2934    8.6988   23.1988 O   0  0  0  0  0  0  0  0  0  0  0  0
    7.9806    8.6543   20.5437 C   0  0  0  0  0  0  0  0  0  0  0  0
   13.7270    5.7144   19.8610 O   0  0  0  0  0  0  0  0  0  0  0  0
    8.3351    5.5235   15.4478 C   0  0  0  0  0  0  0  0  0  0  0  0
    8.7700    7.8434   21.3915 C   0  0  0  0  0  0  0  0  0  0  0  0
   11.7856    6.8851   19.2401 C   0  0  0  0  0  0  0  0  0  0  0  0
   10.5281    7.4276   19.5649 C   0  0  0  0  0  0  0  0  0  0  0  0
   10.0256    7.2907   20.8484 C   0  0  0  0  0  0  0  0  0  0  0  0
    9.3113    5.3049   14.4911 C   0  0  0  0  0  0  0  0  0  0  0  0
    9.4607    7.5646   16.0139 C   0  0  0  0  0  0  0  0  0  0  0  0
   10.4192    7.3157   15.0955 C   0  0  0  0  0  0  0  0  0  0  0  0
   10.2489    6.4227   23.0218 N   0  0  0  0  0  0  0  0  0  0  0  0
    7.2472    8.0746   23.5050 C   0  0  0  0  0  0  0  0  0  0  0  0
    9.2051    6.9101   23.4604 C   0  0  0  0  0  0  0  0  0  0  0  0
   11.9646    6.0299   21.4251 C   0  0  0  0  0  0  0  0  0  0  0  0
  1  5  1  0
  1 13  1  0
  2 20  2  0
  2 28  1  0
  2 29  1  0
  3 19  4  0
  3 25  4  0
  4 23  4  0
  4 27  1  0
  4 30  4  0
  5 17  1  0
  6  8  1  0
  6 29  1  0
  7 24  4  0
  7 26  4  0
  8 28  1  0
  9 13  2  0
 10 18  1  0
 10 21  4  0
 10 30  4  0
 11 17  2  0
 12 18  1  0
 13 15  1  0
 14 24  1  0
 15 25  1  0
 16 28  2  0
 17 20  1  0
 19 24  4  0
 20 23  1  0
 21 22  4  0
 22 23  4  0
 25 26  4  0
 27 29  2  0
M  END
$$$$

 Created by Python create_sdf_string function

 30 33  0  0  0  0  0  0  0  0999 V2000
    8.3036    9.8571   18.4133 C   0  0  0  0  0  0  0  0  0  0  0  0
    8.3694    7.6612   22.6703 C   0  0  0  0  0  0  0  0  0  0  0  0
    8.4143    6.6863   16.2273 C   0  0  0  0  0  0  0  0  0  0  0  0
   10.7581    6.5674   21.7636 C   0  0  0  0  0  0  0  0  0  0  0  0
    8.4452    8.7960   19.2958 O   0  0  0  0  0  0  0  0  0  0  0  0
    8.7122    6.7842   24.8569 C   0  0  0  0  0  0  0  0  0  0  0  0
   10.3400    6.1726   14.3081 C   0  0  0  0  0  0  0  0  0  0  0  0
    7.4297    7.5873   24.8962 C   0  0  0  0  0  0  0  0  0  0  0  0
    8.1566   10.0536   16.0516 O   0  0  0  0  0  0  0  0  0  0  0  0
   12.4989    6.2074   20.1776 C   0  0  0  0  0  0  0  0  0  0  0  0
    6.9192    9.1053   20.9073 O   0  0  0  0  0  0  0  0  0  0  0  0
   14.3979    6.0729   18.7784 C   0  0  0  0  0  0  0  0  0  0  0  0
    8.6811    9.5354   16.9998 C   0  0  0  0  0  0  0  0  0  0  0  0
    9.2512    4.2713   13.7653 O   0  0  0  0  0  0  0  0  0  0  0  0
    9.6495    8.6317   16.8332 N   0  0  0  0  0  0  0  0  0  0  0  0
    6.2934    8.6988   23.1988 O   0  0  0  0  0  0  0  0  0  0  0  0
    7.9806    8.6543   20.5437 C   0  0  0  0  0  0  0  0  0  0  0  0
   13.7270    5.7144   19.8610 O   0  0  0  0  0  0  0  0  0  0  0  0
    8.3351    5.5235   15.4478 C   0  0  0  0  0  0  0  0  0  0  0  0
    8.7700    7.8434   21.3915 C   0  0  0  0  0  0  0  0  0  0  0  0
   11.7856    6.8851   19.2401 C   0  0  0  0  0  0  0  0  0  0  0  0
   10.5281    7.4276   19.5649 C   0  0  0  0  0  0  0  0  0  0  0  0
   10.0256    7.2907   20.8484 C   0  0  0  0  0  0  0  0  0  0  0  0
    9.3113    5.3049   14.4911 C   0  0  0  0  0  0  0  0  0  0  0  0
    9.4607    7.5646   16.0139 C   0  0  0  0  0  0  0  0  0  0  0  0
   10.4192    7.3157   15.0955 C   0  0  0  0  0  0  0  0  0  0  0  0
   10.2489    6.4227   23.0218 N   0  0  0  0  0  0  0  0  0  0  0  0
    7.2472    8.0746   23.5050 C   0  0  0  0  0  0  0  0  0  0  0  0
    9.2051    6.9101   23.4604 C   0  0  0  0  0  0  0  0  0  0  0  0
   11.9646    6.0299   21.4251 C   0  0  0  0  0  0  0  0  0  0  0  0
  1  5  1  0
  1 13  1  0
  2 20  2  0
  2 28  1  0
  2 29  1  0
  3 19  4  0
  3 25  4  0
  4 23  4  0
  4 27  1  0
  4 30  4  0
  5 17  1  0
  6  8  1  0
  6 29  1  0
  7 24  4  0
  7 26  4  0
  8 28  1  0
  9 13  2  0
 10 18  1  0
 10 21  4  0
 10 30  4  0
 11 17  2  0
 12 18  1  0
 13 15  1  0
 14 24  1  0
 15 25  1  0
 16 28  2  0
 17 20  1  0
 19 24  4  0
 20 23  1  0
 21 22  4  0
 22 23  4  0
 25 26  4  0
 27 29  2  0
M  END
$$$$

 Created by Python create_sdf_string function

 30 33  0  0  0  0  0  0  0  0999 V2000
    8.3036    9.8571   18.4133 C   0  0  0  0  0  0  0  0  0  0  0  0
    8.3694    7.6612   22.6703 C   0  0  0  0  0  0  0  0  0  0  0  0
    8.4143    6.6863   16.2273 C   0  0  0  0  0  0  0  0  0  0  0  0
   10.7581    6.5674   21.7636 C   0  0  0  0  0  0  0  0  0  0  0  0
    8.4452    8.7960   19.2958 O   0  0  0  0  0  0  0  0  0  0  0  0
    8.7122    6.7842   24.8569 C   0  0  0  0  0  0  0  0  0  0  0  0
   10.3400    6.1726   14.3081 C   0  0  0  0  0  0  0  0  0  0  0  0
    7.4297    7.5873   24.8962 C   0  0  0  0  0  0  0  0  0  0  0  0
    8.1566   10.0536   16.0516 O   0  0  0  0  0  0  0  0  0  0  0  0
   12.4989    6.2074   20.1776 C   0  0  0  0  0  0  0  0  0  0  0  0
    6.9192    9.1053   20.9073 O   0  0  0  0  0  0  0  0  0  0  0  0
   14.3979    6.0729   18.7784 C   0  0  0  0  0  0  0  0  0  0  0  0
    8.6811    9.5354   16.9998 C   0  0  0  0  0  0  0  0  0  0  0  0
    9.2512    4.2713   13.7653 O   0  0  0  0  0  0  0  0  0  0  0  0
    9.6495    8.6317   16.8332 N   0  0  0  0  0  0  0  0  0  0  0  0
    6.2934    8.6988   23.1988 O   0  0  0  0  0  0  0  0  0  0  0  0
    7.9806    8.6543   20.5437 C   0  0  0  0  0  0  0  0  0  0  0  0
   13.7270    5.7144   19.8610 O   0  0  0  0  0  0  0  0  0  0  0  0
    8.3351    5.5235   15.4478 C   0  0  0  0  0  0  0  0  0  0  0  0
    8.7700    7.8434   21.3915 C   0  0  0  0  0  0  0  0  0  0  0  0
   11.7856    6.8851   19.2401 C   0  0  0  0  0  0  0  0  0  0  0  0
   10.5281    7.4276   19.5649 C   0  0  0  0  0  0  0  0  0  0  0  0
   10.0256    7.2907   20.8484 C   0  0  0  0  0  0  0  0  0  0  0  0
    9.3113    5.3049   14.4911 C   0  0  0  0  0  0  0  0  0  0  0  0
    9.4607    7.5646   16.0139 C   0  0  0  0  0  0  0  0  0  0  0  0
   10.4192    7.3157   15.0955 C   0  0  0  0  0  0  0  0  0  0  0  0
   10.2489    6.4227   23.0218 N   0  0  0  0  0  0  0  0  0  0  0  0
    7.2472    8.0746   23.5050 C   0  0  0  0  0  0  0  0  0  0  0  0
    9.2051    6.9101   23.4604 C   0  0  0  0  0  0  0  0  0  0  0  0
   11.9646    6.0299   21.4251 C   0  0  0  0  0  0  0  0  0  0  0  0
  1  5  1  0
  1 13  1  0
  2 20  2  0
  2 28  1  0
  2 29  1  0
  3 19  4  0
  3 25  4  0
  4 23  4  0
  4 27  1  0
  4 30  4  0
  5 17  1  0
  6  8  1  0
  6 29  1  0
  7 24  4  0
  7 26  4  0
  8 28  1  0
  9 13  2  0
 10 18  1  0
 10 21  4  0
 10 30  4  0
 11 17  2  0
 12 18  1  0
 13 15  1  0
 14 24  1  0
 15 25  1  0
 16 28  2  0
 17 20  1  0
 19 24  4  0
 20 23  1  0
 21 22  4  0
 22 23  4  0
 25 26  4  0
 27 29  2  0
M  END
$$$$

 Created by Python create_sdf_string function

 30 33  0  0  0  0  0  0  0  0999 V2000
    8.3036    9.8571   18.4133 C   0  0  0  0  0  0  0  0  0  0  0  0
    8.3694    7.6612   22.6703 C   0  0  0  0  0  0  0  0  0  0  0  0
    8.4143    6.6863   16.2273 C   0  0  0  0  0  0  0  0  0  0  0  0
   10.7581    6.5674   21.7636 C   0  0  0  0  0  0  0  0  0  0  0  0
    8.4452    8.7960   19.2958 O   0  0  0  0  0  0  0  0  0  0  0  0
    8.7122    6.7842   24.8569 C   0  0  0  0  0  0  0  0  0  0  0  0
   10.3400    6.1726   14.3081 C   0  0  0  0  0  0  0  0  0  0  0  0
    7.4297    7.5873   24.8962 C   0  0  0  0  0  0  0  0  0  0  0  0
    8.1566   10.0536   16.0516 O   0  0  0  0  0  0  0  0  0  0  0  0
   12.4989    6.2074   20.1776 C   0  0  0  0  0  0  0  0  0  0  0  0
    6.9192    9.1053   20.9073 O   0  0  0  0  0  0  0  0  0  0  0  0
   14.3979    6.0729   18.7784 C   0  0  0  0  0  0  0  0  0  0  0  0
    8.6811    9.5354   16.9998 C   0  0  0  0  0  0  0  0  0  0  0  0
    9.2512    4.2713   13.7653 O   0  0  0  0  0  0  0  0  0  0  0  0
    9.6495    8.6317   16.8332 N   0  0  0  0  0  0  0  0  0  0  0  0
    6.2934    8.6988   23.1988 O   0  0  0  0  0  0  0  0  0  0  0  0
    7.9806    8.6543   20.5437 C   0  0  0  0  0  0  0  0  0  0  0  0
   13.7270    5.7144   19.8610 O   0  0  0  0  0  0  0  0  0  0  0  0
    8.3351    5.5235   15.4478 C   0  0  0  0  0  0  0  0  0  0  0  0
    8.7700    7.8434   21.3915 C   0  0  0  0  0  0  0  0  0  0  0  0
   11.7856    6.8851   19.2401 C   0  0  0  0  0  0  0  0  0  0  0  0
   10.5281    7.4276   19.5649 C   0  0  0  0  0  0  0  0  0  0  0  0
   10.0256    7.2907   20.8484 C   0  0  0  0  0  0  0  0  0  0  0  0
    9.3113    5.3049   14.4911 C   0  0  0  0  0  0  0  0  0  0  0  0
    9.4607    7.5646   16.0139 C   0  0  0  0  0  0  0  0  0  0  0  0
   10.4192    7.3157   15.0955 C   0  0  0  0  0  0  0  0  0  0  0  0
   10.2489    6.4227   23.0218 N   0  0  0  0  0  0  0  0  0  0  0  0
    7.2472    8.0746   23.5050 C   0  0  0  0  0  0  0  0  0  0  0  0
    9.2051    6.9101   23.4604 C   0  0  0  0  0  0  0  0  0  0  0  0
   11.9646    6.0299   21.4251 C   0  0  0  0  0  0  0  0  0  0  0  0
  1  5  1  0
  1 13  1  0
  2 20  2  0
  2 28  1  0
  2 29  1  0
  3 19  4  0
  3 25  4  0
  4 23  4  0
  4 27  1  0
  4 30  4  0
  5 17  1  0
  6  8  1  0
  6 29  1  0
  7 24  4  0
  7 26  4  0
  8 28  1  0
  9 13  2  0
 10 18  1  0
 10 21  4  0
 10 30  4  0
 11 17  2  0
 12 18  1  0
 13 15  1  0
 14 24  1  0
 15 25  1  0
 16 28  2  0
 17 20  1  0
 19 24  4  0
 20 23  1  0
 21 22  4  0
 22 23  4  0
 25 26  4  0
 27 29  2  0
M  END
$$$$

 Created by Python create_sdf_string function

 30 33  0  0  0  0  0  0  0  0999 V2000
    8.3036    9.8571   18.4133 C   0  0  0  0  0  0  0  0  0  0  0  0
    8.3694    7.6612   22.6703 C   0  0  0  0  0  0  0  0  0  0  0  0
    8.4143    6.6863   16.2273 C   0  0  0  0  0  0  0  0  0  0  0  0
   10.7581    6.5674   21.7636 C   0  0  0  0  0  0  0  0  0  0  0  0
    8.4452    8.7960   19.2958 O   0  0  0  0  0  0  0  0  0  0  0  0
    8.7122    6.7842   24.8569 C   0  0  0  0  0  0  0  0  0  0  0  0
   10.3400    6.1726   14.3081 C   0  0  0  0  0  0  0  0  0  0  0  0
    7.4297    7.5873   24.8962 C   0  0  0  0  0  0  0  0  0  0  0  0
    8.1566   10.0536   16.0516 O   0  0  0  0  0  0  0  0  0  0  0  0
   12.4989    6.2074   20.1776 C   0  0  0  0  0  0  0  0  0  0  0  0
    6.9192    9.1053   20.9073 O   0  0  0  0  0  0  0  0  0  0  0  0
   14.3979    6.0729   18.7784 C   0  0  0  0  0  0  0  0  0  0  0  0
    8.6811    9.5354   16.9998 C   0  0  0  0  0  0  0  0  0  0  0  0
    9.2512    4.2713   13.7653 O   0  0  0  0  0  0  0  0  0  0  0  0
    9.6495    8.6317   16.8332 N   0  0  0  0  0  0  0  0  0  0  0  0
    6.2934    8.6988   23.1988 O   0  0  0  0  0  0  0  0  0  0  0  0
    7.9806    8.6543   20.5437 C   0  0  0  0  0  0  0  0  0  0  0  0
   13.7270    5.7144   19.8610 O   0  0  0  0  0  0  0  0  0  0  0  0
    8.3351    5.5235   15.4478 C   0  0  0  0  0  0  0  0  0  0  0  0
    8.7700    7.8434   21.3915 C   0  0  0  0  0  0  0  0  0  0  0  0
   11.7856    6.8851   19.2401 C   0  0  0  0  0  0  0  0  0  0  0  0
   10.5281    7.4276   19.5649 C   0  0  0  0  0  0  0  0  0  0  0  0
   10.0256    7.2907   20.8484 C   0  0  0  0  0  0  0  0  0  0  0  0
    9.3113    5.3049   14.4911 C   0  0  0  0  0  0  0  0  0  0  0  0
    9.4607    7.5646   16.0139 C   0  0  0  0  0  0  0  0  0  0  0  0
   10.4192    7.3157   15.0955 C   0  0  0  0  0  0  0  0  0  0  0  0
   10.2489    6.4227   23.0218 N   0  0  0  0  0  0  0  0  0  0  0  0
    7.2472    8.0746   23.5050 C   0  0  0  0  0  0  0  0  0  0  0  0
    9.2051    6.9101   23.4604 C   0  0  0  0  0  0  0  0  0  0  0  0
   11.9646    6.0299   21.4251 C   0  0  0  0  0  0  0  0  0  0  0  0
  1  5  1  0
  1 13  1  0
  2 20  2  0
  2 28  1  0
  2 29  1  0
  3 19  4  0
  3 25  4  0
  4 23  4  0
  4 27  1  0
  4 30  4  0
  5 17  1  0
  6  8  1  0
  6 29  1  0
  7 24  4  0
  7 26  4  0
  8 28  1  0
  9 13  2  0
 10 18  1  0
 10 21  4  0
 10 30  4  0
 11 17  2  0
 12 18  1  0
 13 15  1  0
 14 24  1  0
 15 25  1  0
 16 28  2  0
 17 20  1  0
 19 24  4  0
 20 23  1  0
 21 22  4  0
 22 23  4  0
 25 26  4  0
 27 29  2  0
M  END
$$$$

 Created by Python create_sdf_string function

 30 33  0  0  0  0  0  0  0  0999 V2000
    8.3036    9.8571   18.4133 C   0  0  0  0  0  0  0  0  0  0  0  0
    8.3694    7.6612   22.6703 C   0  0  0  0  0  0  0  0  0  0  0  0
    8.4143    6.6863   16.2273 C   0  0  0  0  0  0  0  0  0  0  0  0
   10.7581    6.5674   21.7636 C   0  0  0  0  0  0  0  0  0  0  0  0
    8.4452    8.7960   19.2958 O   0  0  0  0  0  0  0  0  0  0  0  0
    8.7122    6.7842   24.8569 C   0  0  0  0  0  0  0  0  0  0  0  0
   10.3400    6.1726   14.3081 C   0  0  0  0  0  0  0  0  0  0  0  0
    7.4297    7.5873   24.8962 C   0  0  0  0  0  0  0  0  0  0  0  0
    8.1566   10.0536   16.0516 O   0  0  0  0  0  0  0  0  0  0  0  0
   12.4989    6.2074   20.1776 C   0  0  0  0  0  0  0  0  0  0  0  0
    6.9192    9.1053   20.9073 O   0  0  0  0  0  0  0  0  0  0  0  0
   14.3979    6.0729   18.7784 C   0  0  0  0  0  0  0  0  0  0  0  0
    8.6811    9.5354   16.9998 C   0  0  0  0  0  0  0  0  0  0  0  0
    9.2512    4.2713   13.7653 O   0  0  0  0  0  0  0  0  0  0  0  0
    9.6495    8.6317   16.8332 N   0  0  0  0  0  0  0  0  0  0  0  0
    6.2934    8.6988   23.1988 O   0  0  0  0  0  0  0  0  0  0  0  0
    7.9806    8.6543   20.5437 C   0  0  0  0  0  0  0  0  0  0  0  0
   13.7270    5.7144   19.8610 O   0  0  0  0  0  0  0  0  0  0  0  0
    8.3351    5.5235   15.4478 C   0  0  0  0  0  0  0  0  0  0  0  0
    8.7700    7.8434   21.3915 C   0  0  0  0  0  0  0  0  0  0  0  0
   11.7856    6.8851   19.2401 C   0  0  0  0  0  0  0  0  0  0  0  0
   10.5281    7.4276   19.5649 C   0  0  0  0  0  0  0  0  0  0  0  0
   10.0256    7.2907   20.8484 C   0  0  0  0  0  0  0  0  0  0  0  0
    9.3113    5.3049   14.4911 C   0  0  0  0  0  0  0  0  0  0  0  0
    9.4607    7.5646   16.0139 C   0  0  0  0  0  0  0  0  0  0  0  0
   10.4192    7.3157   15.0955 C   0  0  0  0  0  0  0  0  0  0  0  0
   10.2489    6.4227   23.0218 N   0  0  0  0  0  0  0  0  0  0  0  0
    7.2472    8.0746   23.5050 C   0  0  0  0  0  0  0  0  0  0  0  0
    9.2051    6.9101   23.4604 C   0  0  0  0  0  0  0  0  0  0  0  0
   11.9646    6.0299   21.4251 C   0  0  0  0  0  0  0  0  0  0  0  0
  1  5  1  0
  1 13  1  0
  2 20  2  0
  2 28  1  0
  2 29  1  0
  3 19  4  0
  3 25  4  0
  4 23  4  0
  4 27  1  0
  4 30  4  0
  5 17  1  0
  6  8  1  0
  6 29  1  0
  7 24  4  0
  7 26  4  0
  8 28  1  0
  9 13  2  0
 10 18  1  0
 10 21  4  0
 10 30  4  0
 11 17  2  0
 12 18  1  0
 13 15  1  0
 14 24  1  0
 15 25  1  0
 16 28  2  0
 17 20  1  0
 19 24  4  0
 20 23  1  0
 21 22  4  0
 22 23  4  0
 25 26  4  0
 27 29  2  0
M  END
$$$$

 Created by Python create_sdf_string function

 30 33  0  0  0  0  0  0  0  0999 V2000
    8.3036    9.8571   18.4133 C   0  0  0  0  0  0  0  0  0  0  0  0
    8.3694    7.6612   22.6703 C   0  0  0  0  0  0  0  0  0  0  0  0
    8.4143    6.6863   16.2273 C   0  0  0  0  0  0  0  0  0  0  0  0
   10.7581    6.5674   21.7636 C   0  0  0  0  0  0  0  0  0  0  0  0
    8.4452    8.7960   19.2958 O   0  0  0  0  0  0  0  0  0  0  0  0
    8.7122    6.7842   24.8569 C   0  0  0  0  0  0  0  0  0  0  0  0
   10.3400    6.1726   14.3081 C   0  0  0  0  0  0  0  0  0  0  0  0
    7.4297    7.5873   24.8962 C   0  0  0  0  0  0  0  0  0  0  0  0
    8.1566   10.0536   16.0516 O   0  0  0  0  0  0  0  0  0  0  0  0
   12.4989    6.2074   20.1776 C   0  0  0  0  0  0  0  0  0  0  0  0
    6.9192    9.1053   20.9073 O   0  0  0  0  0  0  0  0  0  0  0  0
   14.3979    6.0729   18.7784 C   0  0  0  0  0  0  0  0  0  0  0  0
    8.6811    9.5354   16.9998 C   0  0  0  0  0  0  0  0  0  0  0  0
    9.2512    4.2713   13.7653 O   0  0  0  0  0  0  0  0  0  0  0  0
    9.6495    8.6317   16.8332 N   0  0  0  0  0  0  0  0  0  0  0  0
    6.2934    8.6988   23.1988 O   0  0  0  0  0  0  0  0  0  0  0  0
    7.9806    8.6543   20.5437 C   0  0  0  0  0  0  0  0  0  0  0  0
   13.7270    5.7144   19.8610 O   0  0  0  0  0  0  0  0  0  0  0  0
    8.3351    5.5235   15.4478 C   0  0  0  0  0  0  0  0  0  0  0  0
    8.7700    7.8434   21.3915 C   0  0  0  0  0  0  0  0  0  0  0  0
   11.7856    6.8851   19.2401 C   0  0  0  0  0  0  0  0  0  0  0  0
   10.5281    7.4276   19.5649 C   0  0  0  0  0  0  0  0  0  0  0  0
   10.0256    7.2907   20.8484 C   0  0  0  0  0  0  0  0  0  0  0  0
    9.3113    5.3049   14.4911 C   0  0  0  0  0  0  0  0  0  0  0  0
    9.4607    7.5646   16.0139 C   0  0  0  0  0  0  0  0  0  0  0  0
   10.4192    7.3157   15.0955 C   0  0  0  0  0  0  0  0  0  0  0  0
   10.2489    6.4227   23.0218 N   0  0  0  0  0  0  0  0  0  0  0  0
    7.2472    8.0746   23.5050 C   0  0  0  0  0  0  0  0  0  0  0  0
    9.2051    6.9101   23.4604 C   0  0  0  0  0  0  0  0  0  0  0  0
   11.9646    6.0299   21.4251 C   0  0  0  0  0  0  0  0  0  0  0  0
  1  5  1  0
  1 13  1  0
  2 20  2  0
  2 28  1  0
  2 29  1  0
  3 19  4  0
  3 25  4  0
  4 23  4  0
  4 27  1  0
  4 30  4  0
  5 17  1  0
  6  8  1  0
  6 29  1  0
  7 24  4  0
  7 26  4  0
  8 28  1  0
  9 13  2  0
 10 18  1  0
 10 21  4  0
 10 30  4  0
 11 17  2  0
 12 18  1  0
 13 15  1  0
 14 24  1  0
 15 25  1  0
 16 28  2  0
 17 20  1  0
 19 24  4  0
 20 23  1  0
 21 22  4  0
 22 23  4  0
 25 26  4  0
 27 29  2  0
M  END
$$$$

 Created by Python create_sdf_string function

 30 33  0  0  0  0  0  0  0  0999 V2000
    8.3036    9.8571   18.4133 C   0  0  0  0  0  0  0  0  0  0  0  0
    8.3694    7.6612   22.6703 C   0  0  0  0  0  0  0  0  0  0  0  0
    8.4143    6.6863   16.2273 C   0  0  0  0  0  0  0  0  0  0  0  0
   10.7581    6.5674   21.7636 C   0  0  0  0  0  0  0  0  0  0  0  0
    8.4452    8.7960   19.2958 O   0  0  0  0  0  0  0  0  0  0  0  0
    8.7122    6.7842   24.8569 C   0  0  0  0  0  0  0  0  0  0  0  0
   10.3400    6.1726   14.3081 C   0  0  0  0  0  0  0  0  0  0  0  0
    7.4297    7.5873   24.8962 C   0  0  0  0  0  0  0  0  0  0  0  0
    8.1566   10.0536   16.0516 O   0  0  0  0  0  0  0  0  0  0  0  0
   12.4989    6.2074   20.1776 C   0  0  0  0  0  0  0  0  0  0  0  0
    6.9192    9.1053   20.9073 O   0  0  0  0  0  0  0  0  0  0  0  0
   14.3979    6.0729   18.7784 C   0  0  0  0  0  0  0  0  0  0  0  0
    8.6811    9.5354   16.9998 C   0  0  0  0  0  0  0  0  0  0  0  0
    9.2512    4.2713   13.7653 O   0  0  0  0  0  0  0  0  0  0  0  0
    9.6495    8.6317   16.8332 N   0  0  0  0  0  0  0  0  0  0  0  0
    6.2934    8.6988   23.1988 O   0  0  0  0  0  0  0  0  0  0  0  0
    7.9806    8.6543   20.5437 C   0  0  0  0  0  0  0  0  0  0  0  0
   13.7270    5.7144   19.8610 O   0  0  0  0  0  0  0  0  0  0  0  0
    8.3351    5.5235   15.4478 C   0  0  0  0  0  0  0  0  0  0  0  0
    8.7700    7.8434   21.3915 C   0  0  0  0  0  0  0  0  0  0  0  0
   11.7856    6.8851   19.2401 C   0  0  0  0  0  0  0  0  0  0  0  0
   10.5281    7.4276   19.5649 C   0  0  0  0  0  0  0  0  0  0  0  0
   10.0256    7.2907   20.8484 C   0  0  0  0  0  0  0  0  0  0  0  0
    9.3113    5.3049   14.4911 C   0  0  0  0  0  0  0  0  0  0  0  0
    9.4607    7.5646   16.0139 C   0  0  0  0  0  0  0  0  0  0  0  0
   10.4192    7.3157   15.0955 C   0  0  0  0  0  0  0  0  0  0  0  0
   10.2489    6.4227   23.0218 N   0  0  0  0  0  0  0  0  0  0  0  0
    7.2472    8.0746   23.5050 C   0  0  0  0  0  0  0  0  0  0  0  0
    9.2051    6.9101   23.4604 C   0  0  0  0  0  0  0  0  0  0  0  0
   11.9646    6.0299   21.4251 C   0  0  0  0  0  0  0  0  0  0  0  0
  1  5  1  0
  1 13  1  0
  2 20  2  0
  2 28  1  0
  2 29  1  0
  3 19  4  0
  3 25  4  0
  4 23  4  0
  4 27  1  0
  4 30  4  0
  5 17  1  0
  6  8  1  0
  6 29  1  0
  7 24  4  0
  7 26  4  0
  8 28  1  0
  9 13  2  0
 10 18  1  0
 10 21  4  0
 10 30  4  0
 11 17  2  0
 12 18  1  0
 13 15  1  0
 14 24  1  0
 15 25  1  0
 16 28  2  0
 17 20  1  0
 19 24  4  0
 20 23  1  0
 21 22  4  0
 22 23  4  0
 25 26  4  0
 27 29  2  0
M  END
$$$$

 Created by Python create_sdf_string function

 30 33  0  0  0  0  0  0  0  0999 V2000
    8.3036    9.8571   18.4133 C   0  0  0  0  0  0  0  0  0  0  0  0
    8.3694    7.6612   22.6703 C   0  0  0  0  0  0  0  0  0  0  0  0
    8.4143    6.6863   16.2273 C   0  0  0  0  0  0  0  0  0  0  0  0
   10.7581    6.5674   21.7636 C   0  0  0  0  0  0  0  0  0  0  0  0
    8.4452    8.7960   19.2958 O   0  0  0  0  0  0  0  0  0  0  0  0
    8.7122    6.7842   24.8569 C   0  0  0  0  0  0  0  0  0  0  0  0
   10.3400    6.1726   14.3081 C   0  0  0  0  0  0  0  0  0  0  0  0
    7.4297    7.5873   24.8962 C   0  0  0  0  0  0  0  0  0  0  0  0
    8.1566   10.0536   16.0516 O   0  0  0  0  0  0  0  0  0  0  0  0
   12.4989    6.2074   20.1776 C   0  0  0  0  0  0  0  0  0  0  0  0
    6.9192    9.1053   20.9073 O   0  0  0  0  0  0  0  0  0  0  0  0
   14.3979    6.0729   18.7784 C   0  0  0  0  0  0  0  0  0  0  0  0
    8.6811    9.5354   16.9998 C   0  0  0  0  0  0  0  0  0  0  0  0
    9.2512    4.2713   13.7653 O   0  0  0  0  0  0  0  0  0  0  0  0
    9.6495    8.6317   16.8332 N   0  0  0  0  0  0  0  0  0  0  0  0
    6.2934    8.6988   23.1988 O   0  0  0  0  0  0  0  0  0  0  0  0
    7.9806    8.6543   20.5437 C   0  0  0  0  0  0  0  0  0  0  0  0
   13.7270    5.7144   19.8610 O   0  0  0  0  0  0  0  0  0  0  0  0
    8.3351    5.5235   15.4478 C   0  0  0  0  0  0  0  0  0  0  0  0
    8.7700    7.8434   21.3915 C   0  0  0  0  0  0  0  0  0  0  0  0
   11.7856    6.8851   19.2401 C   0  0  0  0  0  0  0  0  0  0  0  0
   10.5281    7.4276   19.5649 C   0  0  0  0  0  0  0  0  0  0  0  0
   10.0256    7.2907   20.8484 C   0  0  0  0  0  0  0  0  0  0  0  0
    9.3113    5.3049   14.4911 C   0  0  0  0  0  0  0  0  0  0  0  0
    9.4607    7.5646   16.0139 C   0  0  0  0  0  0  0  0  0  0  0  0
   10.4192    7.3157   15.0955 C   0  0  0  0  0  0  0  0  0  0  0  0
   10.2489    6.4227   23.0218 N   0  0  0  0  0  0  0  0  0  0  0  0
    7.2472    8.0746   23.5050 C   0  0  0  0  0  0  0  0  0  0  0  0
    9.2051    6.9101   23.4604 C   0  0  0  0  0  0  0  0  0  0  0  0
   11.9646    6.0299   21.4251 C   0  0  0  0  0  0  0  0  0  0  0  0
  1  5  1  0
  1 13  1  0
  2 20  2  0
  2 28  1  0
  2 29  1  0
  3 19  4  0
  3 25  4  0
  4 23  4  0
  4 27  1  0
  4 30  4  0
  5 17  1  0
  6  8  1  0
  6 29  1  0
  7 24  4  0
  7 26  4  0
  8 28  1  0
  9 13  2  0
 10 18  1  0
 10 21  4  0
 10 30  4  0
 11 17  2  0
 12 18  1  0
 13 15  1  0
 14 24  1  0
 15 25  1  0
 16 28  2  0
 17 20  1  0
 19 24  4  0
 20 23  1  0
 21 22  4  0
 22 23  4  0
 25 26  4  0
 27 29  2  0
M  END
$$$$

 Created by Python create_sdf_string function

 30 33  0  0  0  0  0  0  0  0999 V2000
    8.3036    9.8571   18.4133 C   0  0  0  0  0  0  0  0  0  0  0  0
    8.3694    7.6612   22.6703 C   0  0  0  0  0  0  0  0  0  0  0  0
    8.4143    6.6863   16.2273 C   0  0  0  0  0  0  0  0  0  0  0  0
   10.7581    6.5674   21.7636 C   0  0  0  0  0  0  0  0  0  0  0  0
    8.4452    8.7960   19.2958 O   0  0  0  0  0  0  0  0  0  0  0  0
    8.7122    6.7842   24.8569 C   0  0  0  0  0  0  0  0  0  0  0  0
   10.3400    6.1726   14.3081 C   0  0  0  0  0  0  0  0  0  0  0  0
    7.4297    7.5873   24.8962 C   0  0  0  0  0  0  0  0  0  0  0  0
    8.1566   10.0536   16.0516 O   0  0  0  0  0  0  0  0  0  0  0  0
   12.4989    6.2074   20.1776 C   0  0  0  0  0  0  0  0  0  0  0  0
    6.9192    9.1053   20.9073 O   0  0  0  0  0  0  0  0  0  0  0  0
   14.3979    6.0729   18.7784 C   0  0  0  0  0  0  0  0  0  0  0  0
    8.6811    9.5354   16.9998 C   0  0  0  0  0  0  0  0  0  0  0  0
    9.2512    4.2713   13.7653 O   0  0  0  0  0  0  0  0  0  0  0  0
    9.6495    8.6317   16.8332 N   0  0  0  0  0  0  0  0  0  0  0  0
    6.2934    8.6988   23.1988 O   0  0  0  0  0  0  0  0  0  0  0  0
    7.9806    8.6543   20.5437 C   0  0  0  0  0  0  0  0  0  0  0  0
   13.7270    5.7144   19.8610 O   0  0  0  0  0  0  0  0  0  0  0  0
    8.3351    5.5235   15.4478 C   0  0  0  0  0  0  0  0  0  0  0  0
    8.7700    7.8434   21.3915 C   0  0  0  0  0  0  0  0  0  0  0  0
   11.7856    6.8851   19.2401 C   0  0  0  0  0  0  0  0  0  0  0  0
   10.5281    7.4276   19.5649 C   0  0  0  0  0  0  0  0  0  0  0  0
   10.0256    7.2907   20.8484 C   0  0  0  0  0  0  0  0  0  0  0  0
    9.3113    5.3049   14.4911 C   0  0  0  0  0  0  0  0  0  0  0  0
    9.4607    7.5646   16.0139 C   0  0  0  0  0  0  0  0  0  0  0  0
   10.4192    7.3157   15.0955 C   0  0  0  0  0  0  0  0  0  0  0  0
   10.2489    6.4227   23.0218 N   0  0  0  0  0  0  0  0  0  0  0  0
    7.2472    8.0746   23.5050 C   0  0  0  0  0  0  0  0  0  0  0  0
    9.2051    6.9101   23.4604 C   0  0  0  0  0  0  0  0  0  0  0  0
   11.9646    6.0299   21.4251 C   0  0  0  0  0  0  0  0  0  0  0  0
  1  5  1  0
  1 13  1  0
  2 20  2  0
  2 28  1  0
  2 29  1  0
  3 19  4  0
  3 25  4  0
  4 23  4  0
  4 27  1  0
  4 30  4  0
  5 17  1  0
  6  8  1  0
  6 29  1  0
  7 24  4  0
  7 26  4  0
  8 28  1  0
  9 13  2  0
 10 18  1  0
 10 21  4  0
 10 30  4  0
 11 17  2  0
 12 18  1  0
 13 15  1  0
 14 24  1  0
 15 25  1  0
 16 28  2  0
 17 20  1  0
 19 24  4  0
 20 23  1  0
 21 22  4  0
 22 23  4  0
 25 26  4  0
 27 29  2  0
M  END
$$$$

 Created by Python create_sdf_string function

 30 33  0  0  0  0  0  0  0  0999 V2000
    8.3036    9.8571   18.4133 C   0  0  0  0  0  0  0  0  0  0  0  0
    8.3694    7.6612   22.6703 C   0  0  0  0  0  0  0  0  0  0  0  0
    8.4143    6.6863   16.2273 C   0  0  0  0  0  0  0  0  0  0  0  0
   10.7581    6.5674   21.7636 C   0  0  0  0  0  0  0  0  0  0  0  0
    8.4452    8.7960   19.2958 O   0  0  0  0  0  0  0  0  0  0  0  0
    8.7122    6.7842   24.8569 C   0  0  0  0  0  0  0  0  0  0  0  0
   10.3400    6.1726   14.3081 C   0  0  0  0  0  0  0  0  0  0  0  0
    7.4297    7.5873   24.8962 C   0  0  0  0  0  0  0  0  0  0  0  0
    8.1566   10.0536   16.0516 O   0  0  0  0  0  0  0  0  0  0  0  0
   12.4989    6.2074   20.1776 C   0  0  0  0  0  0  0  0  0  0  0  0
    6.9192    9.1053   20.9073 O   0  0  0  0  0  0  0  0  0  0  0  0
   14.3979    6.0729   18.7784 C   0  0  0  0  0  0  0  0  0  0  0  0
    8.6811    9.5354   16.9998 C   0  0  0  0  0  0  0  0  0  0  0  0
    9.2512    4.2713   13.7653 O   0  0  0  0  0  0  0  0  0  0  0  0
    9.6495    8.6317   16.8332 N   0  0  0  0  0  0  0  0  0  0  0  0
    6.2934    8.6988   23.1988 O   0  0  0  0  0  0  0  0  0  0  0  0
    7.9806    8.6543   20.5437 C   0  0  0  0  0  0  0  0  0  0  0  0
   13.7270    5.7144   19.8610 O   0  0  0  0  0  0  0  0  0  0  0  0
    8.3351    5.5235   15.4478 C   0  0  0  0  0  0  0  0  0  0  0  0
    8.7700    7.8434   21.3915 C   0  0  0  0  0  0  0  0  0  0  0  0
   11.7856    6.8851   19.2401 C   0  0  0  0  0  0  0  0  0  0  0  0
   10.5281    7.4276   19.5649 C   0  0  0  0  0  0  0  0  0  0  0  0
   10.0256    7.2907   20.8484 C   0  0  0  0  0  0  0  0  0  0  0  0
    9.3113    5.3049   14.4911 C   0  0  0  0  0  0  0  0  0  0  0  0
    9.4607    7.5646   16.0139 C   0  0  0  0  0  0  0  0  0  0  0  0
   10.4192    7.3157   15.0955 C   0  0  0  0  0  0  0  0  0  0  0  0
   10.2489    6.4227   23.0218 N   0  0  0  0  0  0  0  0  0  0  0  0
    7.2472    8.0746   23.5050 C   0  0  0  0  0  0  0  0  0  0  0  0
    9.2051    6.9101   23.4604 C   0  0  0  0  0  0  0  0  0  0  0  0
   11.9646    6.0299   21.4251 C   0  0  0  0  0  0  0  0  0  0  0  0
  1  5  1  0
  1 13  1  0
  2 20  2  0
  2 28  1  0
  2 29  1  0
  3 19  4  0
  3 25  4  0
  4 23  4  0
  4 27  1  0
  4 30  4  0
  5 17  1  0
  6  8  1  0
  6 29  1  0
  7 24  4  0
  7 26  4  0
  8 28  1  0
  9 13  2  0
 10 18  1  0
 10 21  4  0
 10 30  4  0
 11 17  2  0
 12 18  1  0
 13 15  1  0
 14 24  1  0
 15 25  1  0
 16 28  2  0
 17 20  1  0
 19 24  4  0
 20 23  1  0
 21 22  4  0
 22 23  4  0
 25 26  4  0
 27 29  2  0
M  END
$$$$

 Created by Python create_sdf_string function

 30 33  0  0  0  0  0  0  0  0999 V2000
    8.3036    9.8571   18.4133 C   0  0  0  0  0  0  0  0  0  0  0  0
    8.3694    7.6612   22.6703 C   0  0  0  0  0  0  0  0  0  0  0  0
    8.4143    6.6863   16.2273 C   0  0  0  0  0  0  0  0  0  0  0  0
   10.7581    6.5674   21.7636 C   0  0  0  0  0  0  0  0  0  0  0  0
    8.4452    8.7960   19.2958 O   0  0  0  0  0  0  0  0  0  0  0  0
    8.7122    6.7842   24.8569 C   0  0  0  0  0  0  0  0  0  0  0  0
   10.3400    6.1726   14.3081 C   0  0  0  0  0  0  0  0  0  0  0  0
    7.4297    7.5873   24.8962 C   0  0  0  0  0  0  0  0  0  0  0  0
    8.1566   10.0536   16.0516 O   0  0  0  0  0  0  0  0  0  0  0  0
   12.4989    6.2074   20.1776 C   0  0  0  0  0  0  0  0  0  0  0  0
    6.9192    9.1053   20.9073 O   0  0  0  0  0  0  0  0  0  0  0  0
   14.3979    6.0729   18.7784 C   0  0  0  0  0  0  0  0  0  0  0  0
    8.6811    9.5354   16.9998 C   0  0  0  0  0  0  0  0  0  0  0  0
    9.2512    4.2713   13.7653 O   0  0  0  0  0  0  0  0  0  0  0  0
    9.6495    8.6317   16.8332 N   0  0  0  0  0  0  0  0  0  0  0  0
    6.2934    8.6988   23.1988 O   0  0  0  0  0  0  0  0  0  0  0  0
    7.9806    8.6543   20.5437 C   0  0  0  0  0  0  0  0  0  0  0  0
   13.7270    5.7144   19.8610 O   0  0  0  0  0  0  0  0  0  0  0  0
    8.3351    5.5235   15.4478 C   0  0  0  0  0  0  0  0  0  0  0  0
    8.7700    7.8434   21.3915 C   0  0  0  0  0  0  0  0  0  0  0  0
   11.7856    6.8851   19.2401 C   0  0  0  0  0  0  0  0  0  0  0  0
   10.5281    7.4276   19.5649 C   0  0  0  0  0  0  0  0  0  0  0  0
   10.0256    7.2907   20.8484 C   0  0  0  0  0  0  0  0  0  0  0  0
    9.3113    5.3049   14.4911 C   0  0  0  0  0  0  0  0  0  0  0  0
    9.4607    7.5646   16.0139 C   0  0  0  0  0  0  0  0  0  0  0  0
   10.4192    7.3157   15.0955 C   0  0  0  0  0  0  0  0  0  0  0  0
   10.2489    6.4227   23.0218 N   0  0  0  0  0  0  0  0  0  0  0  0
    7.2472    8.0746   23.5050 C   0  0  0  0  0  0  0  0  0  0  0  0
    9.2051    6.9101   23.4604 C   0  0  0  0  0  0  0  0  0  0  0  0
   11.9646    6.0299   21.4251 C   0  0  0  0  0  0  0  0  0  0  0  0
  1  5  1  0
  1 13  1  0
  2 20  2  0
  2 28  1  0
  2 29  1  0
  3 19  4  0
  3 25  4  0
  4 23  4  0
  4 27  1  0
  4 30  4  0
  5 17  1  0
  6  8  1  0
  6 29  1  0
  7 24  4  0
  7 26  4  0
  8 28  1  0
  9 13  2  0
 10 18  1  0
 10 21  4  0
 10 30  4  0
 11 17  2  0
 12 18  1  0
 13 15  1  0
 14 24  1  0
 15 25  1  0
 16 28  2  0
 17 20  1  0
 19 24  4  0
 20 23  1  0
 21 22  4  0
 22 23  4  0
 25 26  4  0
 27 29  2  0
M  END
$$$$

 Created by Python create_sdf_string function

 30 33  0  0  0  0  0  0  0  0999 V2000
    8.3036    9.8571   18.4133 C   0  0  0  0  0  0  0  0  0  0  0  0
    8.3694    7.6612   22.6703 C   0  0  0  0  0  0  0  0  0  0  0  0
    8.4143    6.6863   16.2273 C   0  0  0  0  0  0  0  0  0  0  0  0
   10.7581    6.5674   21.7636 C   0  0  0  0  0  0  0  0  0  0  0  0
    8.4452    8.7960   19.2958 O   0  0  0  0  0  0  0  0  0  0  0  0
    8.7122    6.7842   24.8569 C   0  0  0  0  0  0  0  0  0  0  0  0
   10.3400    6.1726   14.3081 C   0  0  0  0  0  0  0  0  0  0  0  0
    7.4297    7.5873   24.8962 C   0  0  0  0  0  0  0  0  0  0  0  0
    8.1566   10.0536   16.0516 O   0  0  0  0  0  0  0  0  0  0  0  0
   12.4989    6.2074   20.1776 C   0  0  0  0  0  0  0  0  0  0  0  0
    6.9192    9.1053   20.9073 O   0  0  0  0  0  0  0  0  0  0  0  0
   14.3979    6.0729   18.7784 C   0  0  0  0  0  0  0  0  0  0  0  0
    8.6811    9.5354   16.9998 C   0  0  0  0  0  0  0  0  0  0  0  0
    9.2512    4.2713   13.7653 O   0  0  0  0  0  0  0  0  0  0  0  0
    9.6495    8.6317   16.8332 N   0  0  0  0  0  0  0  0  0  0  0  0
    6.2934    8.6988   23.1988 O   0  0  0  0  0  0  0  0  0  0  0  0
    7.9806    8.6543   20.5437 C   0  0  0  0  0  0  0  0  0  0  0  0
   13.7270    5.7144   19.8610 O   0  0  0  0  0  0  0  0  0  0  0  0
    8.3351    5.5235   15.4478 C   0  0  0  0  0  0  0  0  0  0  0  0
    8.7700    7.8434   21.3915 C   0  0  0  0  0  0  0  0  0  0  0  0
   11.7856    6.8851   19.2401 C   0  0  0  0  0  0  0  0  0  0  0  0
   10.5281    7.4276   19.5649 C   0  0  0  0  0  0  0  0  0  0  0  0
   10.0256    7.2907   20.8484 C   0  0  0  0  0  0  0  0  0  0  0  0
    9.3113    5.3049   14.4911 C   0  0  0  0  0  0  0  0  0  0  0  0
    9.4607    7.5646   16.0139 C   0  0  0  0  0  0  0  0  0  0  0  0
   10.4192    7.3157   15.0955 C   0  0  0  0  0  0  0  0  0  0  0  0
   10.2489    6.4227   23.0218 N   0  0  0  0  0  0  0  0  0  0  0  0
    7.2472    8.0746   23.5050 C   0  0  0  0  0  0  0  0  0  0  0  0
    9.2051    6.9101   23.4604 C   0  0  0  0  0  0  0  0  0  0  0  0
   11.9646    6.0299   21.4251 C   0  0  0  0  0  0  0  0  0  0  0  0
  1  5  1  0
  1 13  1  0
  2 20  2  0
  2 28  1  0
  2 29  1  0
  3 19  4  0
  3 25  4  0
  4 23  4  0
  4 27  1  0
  4 30  4  0
  5 17  1  0
  6  8  1  0
  6 29  1  0
  7 24  4  0
  7 26  4  0
  8 28  1  0
  9 13  2  0
 10 18  1  0
 10 21  4  0
 10 30  4  0
 11 17  2  0
 12 18  1  0
 13 15  1  0
 14 24  1  0
 15 25  1  0
 16 28  2  0
 17 20  1  0
 19 24  4  0
 20 23  1  0
 21 22  4  0
 22 23  4  0
 25 26  4  0
 27 29  2  0
M  END
$$$$

 Created by Python create_sdf_string function

 30 33  0  0  0  0  0  0  0  0999 V2000
    8.3036    9.8571   18.4133 C   0  0  0  0  0  0  0  0  0  0  0  0
    8.3694    7.6612   22.6703 C   0  0  0  0  0  0  0  0  0  0  0  0
    8.4143    6.6863   16.2273 C   0  0  0  0  0  0  0  0  0  0  0  0
   10.7581    6.5674   21.7636 C   0  0  0  0  0  0  0  0  0  0  0  0
    8.4452    8.7960   19.2958 O   0  0  0  0  0  0  0  0  0  0  0  0
    8.7122    6.7842   24.8569 C   0  0  0  0  0  0  0  0  0  0  0  0
   10.3400    6.1726   14.3081 C   0  0  0  0  0  0  0  0  0  0  0  0
    7.4297    7.5873   24.8962 C   0  0  0  0  0  0  0  0  0  0  0  0
    8.1566   10.0536   16.0516 O   0  0  0  0  0  0  0  0  0  0  0  0
   12.4989    6.2074   20.1776 C   0  0  0  0  0  0  0  0  0  0  0  0
    6.9192    9.1053   20.9073 O   0  0  0  0  0  0  0  0  0  0  0  0
   14.3979    6.0729   18.7784 C   0  0  0  0  0  0  0  0  0  0  0  0
    8.6811    9.5354   16.9998 C   0  0  0  0  0  0  0  0  0  0  0  0
    9.2512    4.2713   13.7653 O   0  0  0  0  0  0  0  0  0  0  0  0
    9.6495    8.6317   16.8332 N   0  0  0  0  0  0  0  0  0  0  0  0
    6.2934    8.6988   23.1988 O   0  0  0  0  0  0  0  0  0  0  0  0
    7.9806    8.6543   20.5437 C   0  0  0  0  0  0  0  0  0  0  0  0
   13.7270    5.7144   19.8610 O   0  0  0  0  0  0  0  0  0  0  0  0
    8.3351    5.5235   15.4478 C   0  0  0  0  0  0  0  0  0  0  0  0
    8.7700    7.8434   21.3915 C   0  0  0  0  0  0  0  0  0  0  0  0
   11.7856    6.8851   19.2401 C   0  0  0  0  0  0  0  0  0  0  0  0
   10.5281    7.4276   19.5649 C   0  0  0  0  0  0  0  0  0  0  0  0
   10.0256    7.2907   20.8484 C   0  0  0  0  0  0  0  0  0  0  0  0
    9.3113    5.3049   14.4911 C   0  0  0  0  0  0  0  0  0  0  0  0
    9.4607    7.5646   16.0139 C   0  0  0  0  0  0  0  0  0  0  0  0
   10.4192    7.3157   15.0955 C   0  0  0  0  0  0  0  0  0  0  0  0
   10.2489    6.4227   23.0218 N   0  0  0  0  0  0  0  0  0  0  0  0
    7.2472    8.0746   23.5050 C   0  0  0  0  0  0  0  0  0  0  0  0
    9.2051    6.9101   23.4604 C   0  0  0  0  0  0  0  0  0  0  0  0
   11.9646    6.0299   21.4251 C   0  0  0  0  0  0  0  0  0  0  0  0
  1  5  1  0
  1 13  1  0
  2 20  2  0
  2 28  1  0
  2 29  1  0
  3 19  4  0
  3 25  4  0
  4 23  4  0
  4 27  1  0
  4 30  4  0
  5 17  1  0
  6  8  1  0
  6 29  1  0
  7 24  4  0
  7 26  4  0
  8 28  1  0
  9 13  2  0
 10 18  1  0
 10 21  4  0
 10 30  4  0
 11 17  2  0
 12 18  1  0
 13 15  1  0
 14 24  1  0
 15 25  1  0
 16 28  2  0
 17 20  1  0
 19 24  4  0
 20 23  1  0
 21 22  4  0
 22 23  4  0
 25 26  4  0
 27 29  2  0
M  END
$$$$

 Created by Python create_sdf_string function

 30 33  0  0  0  0  0  0  0  0999 V2000
    8.3036    9.8571   18.4133 C   0  0  0  0  0  0  0  0  0  0  0  0
    8.3694    7.6612   22.6703 C   0  0  0  0  0  0  0  0  0  0  0  0
    8.4143    6.6863   16.2273 C   0  0  0  0  0  0  0  0  0  0  0  0
   10.7581    6.5674   21.7636 C   0  0  0  0  0  0  0  0  0  0  0  0
    8.4452    8.7960   19.2958 O   0  0  0  0  0  0  0  0  0  0  0  0
    8.7122    6.7842   24.8569 C   0  0  0  0  0  0  0  0  0  0  0  0
   10.3400    6.1726   14.3081 C   0  0  0  0  0  0  0  0  0  0  0  0
    7.4297    7.5873   24.8962 C   0  0  0  0  0  0  0  0  0  0  0  0
    8.1566   10.0536   16.0516 O   0  0  0  0  0  0  0  0  0  0  0  0
   12.4989    6.2074   20.1776 C   0  0  0  0  0  0  0  0  0  0  0  0
    6.9192    9.1053   20.9073 O   0  0  0  0  0  0  0  0  0  0  0  0
   14.3979    6.0729   18.7784 C   0  0  0  0  0  0  0  0  0  0  0  0
    8.6811    9.5354   16.9998 C   0  0  0  0  0  0  0  0  0  0  0  0
    9.2512    4.2713   13.7653 O   0  0  0  0  0  0  0  0  0  0  0  0
    9.6495    8.6317   16.8332 N   0  0  0  0  0  0  0  0  0  0  0  0
    6.2934    8.6988   23.1988 O   0  0  0  0  0  0  0  0  0  0  0  0
    7.9806    8.6543   20.5437 C   0  0  0  0  0  0  0  0  0  0  0  0
   13.7270    5.7144   19.8610 O   0  0  0  0  0  0  0  0  0  0  0  0
    8.3351    5.5235   15.4478 C   0  0  0  0  0  0  0  0  0  0  0  0
    8.7700    7.8434   21.3915 C   0  0  0  0  0  0  0  0  0  0  0  0
   11.7856    6.8851   19.2401 C   0  0  0  0  0  0  0  0  0  0  0  0
   10.5281    7.4276   19.5649 C   0  0  0  0  0  0  0  0  0  0  0  0
   10.0256    7.2907   20.8484 C   0  0  0  0  0  0  0  0  0  0  0  0
    9.3113    5.3049   14.4911 C   0  0  0  0  0  0  0  0  0  0  0  0
    9.4607    7.5646   16.0139 C   0  0  0  0  0  0  0  0  0  0  0  0
   10.4192    7.3157   15.0955 C   0  0  0  0  0  0  0  0  0  0  0  0
   10.2489    6.4227   23.0218 N   0  0  0  0  0  0  0  0  0  0  0  0
    7.2472    8.0746   23.5050 C   0  0  0  0  0  0  0  0  0  0  0  0
    9.2051    6.9101   23.4604 C   0  0  0  0  0  0  0  0  0  0  0  0
   11.9646    6.0299   21.4251 C   0  0  0  0  0  0  0  0  0  0  0  0
  1  5  1  0
  1 13  1  0
  2 20  2  0
  2 28  1  0
  2 29  1  0
  3 19  4  0
  3 25  4  0
  4 23  4  0
  4 27  1  0
  4 30  4  0
  5 17  1  0
  6  8  1  0
  6 29  1  0
  7 24  4  0
  7 26  4  0
  8 28  1  0
  9 13  2  0
 10 18  1  0
 10 21  4  0
 10 30  4  0
 11 17  2  0
 12 18  1  0
 13 15  1  0
 14 24  1  0
 15 25  1  0
 16 28  2  0
 17 20  1  0
 19 24  4  0
 20 23  1  0
 21 22  4  0
 22 23  4  0
 25 26  4  0
 27 29  2  0
M  END
$$$$

 Created by Python create_sdf_string function

 30 33  0  0  0  0  0  0  0  0999 V2000
    8.3036    9.8571   18.4133 C   0  0  0  0  0  0  0  0  0  0  0  0
    8.3694    7.6612   22.6703 C   0  0  0  0  0  0  0  0  0  0  0  0
    8.4143    6.6863   16.2273 C   0  0  0  0  0  0  0  0  0  0  0  0
   10.7581    6.5674   21.7636 C   0  0  0  0  0  0  0  0  0  0  0  0
    8.4452    8.7960   19.2958 O   0  0  0  0  0  0  0  0  0  0  0  0
    8.7122    6.7842   24.8569 C   0  0  0  0  0  0  0  0  0  0  0  0
   10.3400    6.1726   14.3081 C   0  0  0  0  0  0  0  0  0  0  0  0
    7.4297    7.5873   24.8962 C   0  0  0  0  0  0  0  0  0  0  0  0
    8.1566   10.0536   16.0516 O   0  0  0  0  0  0  0  0  0  0  0  0
   12.4989    6.2074   20.1776 C   0  0  0  0  0  0  0  0  0  0  0  0
    6.9192    9.1053   20.9073 O   0  0  0  0  0  0  0  0  0  0  0  0
   14.3979    6.0729   18.7784 C   0  0  0  0  0  0  0  0  0  0  0  0
    8.6811    9.5354   16.9998 C   0  0  0  0  0  0  0  0  0  0  0  0
    9.2512    4.2713   13.7653 O   0  0  0  0  0  0  0  0  0  0  0  0
    9.6495    8.6317   16.8332 N   0  0  0  0  0  0  0  0  0  0  0  0
    6.2934    8.6988   23.1988 O   0  0  0  0  0  0  0  0  0  0  0  0
    7.9806    8.6543   20.5437 C   0  0  0  0  0  0  0  0  0  0  0  0
   13.7270    5.7144   19.8610 O   0  0  0  0  0  0  0  0  0  0  0  0
    8.3351    5.5235   15.4478 C   0  0  0  0  0  0  0  0  0  0  0  0
    8.7700    7.8434   21.3915 C   0  0  0  0  0  0  0  0  0  0  0  0
   11.7856    6.8851   19.2401 C   0  0  0  0  0  0  0  0  0  0  0  0
   10.5281    7.4276   19.5649 C   0  0  0  0  0  0  0  0  0  0  0  0
   10.0256    7.2907   20.8484 C   0  0  0  0  0  0  0  0  0  0  0  0
    9.3113    5.3049   14.4911 C   0  0  0  0  0  0  0  0  0  0  0  0
    9.4607    7.5646   16.0139 C   0  0  0  0  0  0  0  0  0  0  0  0
   10.4192    7.3157   15.0955 C   0  0  0  0  0  0  0  0  0  0  0  0
   10.2489    6.4227   23.0218 N   0  0  0  0  0  0  0  0  0  0  0  0
    7.2472    8.0746   23.5050 C   0  0  0  0  0  0  0  0  0  0  0  0
    9.2051    6.9101   23.4604 C   0  0  0  0  0  0  0  0  0  0  0  0
   11.9646    6.0299   21.4251 C   0  0  0  0  0  0  0  0  0  0  0  0
  1  5  1  0
  1 13  1  0
  2 20  2  0
  2 28  1  0
  2 29  1  0
  3 19  4  0
  3 25  4  0
  4 23  4  0
  4 27  1  0
  4 30  4  0
  5 17  1  0
  6  8  1  0
  6 29  1  0
  7 24  4  0
  7 26  4  0
  8 28  1  0
  9 13  2  0
 10 18  1  0
 10 21  4  0
 10 30  4  0
 11 17  2  0
 12 18  1  0
 13 15  1  0
 14 24  1  0
 15 25  1  0
 16 28  2  0
 17 20  1  0
 19 24  4  0
 20 23  1  0
 21 22  4  0
 22 23  4  0
 25 26  4  0
 27 29  2  0
M  END
$$$$

 Created by Python create_sdf_string function

 30 33  0  0  0  0  0  0  0  0999 V2000
    8.3036    9.8571   18.4133 C   0  0  0  0  0  0  0  0  0  0  0  0
    8.3694    7.6612   22.6703 C   0  0  0  0  0  0  0  0  0  0  0  0
    8.4143    6.6863   16.2273 C   0  0  0  0  0  0  0  0  0  0  0  0
   10.7581    6.5674   21.7636 C   0  0  0  0  0  0  0  0  0  0  0  0
    8.4452    8.7960   19.2958 O   0  0  0  0  0  0  0  0  0  0  0  0
    8.7122    6.7842   24.8569 C   0  0  0  0  0  0  0  0  0  0  0  0
   10.3400    6.1726   14.3081 C   0  0  0  0  0  0  0  0  0  0  0  0
    7.4297    7.5873   24.8962 C   0  0  0  0  0  0  0  0  0  0  0  0
    8.1566   10.0536   16.0516 O   0  0  0  0  0  0  0  0  0  0  0  0
   12.4989    6.2074   20.1776 C   0  0  0  0  0  0  0  0  0  0  0  0
    6.9192    9.1053   20.9073 O   0  0  0  0  0  0  0  0  0  0  0  0
   14.3979    6.0729   18.7784 C   0  0  0  0  0  0  0  0  0  0  0  0
    8.6811    9.5354   16.9998 C   0  0  0  0  0  0  0  0  0  0  0  0
    9.2512    4.2713   13.7653 O   0  0  0  0  0  0  0  0  0  0  0  0
    9.6495    8.6317   16.8332 N   0  0  0  0  0  0  0  0  0  0  0  0
    6.2934    8.6988   23.1988 O   0  0  0  0  0  0  0  0  0  0  0  0
    7.9806    8.6543   20.5437 C   0  0  0  0  0  0  0  0  0  0  0  0
   13.7270    5.7144   19.8610 O   0  0  0  0  0  0  0  0  0  0  0  0
    8.3351    5.5235   15.4478 C   0  0  0  0  0  0  0  0  0  0  0  0
    8.7700    7.8434   21.3915 C   0  0  0  0  0  0  0  0  0  0  0  0
   11.7856    6.8851   19.2401 C   0  0  0  0  0  0  0  0  0  0  0  0
   10.5281    7.4276   19.5649 C   0  0  0  0  0  0  0  0  0  0  0  0
   10.0256    7.2907   20.8484 C   0  0  0  0  0  0  0  0  0  0  0  0
    9.3113    5.3049   14.4911 C   0  0  0  0  0  0  0  0  0  0  0  0
    9.4607    7.5646   16.0139 C   0  0  0  0  0  0  0  0  0  0  0  0
   10.4192    7.3157   15.0955 C   0  0  0  0  0  0  0  0  0  0  0  0
   10.2489    6.4227   23.0218 N   0  0  0  0  0  0  0  0  0  0  0  0
    7.2472    8.0746   23.5050 C   0  0  0  0  0  0  0  0  0  0  0  0
    9.2051    6.9101   23.4604 C   0  0  0  0  0  0  0  0  0  0  0  0
   11.9646    6.0299   21.4251 C   0  0  0  0  0  0  0  0  0  0  0  0
  1  5  1  0
  1 13  1  0
  2 20  2  0
  2 28  1  0
  2 29  1  0
  3 19  4  0
  3 25  4  0
  4 23  4  0
  4 27  1  0
  4 30  4  0
  5 17  1  0
  6  8  1  0
  6 29  1  0
  7 24  4  0
  7 26  4  0
  8 28  1  0
  9 13  2  0
 10 18  1  0
 10 21  4  0
 10 30  4  0
 11 17  2  0
 12 18  1  0
 13 15  1  0
 14 24  1  0
 15 25  1  0
 16 28  2  0
 17 20  1  0
 19 24  4  0
 20 23  1  0
 21 22  4  0
 22 23  4  0
 25 26  4  0
 27 29  2  0
M  END
$$$$

 Created by Python create_sdf_string function

 30 33  0  0  0  0  0  0  0  0999 V2000
    8.3036    9.8571   18.4133 C   0  0  0  0  0  0  0  0  0  0  0  0
    8.3694    7.6612   22.6703 C   0  0  0  0  0  0  0  0  0  0  0  0
    8.4143    6.6863   16.2273 C   0  0  0  0  0  0  0  0  0  0  0  0
   10.7581    6.5674   21.7636 C   0  0  0  0  0  0  0  0  0  0  0  0
    8.4452    8.7960   19.2958 O   0  0  0  0  0  0  0  0  0  0  0  0
    8.7122    6.7842   24.8569 C   0  0  0  0  0  0  0  0  0  0  0  0
   10.3400    6.1726   14.3081 C   0  0  0  0  0  0  0  0  0  0  0  0
    7.4297    7.5873   24.8962 C   0  0  0  0  0  0  0  0  0  0  0  0
    8.1566   10.0536   16.0516 O   0  0  0  0  0  0  0  0  0  0  0  0
   12.4989    6.2074   20.1776 C   0  0  0  0  0  0  0  0  0  0  0  0
    6.9192    9.1053   20.9073 O   0  0  0  0  0  0  0  0  0  0  0  0
   14.3979    6.0729   18.7784 C   0  0  0  0  0  0  0  0  0  0  0  0
    8.6811    9.5354   16.9998 C   0  0  0  0  0  0  0  0  0  0  0  0
    9.2512    4.2713   13.7653 O   0  0  0  0  0  0  0  0  0  0  0  0
    9.6495    8.6317   16.8332 N   0  0  0  0  0  0  0  0  0  0  0  0
    6.2934    8.6988   23.1988 O   0  0  0  0  0  0  0  0  0  0  0  0
    7.9806    8.6543   20.5437 C   0  0  0  0  0  0  0  0  0  0  0  0
   13.7270    5.7144   19.8610 O   0  0  0  0  0  0  0  0  0  0  0  0
    8.3351    5.5235   15.4478 C   0  0  0  0  0  0  0  0  0  0  0  0
    8.7700    7.8434   21.3915 C   0  0  0  0  0  0  0  0  0  0  0  0
   11.7856    6.8851   19.2401 C   0  0  0  0  0  0  0  0  0  0  0  0
   10.5281    7.4276   19.5649 C   0  0  0  0  0  0  0  0  0  0  0  0
   10.0256    7.2907   20.8484 C   0  0  0  0  0  0  0  0  0  0  0  0
    9.3113    5.3049   14.4911 C   0  0  0  0  0  0  0  0  0  0  0  0
    9.4607    7.5646   16.0139 C   0  0  0  0  0  0  0  0  0  0  0  0
   10.4192    7.3157   15.0955 C   0  0  0  0  0  0  0  0  0  0  0  0
   10.2489    6.4227   23.0218 N   0  0  0  0  0  0  0  0  0  0  0  0
    7.2472    8.0746   23.5050 C   0  0  0  0  0  0  0  0  0  0  0  0
    9.2051    6.9101   23.4604 C   0  0  0  0  0  0  0  0  0  0  0  0
   11.9646    6.0299   21.4251 C   0  0  0  0  0  0  0  0  0  0  0  0
  1  5  1  0
  1 13  1  0
  2 20  2  0
  2 28  1  0
  2 29  1  0
  3 19  4  0
  3 25  4  0
  4 23  4  0
  4 27  1  0
  4 30  4  0
  5 17  1  0
  6  8  1  0
  6 29  1  0
  7 24  4  0
  7 26  4  0
  8 28  1  0
  9 13  2  0
 10 18  1  0
 10 21  4  0
 10 30  4  0
 11 17  2  0
 12 18  1  0
 13 15  1  0
 14 24  1  0
 15 25  1  0
 16 28  2  0
 17 20  1  0
 19 24  4  0
 20 23  1  0
 21 22  4  0
 22 23  4  0
 25 26  4  0
 27 29  2  0
M  END
$$$$

 Created by Python create_sdf_string function

 30 33  0  0  0  0  0  0  0  0999 V2000
    8.3036    9.8571   18.4133 C   0  0  0  0  0  0  0  0  0  0  0  0
    8.3694    7.6612   22.6703 C   0  0  0  0  0  0  0  0  0  0  0  0
    8.4143    6.6863   16.2273 C   0  0  0  0  0  0  0  0  0  0  0  0
   10.7581    6.5674   21.7636 C   0  0  0  0  0  0  0  0  0  0  0  0
    8.4452    8.7960   19.2958 O   0  0  0  0  0  0  0  0  0  0  0  0
    8.7122    6.7842   24.8569 C   0  0  0  0  0  0  0  0  0  0  0  0
   10.3400    6.1726   14.3081 C   0  0  0  0  0  0  0  0  0  0  0  0
    7.4297    7.5873   24.8962 C   0  0  0  0  0  0  0  0  0  0  0  0
    8.1566   10.0536   16.0516 O   0  0  0  0  0  0  0  0  0  0  0  0
   12.4989    6.2074   20.1776 C   0  0  0  0  0  0  0  0  0  0  0  0
    6.9192    9.1053   20.9073 O   0  0  0  0  0  0  0  0  0  0  0  0
   14.3979    6.0729   18.7784 C   0  0  0  0  0  0  0  0  0  0  0  0
    8.6811    9.5354   16.9998 C   0  0  0  0  0  0  0  0  0  0  0  0
    9.2512    4.2713   13.7653 O   0  0  0  0  0  0  0  0  0  0  0  0
    9.6495    8.6317   16.8332 N   0  0  0  0  0  0  0  0  0  0  0  0
    6.2934    8.6988   23.1988 O   0  0  0  0  0  0  0  0  0  0  0  0
    7.9806    8.6543   20.5437 C   0  0  0  0  0  0  0  0  0  0  0  0
   13.7270    5.7144   19.8610 O   0  0  0  0  0  0  0  0  0  0  0  0
    8.3351    5.5235   15.4478 C   0  0  0  0  0  0  0  0  0  0  0  0
    8.7700    7.8434   21.3915 C   0  0  0  0  0  0  0  0  0  0  0  0
   11.7856    6.8851   19.2401 C   0  0  0  0  0  0  0  0  0  0  0  0
   10.5281    7.4276   19.5649 C   0  0  0  0  0  0  0  0  0  0  0  0
   10.0256    7.2907   20.8484 C   0  0  0  0  0  0  0  0  0  0  0  0
    9.3113    5.3049   14.4911 C   0  0  0  0  0  0  0  0  0  0  0  0
    9.4607    7.5646   16.0139 C   0  0  0  0  0  0  0  0  0  0  0  0
   10.4192    7.3157   15.0955 C   0  0  0  0  0  0  0  0  0  0  0  0
   10.2489    6.4227   23.0218 N   0  0  0  0  0  0  0  0  0  0  0  0
    7.2472    8.0746   23.5050 C   0  0  0  0  0  0  0  0  0  0  0  0
    9.2051    6.9101   23.4604 C   0  0  0  0  0  0  0  0  0  0  0  0
   11.9646    6.0299   21.4251 C   0  0  0  0  0  0  0  0  0  0  0  0
  1  5  1  0
  1 13  1  0
  2 20  2  0
  2 28  1  0
  2 29  1  0
  3 19  4  0
  3 25  4  0
  4 23  4  0
  4 27  1  0
  4 30  4  0
  5 17  1  0
  6  8  1  0
  6 29  1  0
  7 24  4  0
  7 26  4  0
  8 28  1  0
  9 13  2  0
 10 18  1  0
 10 21  4  0
 10 30  4  0
 11 17  2  0
 12 18  1  0
 13 15  1  0
 14 24  1  0
 15 25  1  0
 16 28  2  0
 17 20  1  0
 19 24  4  0
 20 23  1  0
 21 22  4  0
 22 23  4  0
 25 26  4  0
 27 29  2  0
M  END
$$$$

 Created by Python create_sdf_string function

 30 33  0  0  0  0  0  0  0  0999 V2000
    8.3036    9.8571   18.4133 C   0  0  0  0  0  0  0  0  0  0  0  0
    8.3694    7.6612   22.6703 C   0  0  0  0  0  0  0  0  0  0  0  0
    8.4143    6.6863   16.2273 C   0  0  0  0  0  0  0  0  0  0  0  0
   10.7581    6.5674   21.7636 C   0  0  0  0  0  0  0  0  0  0  0  0
    8.4452    8.7960   19.2958 O   0  0  0  0  0  0  0  0  0  0  0  0
    8.7122    6.7842   24.8569 C   0  0  0  0  0  0  0  0  0  0  0  0
   10.3400    6.1726   14.3081 C   0  0  0  0  0  0  0  0  0  0  0  0
    7.4297    7.5873   24.8962 C   0  0  0  0  0  0  0  0  0  0  0  0
    8.1566   10.0536   16.0516 O   0  0  0  0  0  0  0  0  0  0  0  0
   12.4989    6.2074   20.1776 C   0  0  0  0  0  0  0  0  0  0  0  0
    6.9192    9.1053   20.9073 O   0  0  0  0  0  0  0  0  0  0  0  0
   14.3979    6.0729   18.7784 C   0  0  0  0  0  0  0  0  0  0  0  0
    8.6811    9.5354   16.9998 C   0  0  0  0  0  0  0  0  0  0  0  0
    9.2512    4.2713   13.7653 O   0  0  0  0  0  0  0  0  0  0  0  0
    9.6495    8.6317   16.8332 N   0  0  0  0  0  0  0  0  0  0  0  0
    6.2934    8.6988   23.1988 O   0  0  0  0  0  0  0  0  0  0  0  0
    7.9806    8.6543   20.5437 C   0  0  0  0  0  0  0  0  0  0  0  0
   13.7270    5.7144   19.8610 O   0  0  0  0  0  0  0  0  0  0  0  0
    8.3351    5.5235   15.4478 C   0  0  0  0  0  0  0  0  0  0  0  0
    8.7700    7.8434   21.3915 C   0  0  0  0  0  0  0  0  0  0  0  0
   11.7856    6.8851   19.2401 C   0  0  0  0  0  0  0  0  0  0  0  0
   10.5281    7.4276   19.5649 C   0  0  0  0  0  0  0  0  0  0  0  0
   10.0256    7.2907   20.8484 C   0  0  0  0  0  0  0  0  0  0  0  0
    9.3113    5.3049   14.4911 C   0  0  0  0  0  0  0  0  0  0  0  0
    9.4607    7.5646   16.0139 C   0  0  0  0  0  0  0  0  0  0  0  0
   10.4192    7.3157   15.0955 C   0  0  0  0  0  0  0  0  0  0  0  0
   10.2489    6.4227   23.0218 N   0  0  0  0  0  0  0  0  0  0  0  0
    7.2472    8.0746   23.5050 C   0  0  0  0  0  0  0  0  0  0  0  0
    9.2051    6.9101   23.4604 C   0  0  0  0  0  0  0  0  0  0  0  0
   11.9646    6.0299   21.4251 C   0  0  0  0  0  0  0  0  0  0  0  0
  1  5  1  0
  1 13  1  0
  2 20  2  0
  2 28  1  0
  2 29  1  0
  3 19  4  0
  3 25  4  0
  4 23  4  0
  4 27  1  0
  4 30  4  0
  5 17  1  0
  6  8  1  0
  6 29  1  0
  7 24  4  0
  7 26  4  0
  8 28  1  0
  9 13  2  0
 10 18  1  0
 10 21  4  0
 10 30  4  0
 11 17  2  0
 12 18  1  0
 13 15  1  0
 14 24  1  0
 15 25  1  0
 16 28  2  0
 17 20  1  0
 19 24  4  0
 20 23  1  0
 21 22  4  0
 22 23  4  0
 25 26  4  0
 27 29  2  0
M  END
$$$$

 Created by Python create_sdf_string function

 30 33  0  0  0  0  0  0  0  0999 V2000
    8.3036    9.8571   18.4133 C   0  0  0  0  0  0  0  0  0  0  0  0
    8.3694    7.6612   22.6703 C   0  0  0  0  0  0  0  0  0  0  0  0
    8.4143    6.6863   16.2273 C   0  0  0  0  0  0  0  0  0  0  0  0
   10.7581    6.5674   21.7636 C   0  0  0  0  0  0  0  0  0  0  0  0
    8.4452    8.7960   19.2958 O   0  0  0  0  0  0  0  0  0  0  0  0
    8.7122    6.7842   24.8569 C   0  0  0  0  0  0  0  0  0  0  0  0
   10.3400    6.1726   14.3081 C   0  0  0  0  0  0  0  0  0  0  0  0
    7.4297    7.5873   24.8962 C   0  0  0  0  0  0  0  0  0  0  0  0
    8.1566   10.0536   16.0516 O   0  0  0  0  0  0  0  0  0  0  0  0
   12.4989    6.2074   20.1776 C   0  0  0  0  0  0  0  0  0  0  0  0
    6.9192    9.1053   20.9073 O   0  0  0  0  0  0  0  0  0  0  0  0
   14.3979    6.0729   18.7784 C   0  0  0  0  0  0  0  0  0  0  0  0
    8.6811    9.5354   16.9998 C   0  0  0  0  0  0  0  0  0  0  0  0
    9.2512    4.2713   13.7653 O   0  0  0  0  0  0  0  0  0  0  0  0
    9.6495    8.6317   16.8332 N   0  0  0  0  0  0  0  0  0  0  0  0
    6.2934    8.6988   23.1988 O   0  0  0  0  0  0  0  0  0  0  0  0
    7.9806    8.6543   20.5437 C   0  0  0  0  0  0  0  0  0  0  0  0
   13.7270    5.7144   19.8610 O   0  0  0  0  0  0  0  0  0  0  0  0
    8.3351    5.5235   15.4478 C   0  0  0  0  0  0  0  0  0  0  0  0
    8.7700    7.8434   21.3915 C   0  0  0  0  0  0  0  0  0  0  0  0
   11.7856    6.8851   19.2401 C   0  0  0  0  0  0  0  0  0  0  0  0
   10.5281    7.4276   19.5649 C   0  0  0  0  0  0  0  0  0  0  0  0
   10.0256    7.2907   20.8484 C   0  0  0  0  0  0  0  0  0  0  0  0
    9.3113    5.3049   14.4911 C   0  0  0  0  0  0  0  0  0  0  0  0
    9.4607    7.5646   16.0139 C   0  0  0  0  0  0  0  0  0  0  0  0
   10.4192    7.3157   15.0955 C   0  0  0  0  0  0  0  0  0  0  0  0
   10.2489    6.4227   23.0218 N   0  0  0  0  0  0  0  0  0  0  0  0
    7.2472    8.0746   23.5050 C   0  0  0  0  0  0  0  0  0  0  0  0
    9.2051    6.9101   23.4604 C   0  0  0  0  0  0  0  0  0  0  0  0
   11.9646    6.0299   21.4251 C   0  0  0  0  0  0  0  0  0  0  0  0
  1  5  1  0
  1 13  1  0
  2 20  2  0
  2 28  1  0
  2 29  1  0
  3 19  4  0
  3 25  4  0
  4 23  4  0
  4 27  1  0
  4 30  4  0
  5 17  1  0
  6  8  1  0
  6 29  1  0
  7 24  4  0
  7 26  4  0
  8 28  1  0
  9 13  2  0
 10 18  1  0
 10 21  4  0
 10 30  4  0
 11 17  2  0
 12 18  1  0
 13 15  1  0
 14 24  1  0
 15 25  1  0
 16 28  2  0
 17 20  1  0
 19 24  4  0
 20 23  1  0
 21 22  4  0
 22 23  4  0
 25 26  4  0
 27 29  2  0
M  END
$$$$

 Created by Python create_sdf_string function

 30 33  0  0  0  0  0  0  0  0999 V2000
    8.3036    9.8571   18.4133 C   0  0  0  0  0  0  0  0  0  0  0  0
    8.3694    7.6612   22.6703 C   0  0  0  0  0  0  0  0  0  0  0  0
    8.4143    6.6863   16.2273 C   0  0  0  0  0  0  0  0  0  0  0  0
   10.7581    6.5674   21.7636 C   0  0  0  0  0  0  0  0  0  0  0  0
    8.4452    8.7960   19.2958 O   0  0  0  0  0  0  0  0  0  0  0  0
    8.7122    6.7842   24.8569 C   0  0  0  0  0  0  0  0  0  0  0  0
   10.3400    6.1726   14.3081 C   0  0  0  0  0  0  0  0  0  0  0  0
    7.4297    7.5873   24.8962 C   0  0  0  0  0  0  0  0  0  0  0  0
    8.1566   10.0536   16.0516 O   0  0  0  0  0  0  0  0  0  0  0  0
   12.4989    6.2074   20.1776 C   0  0  0  0  0  0  0  0  0  0  0  0
    6.9192    9.1053   20.9073 O   0  0  0  0  0  0  0  0  0  0  0  0
   14.3979    6.0729   18.7784 C   0  0  0  0  0  0  0  0  0  0  0  0
    8.6811    9.5354   16.9998 C   0  0  0  0  0  0  0  0  0  0  0  0
    9.2512    4.2713   13.7653 O   0  0  0  0  0  0  0  0  0  0  0  0
    9.6495    8.6317   16.8332 N   0  0  0  0  0  0  0  0  0  0  0  0
    6.2934    8.6988   23.1988 O   0  0  0  0  0  0  0  0  0  0  0  0
    7.9806    8.6543   20.5437 C   0  0  0  0  0  0  0  0  0  0  0  0
   13.7270    5.7144   19.8610 O   0  0  0  0  0  0  0  0  0  0  0  0
    8.3351    5.5235   15.4478 C   0  0  0  0  0  0  0  0  0  0  0  0
    8.7700    7.8434   21.3915 C   0  0  0  0  0  0  0  0  0  0  0  0
   11.7856    6.8851   19.2401 C   0  0  0  0  0  0  0  0  0  0  0  0
   10.5281    7.4276   19.5649 C   0  0  0  0  0  0  0  0  0  0  0  0
   10.0256    7.2907   20.8484 C   0  0  0  0  0  0  0  0  0  0  0  0
    9.3113    5.3049   14.4911 C   0  0  0  0  0  0  0  0  0  0  0  0
    9.4607    7.5646   16.0139 C   0  0  0  0  0  0  0  0  0  0  0  0
   10.4192    7.3157   15.0955 C   0  0  0  0  0  0  0  0  0  0  0  0
   10.2489    6.4227   23.0218 N   0  0  0  0  0  0  0  0  0  0  0  0
    7.2472    8.0746   23.5050 C   0  0  0  0  0  0  0  0  0  0  0  0
    9.2051    6.9101   23.4604 C   0  0  0  0  0  0  0  0  0  0  0  0
   11.9646    6.0299   21.4251 C   0  0  0  0  0  0  0  0  0  0  0  0
  1  5  1  0
  1 13  1  0
  2 20  2  0
  2 28  1  0
  2 29  1  0
  3 19  4  0
  3 25  4  0
  4 23  4  0
  4 27  1  0
  4 30  4  0
  5 17  1  0
  6  8  1  0
  6 29  1  0
  7 24  4  0
  7 26  4  0
  8 28  1  0
  9 13  2  0
 10 18  1  0
 10 21  4  0
 10 30  4  0
 11 17  2  0
 12 18  1  0
 13 15  1  0
 14 24  1  0
 15 25  1  0
 16 28  2  0
 17 20  1  0
 19 24  4  0
 20 23  1  0
 21 22  4  0
 22 23  4  0
 25 26  4  0
 27 29  2  0
M  END
$$$$

 Created by Python create_sdf_string function

 30 33  0  0  0  0  0  0  0  0999 V2000
    8.3036    9.8571   18.4133 C   0  0  0  0  0  0  0  0  0  0  0  0
    8.3694    7.6612   22.6703 C   0  0  0  0  0  0  0  0  0  0  0  0
    8.4143    6.6863   16.2273 C   0  0  0  0  0  0  0  0  0  0  0  0
   10.7581    6.5674   21.7636 C   0  0  0  0  0  0  0  0  0  0  0  0
    8.4452    8.7960   19.2958 O   0  0  0  0  0  0  0  0  0  0  0  0
    8.7122    6.7842   24.8569 C   0  0  0  0  0  0  0  0  0  0  0  0
   10.3400    6.1726   14.3081 C   0  0  0  0  0  0  0  0  0  0  0  0
    7.4297    7.5873   24.8962 C   0  0  0  0  0  0  0  0  0  0  0  0
    8.1566   10.0536   16.0516 O   0  0  0  0  0  0  0  0  0  0  0  0
   12.4989    6.2074   20.1776 C   0  0  0  0  0  0  0  0  0  0  0  0
    6.9192    9.1053   20.9073 O   0  0  0  0  0  0  0  0  0  0  0  0
   14.3979    6.0729   18.7784 C   0  0  0  0  0  0  0  0  0  0  0  0
    8.6811    9.5354   16.9998 C   0  0  0  0  0  0  0  0  0  0  0  0
    9.2512    4.2713   13.7653 O   0  0  0  0  0  0  0  0  0  0  0  0
    9.6495    8.6317   16.8332 N   0  0  0  0  0  0  0  0  0  0  0  0
    6.2934    8.6988   23.1988 O   0  0  0  0  0  0  0  0  0  0  0  0
    7.9806    8.6543   20.5437 C   0  0  0  0  0  0  0  0  0  0  0  0
   13.7270    5.7144   19.8610 O   0  0  0  0  0  0  0  0  0  0  0  0
    8.3351    5.5235   15.4478 C   0  0  0  0  0  0  0  0  0  0  0  0
    8.7700    7.8434   21.3915 C   0  0  0  0  0  0  0  0  0  0  0  0
   11.7856    6.8851   19.2401 C   0  0  0  0  0  0  0  0  0  0  0  0
   10.5281    7.4276   19.5649 C   0  0  0  0  0  0  0  0  0  0  0  0
   10.0256    7.2907   20.8484 C   0  0  0  0  0  0  0  0  0  0  0  0
    9.3113    5.3049   14.4911 C   0  0  0  0  0  0  0  0  0  0  0  0
    9.4607    7.5646   16.0139 C   0  0  0  0  0  0  0  0  0  0  0  0
   10.4192    7.3157   15.0955 C   0  0  0  0  0  0  0  0  0  0  0  0
   10.2489    6.4227   23.0218 N   0  0  0  0  0  0  0  0  0  0  0  0
    7.2472    8.0746   23.5050 C   0  0  0  0  0  0  0  0  0  0  0  0
    9.2051    6.9101   23.4604 C   0  0  0  0  0  0  0  0  0  0  0  0
   11.9646    6.0299   21.4251 C   0  0  0  0  0  0  0  0  0  0  0  0
  1  5  1  0
  1 13  1  0
  2 20  2  0
  2 28  1  0
  2 29  1  0
  3 19  4  0
  3 25  4  0
  4 23  4  0
  4 27  1  0
  4 30  4  0
  5 17  1  0
  6  8  1  0
  6 29  1  0
  7 24  4  0
  7 26  4  0
  8 28  1  0
  9 13  2  0
 10 18  1  0
 10 21  4  0
 10 30  4  0
 11 17  2  0
 12 18  1  0
 13 15  1  0
 14 24  1  0
 15 25  1  0
 16 28  2  0
 17 20  1  0
 19 24  4  0
 20 23  1  0
 21 22  4  0
 22 23  4  0
 25 26  4  0
 27 29  2  0
M  END
$$$$

 Created by Python create_sdf_string function

 30 33  0  0  0  0  0  0  0  0999 V2000
    8.3036    9.8571   18.4133 C   0  0  0  0  0  0  0  0  0  0  0  0
    8.3694    7.6612   22.6703 C   0  0  0  0  0  0  0  0  0  0  0  0
    8.4143    6.6863   16.2273 C   0  0  0  0  0  0  0  0  0  0  0  0
   10.7581    6.5674   21.7636 C   0  0  0  0  0  0  0  0  0  0  0  0
    8.4452    8.7960   19.2958 O   0  0  0  0  0  0  0  0  0  0  0  0
    8.7122    6.7842   24.8569 C   0  0  0  0  0  0  0  0  0  0  0  0
   10.3400    6.1726   14.3081 C   0  0  0  0  0  0  0  0  0  0  0  0
    7.4297    7.5873   24.8962 C   0  0  0  0  0  0  0  0  0  0  0  0
    8.1566   10.0536   16.0516 O   0  0  0  0  0  0  0  0  0  0  0  0
   12.4989    6.2074   20.1776 C   0  0  0  0  0  0  0  0  0  0  0  0
    6.9192    9.1053   20.9073 O   0  0  0  0  0  0  0  0  0  0  0  0
   14.3979    6.0729   18.7784 C   0  0  0  0  0  0  0  0  0  0  0  0
    8.6811    9.5354   16.9998 C   0  0  0  0  0  0  0  0  0  0  0  0
    9.2512    4.2713   13.7653 O   0  0  0  0  0  0  0  0  0  0  0  0
    9.6495    8.6317   16.8332 N   0  0  0  0  0  0  0  0  0  0  0  0
    6.2934    8.6988   23.1988 O   0  0  0  0  0  0  0  0  0  0  0  0
    7.9806    8.6543   20.5437 C   0  0  0  0  0  0  0  0  0  0  0  0
   13.7270    5.7144   19.8610 O   0  0  0  0  0  0  0  0  0  0  0  0
    8.3351    5.5235   15.4478 C   0  0  0  0  0  0  0  0  0  0  0  0
    8.7700    7.8434   21.3915 C   0  0  0  0  0  0  0  0  0  0  0  0
   11.7856    6.8851   19.2401 C   0  0  0  0  0  0  0  0  0  0  0  0
   10.5281    7.4276   19.5649 C   0  0  0  0  0  0  0  0  0  0  0  0
   10.0256    7.2907   20.8484 C   0  0  0  0  0  0  0  0  0  0  0  0
    9.3113    5.3049   14.4911 C   0  0  0  0  0  0  0  0  0  0  0  0
    9.4607    7.5646   16.0139 C   0  0  0  0  0  0  0  0  0  0  0  0
   10.4192    7.3157   15.0955 C   0  0  0  0  0  0  0  0  0  0  0  0
   10.2489    6.4227   23.0218 N   0  0  0  0  0  0  0  0  0  0  0  0
    7.2472    8.0746   23.5050 C   0  0  0  0  0  0  0  0  0  0  0  0
    9.2051    6.9101   23.4604 C   0  0  0  0  0  0  0  0  0  0  0  0
   11.9646    6.0299   21.4251 C   0  0  0  0  0  0  0  0  0  0  0  0
  1  5  1  0
  1 13  1  0
  2 20  2  0
  2 28  1  0
  2 29  1  0
  3 19  4  0
  3 25  4  0
  4 23  4  0
  4 27  1  0
  4 30  4  0
  5 17  1  0
  6  8  1  0
  6 29  1  0
  7 24  4  0
  7 26  4  0
  8 28  1  0
  9 13  2  0
 10 18  1  0
 10 21  4  0
 10 30  4  0
 11 17  2  0
 12 18  1  0
 13 15  1  0
 14 24  1  0
 15 25  1  0
 16 28  2  0
 17 20  1  0
 19 24  4  0
 20 23  1  0
 21 22  4  0
 22 23  4  0
 25 26  4  0
 27 29  2  0
M  END
$$$$

 Created by Python create_sdf_string function

 30 33  0  0  0  0  0  0  0  0999 V2000
    8.3036    9.8571   18.4133 C   0  0  0  0  0  0  0  0  0  0  0  0
    8.3694    7.6612   22.6703 C   0  0  0  0  0  0  0  0  0  0  0  0
    8.4143    6.6863   16.2273 C   0  0  0  0  0  0  0  0  0  0  0  0
   10.7581    6.5674   21.7636 C   0  0  0  0  0  0  0  0  0  0  0  0
    8.4452    8.7960   19.2958 O   0  0  0  0  0  0  0  0  0  0  0  0
    8.7122    6.7842   24.8569 C   0  0  0  0  0  0  0  0  0  0  0  0
   10.3400    6.1726   14.3081 C   0  0  0  0  0  0  0  0  0  0  0  0
    7.4297    7.5873   24.8962 C   0  0  0  0  0  0  0  0  0  0  0  0
    8.1566   10.0536   16.0516 O   0  0  0  0  0  0  0  0  0  0  0  0
   12.4989    6.2074   20.1776 C   0  0  0  0  0  0  0  0  0  0  0  0
    6.9192    9.1053   20.9073 O   0  0  0  0  0  0  0  0  0  0  0  0
   14.3979    6.0729   18.7784 C   0  0  0  0  0  0  0  0  0  0  0  0
    8.6811    9.5354   16.9998 C   0  0  0  0  0  0  0  0  0  0  0  0
    9.2512    4.2713   13.7653 O   0  0  0  0  0  0  0  0  0  0  0  0
    9.6495    8.6317   16.8332 N   0  0  0  0  0  0  0  0  0  0  0  0
    6.2934    8.6988   23.1988 O   0  0  0  0  0  0  0  0  0  0  0  0
    7.9806    8.6543   20.5437 C   0  0  0  0  0  0  0  0  0  0  0  0
   13.7270    5.7144   19.8610 O   0  0  0  0  0  0  0  0  0  0  0  0
    8.3351    5.5235   15.4478 C   0  0  0  0  0  0  0  0  0  0  0  0
    8.7700    7.8434   21.3915 C   0  0  0  0  0  0  0  0  0  0  0  0
   11.7856    6.8851   19.2401 C   0  0  0  0  0  0  0  0  0  0  0  0
   10.5281    7.4276   19.5649 C   0  0  0  0  0  0  0  0  0  0  0  0
   10.0256    7.2907   20.8484 C   0  0  0  0  0  0  0  0  0  0  0  0
    9.3113    5.3049   14.4911 C   0  0  0  0  0  0  0  0  0  0  0  0
    9.4607    7.5646   16.0139 C   0  0  0  0  0  0  0  0  0  0  0  0
   10.4192    7.3157   15.0955 C   0  0  0  0  0  0  0  0  0  0  0  0
   10.2489    6.4227   23.0218 N   0  0  0  0  0  0  0  0  0  0  0  0
    7.2472    8.0746   23.5050 C   0  0  0  0  0  0  0  0  0  0  0  0
    9.2051    6.9101   23.4604 C   0  0  0  0  0  0  0  0  0  0  0  0
   11.9646    6.0299   21.4251 C   0  0  0  0  0  0  0  0  0  0  0  0
  1  5  1  0
  1 13  1  0
  2 20  2  0
  2 28  1  0
  2 29  1  0
  3 19  4  0
  3 25  4  0
  4 23  4  0
  4 27  1  0
  4 30  4  0
  5 17  1  0
  6  8  1  0
  6 29  1  0
  7 24  4  0
  7 26  4  0
  8 28  1  0
  9 13  2  0
 10 18  1  0
 10 21  4  0
 10 30  4  0
 11 17  2  0
 12 18  1  0
 13 15  1  0
 14 24  1  0
 15 25  1  0
 16 28  2  0
 17 20  1  0
 19 24  4  0
 20 23  1  0
 21 22  4  0
 22 23  4  0
 25 26  4  0
 27 29  2  0
M  END
$$$$

 Created by Python create_sdf_string function

 30 33  0  0  0  0  0  0  0  0999 V2000
    8.3036    9.8571   18.4133 C   0  0  0  0  0  0  0  0  0  0  0  0
    8.3694    7.6612   22.6703 C   0  0  0  0  0  0  0  0  0  0  0  0
    8.4143    6.6863   16.2273 C   0  0  0  0  0  0  0  0  0  0  0  0
   10.7581    6.5674   21.7636 C   0  0  0  0  0  0  0  0  0  0  0  0
    8.4452    8.7960   19.2958 O   0  0  0  0  0  0  0  0  0  0  0  0
    8.7122    6.7842   24.8569 C   0  0  0  0  0  0  0  0  0  0  0  0
   10.3400    6.1726   14.3081 C   0  0  0  0  0  0  0  0  0  0  0  0
    7.4297    7.5873   24.8962 C   0  0  0  0  0  0  0  0  0  0  0  0
    8.1566   10.0536   16.0516 O   0  0  0  0  0  0  0  0  0  0  0  0
   12.4989    6.2074   20.1776 C   0  0  0  0  0  0  0  0  0  0  0  0
    6.9192    9.1053   20.9073 O   0  0  0  0  0  0  0  0  0  0  0  0
   14.3979    6.0729   18.7784 C   0  0  0  0  0  0  0  0  0  0  0  0
    8.6811    9.5354   16.9998 C   0  0  0  0  0  0  0  0  0  0  0  0
    9.2512    4.2713   13.7653 O   0  0  0  0  0  0  0  0  0  0  0  0
    9.6495    8.6317   16.8332 N   0  0  0  0  0  0  0  0  0  0  0  0
    6.2934    8.6988   23.1988 O   0  0  0  0  0  0  0  0  0  0  0  0
    7.9806    8.6543   20.5437 C   0  0  0  0  0  0  0  0  0  0  0  0
   13.7270    5.7144   19.8610 O   0  0  0  0  0  0  0  0  0  0  0  0
    8.3351    5.5235   15.4478 C   0  0  0  0  0  0  0  0  0  0  0  0
    8.7700    7.8434   21.3915 C   0  0  0  0  0  0  0  0  0  0  0  0
   11.7856    6.8851   19.2401 C   0  0  0  0  0  0  0  0  0  0  0  0
   10.5281    7.4276   19.5649 C   0  0  0  0  0  0  0  0  0  0  0  0
   10.0256    7.2907   20.8484 C   0  0  0  0  0  0  0  0  0  0  0  0
    9.3113    5.3049   14.4911 C   0  0  0  0  0  0  0  0  0  0  0  0
    9.4607    7.5646   16.0139 C   0  0  0  0  0  0  0  0  0  0  0  0
   10.4192    7.3157   15.0955 C   0  0  0  0  0  0  0  0  0  0  0  0
   10.2489    6.4227   23.0218 N   0  0  0  0  0  0  0  0  0  0  0  0
    7.2472    8.0746   23.5050 C   0  0  0  0  0  0  0  0  0  0  0  0
    9.2051    6.9101   23.4604 C   0  0  0  0  0  0  0  0  0  0  0  0
   11.9646    6.0299   21.4251 C   0  0  0  0  0  0  0  0  0  0  0  0
  1  5  1  0
  1 13  1  0
  2 20  2  0
  2 28  1  0
  2 29  1  0
  3 19  4  0
  3 25  4  0
  4 23  4  0
  4 27  1  0
  4 30  4  0
  5 17  1  0
  6  8  1  0
  6 29  1  0
  7 24  4  0
  7 26  4  0
  8 28  1  0
  9 13  2  0
 10 18  1  0
 10 21  4  0
 10 30  4  0
 11 17  2  0
 12 18  1  0
 13 15  1  0
 14 24  1  0
 15 25  1  0
 16 28  2  0
 17 20  1  0
 19 24  4  0
 20 23  1  0
 21 22  4  0
 22 23  4  0
 25 26  4  0
 27 29  2  0
M  END
$$$$

 Created by Python create_sdf_string function

 30 33  0  0  0  0  0  0  0  0999 V2000
    8.3036    9.8571   18.4133 C   0  0  0  0  0  0  0  0  0  0  0  0
    8.3694    7.6612   22.6703 C   0  0  0  0  0  0  0  0  0  0  0  0
    8.4143    6.6863   16.2273 C   0  0  0  0  0  0  0  0  0  0  0  0
   10.7581    6.5674   21.7636 C   0  0  0  0  0  0  0  0  0  0  0  0
    8.4452    8.7960   19.2958 O   0  0  0  0  0  0  0  0  0  0  0  0
    8.7122    6.7842   24.8569 C   0  0  0  0  0  0  0  0  0  0  0  0
   10.3400    6.1726   14.3081 C   0  0  0  0  0  0  0  0  0  0  0  0
    7.4297    7.5873   24.8962 C   0  0  0  0  0  0  0  0  0  0  0  0
    8.1566   10.0536   16.0516 O   0  0  0  0  0  0  0  0  0  0  0  0
   12.4989    6.2074   20.1776 C   0  0  0  0  0  0  0  0  0  0  0  0
    6.9192    9.1053   20.9073 O   0  0  0  0  0  0  0  0  0  0  0  0
   14.3979    6.0729   18.7784 C   0  0  0  0  0  0  0  0  0  0  0  0
    8.6811    9.5354   16.9998 C   0  0  0  0  0  0  0  0  0  0  0  0
    9.2512    4.2713   13.7653 O   0  0  0  0  0  0  0  0  0  0  0  0
    9.6495    8.6317   16.8332 N   0  0  0  0  0  0  0  0  0  0  0  0
    6.2934    8.6988   23.1988 O   0  0  0  0  0  0  0  0  0  0  0  0
    7.9806    8.6543   20.5437 C   0  0  0  0  0  0  0  0  0  0  0  0
   13.7270    5.7144   19.8610 O   0  0  0  0  0  0  0  0  0  0  0  0
    8.3351    5.5235   15.4478 C   0  0  0  0  0  0  0  0  0  0  0  0
    8.7700    7.8434   21.3915 C   0  0  0  0  0  0  0  0  0  0  0  0
   11.7856    6.8851   19.2401 C   0  0  0  0  0  0  0  0  0  0  0  0
   10.5281    7.4276   19.5649 C   0  0  0  0  0  0  0  0  0  0  0  0
   10.0256    7.2907   20.8484 C   0  0  0  0  0  0  0  0  0  0  0  0
    9.3113    5.3049   14.4911 C   0  0  0  0  0  0  0  0  0  0  0  0
    9.4607    7.5646   16.0139 C   0  0  0  0  0  0  0  0  0  0  0  0
   10.4192    7.3157   15.0955 C   0  0  0  0  0  0  0  0  0  0  0  0
   10.2489    6.4227   23.0218 N   0  0  0  0  0  0  0  0  0  0  0  0
    7.2472    8.0746   23.5050 C   0  0  0  0  0  0  0  0  0  0  0  0
    9.2051    6.9101   23.4604 C   0  0  0  0  0  0  0  0  0  0  0  0
   11.9646    6.0299   21.4251 C   0  0  0  0  0  0  0  0  0  0  0  0
  1  5  1  0
  1 13  1  0
  2 20  2  0
  2 28  1  0
  2 29  1  0
  3 19  4  0
  3 25  4  0
  4 23  4  0
  4 27  1  0
  4 30  4  0
  5 17  1  0
  6  8  1  0
  6 29  1  0
  7 24  4  0
  7 26  4  0
  8 28  1  0
  9 13  2  0
 10 18  1  0
 10 21  4  0
 10 30  4  0
 11 17  2  0
 12 18  1  0
 13 15  1  0
 14 24  1  0
 15 25  1  0
 16 28  2  0
 17 20  1  0
 19 24  4  0
 20 23  1  0
 21 22  4  0
 22 23  4  0
 25 26  4  0
 27 29  2  0
M  END
$$$$

 Created by Python create_sdf_string function

 30 33  0  0  0  0  0  0  0  0999 V2000
    8.3036    9.8571   18.4133 C   0  0  0  0  0  0  0  0  0  0  0  0
    8.3694    7.6612   22.6703 C   0  0  0  0  0  0  0  0  0  0  0  0
    8.4143    6.6863   16.2273 C   0  0  0  0  0  0  0  0  0  0  0  0
   10.7581    6.5674   21.7636 C   0  0  0  0  0  0  0  0  0  0  0  0
    8.4452    8.7960   19.2958 O   0  0  0  0  0  0  0  0  0  0  0  0
    8.7122    6.7842   24.8569 C   0  0  0  0  0  0  0  0  0  0  0  0
   10.3400    6.1726   14.3081 C   0  0  0  0  0  0  0  0  0  0  0  0
    7.4297    7.5873   24.8962 C   0  0  0  0  0  0  0  0  0  0  0  0
    8.1566   10.0536   16.0516 O   0  0  0  0  0  0  0  0  0  0  0  0
   12.4989    6.2074   20.1776 C   0  0  0  0  0  0  0  0  0  0  0  0
    6.9192    9.1053   20.9073 O   0  0  0  0  0  0  0  0  0  0  0  0
   14.3979    6.0729   18.7784 C   0  0  0  0  0  0  0  0  0  0  0  0
    8.6811    9.5354   16.9998 C   0  0  0  0  0  0  0  0  0  0  0  0
    9.2512    4.2713   13.7653 O   0  0  0  0  0  0  0  0  0  0  0  0
    9.6495    8.6317   16.8332 N   0  0  0  0  0  0  0  0  0  0  0  0
    6.2934    8.6988   23.1988 O   0  0  0  0  0  0  0  0  0  0  0  0
    7.9806    8.6543   20.5437 C   0  0  0  0  0  0  0  0  0  0  0  0
   13.7270    5.7144   19.8610 O   0  0  0  0  0  0  0  0  0  0  0  0
    8.3351    5.5235   15.4478 C   0  0  0  0  0  0  0  0  0  0  0  0
    8.7700    7.8434   21.3915 C   0  0  0  0  0  0  0  0  0  0  0  0
   11.7856    6.8851   19.2401 C   0  0  0  0  0  0  0  0  0  0  0  0
   10.5281    7.4276   19.5649 C   0  0  0  0  0  0  0  0  0  0  0  0
   10.0256    7.2907   20.8484 C   0  0  0  0  0  0  0  0  0  0  0  0
    9.3113    5.3049   14.4911 C   0  0  0  0  0  0  0  0  0  0  0  0
    9.4607    7.5646   16.0139 C   0  0  0  0  0  0  0  0  0  0  0  0
   10.4192    7.3157   15.0955 C   0  0  0  0  0  0  0  0  0  0  0  0
   10.2489    6.4227   23.0218 N   0  0  0  0  0  0  0  0  0  0  0  0
    7.2472    8.0746   23.5050 C   0  0  0  0  0  0  0  0  0  0  0  0
    9.2051    6.9101   23.4604 C   0  0  0  0  0  0  0  0  0  0  0  0
   11.9646    6.0299   21.4251 C   0  0  0  0  0  0  0  0  0  0  0  0
  1  5  1  0
  1 13  1  0
  2 20  2  0
  2 28  1  0
  2 29  1  0
  3 19  4  0
  3 25  4  0
  4 23  4  0
  4 27  1  0
  4 30  4  0
  5 17  1  0
  6  8  1  0
  6 29  1  0
  7 24  4  0
  7 26  4  0
  8 28  1  0
  9 13  2  0
 10 18  1  0
 10 21  4  0
 10 30  4  0
 11 17  2  0
 12 18  1  0
 13 15  1  0
 14 24  1  0
 15 25  1  0
 16 28  2  0
 17 20  1  0
 19 24  4  0
 20 23  1  0
 21 22  4  0
 22 23  4  0
 25 26  4  0
 27 29  2  0
M  END
$$$$

 Created by Python create_sdf_string function

 30 33  0  0  0  0  0  0  0  0999 V2000
    8.3036    9.8571   18.4133 C   0  0  0  0  0  0  0  0  0  0  0  0
    8.3694    7.6612   22.6703 C   0  0  0  0  0  0  0  0  0  0  0  0
    8.4143    6.6863   16.2273 C   0  0  0  0  0  0  0  0  0  0  0  0
   10.7581    6.5674   21.7636 C   0  0  0  0  0  0  0  0  0  0  0  0
    8.4452    8.7960   19.2958 O   0  0  0  0  0  0  0  0  0  0  0  0
    8.7122    6.7842   24.8569 C   0  0  0  0  0  0  0  0  0  0  0  0
   10.3400    6.1726   14.3081 C   0  0  0  0  0  0  0  0  0  0  0  0
    7.4297    7.5873   24.8962 C   0  0  0  0  0  0  0  0  0  0  0  0
    8.1566   10.0536   16.0516 O   0  0  0  0  0  0  0  0  0  0  0  0
   12.4989    6.2074   20.1776 C   0  0  0  0  0  0  0  0  0  0  0  0
    6.9192    9.1053   20.9073 O   0  0  0  0  0  0  0  0  0  0  0  0
   14.3979    6.0729   18.7784 C   0  0  0  0  0  0  0  0  0  0  0  0
    8.6811    9.5354   16.9998 C   0  0  0  0  0  0  0  0  0  0  0  0
    9.2512    4.2713   13.7653 O   0  0  0  0  0  0  0  0  0  0  0  0
    9.6495    8.6317   16.8332 N   0  0  0  0  0  0  0  0  0  0  0  0
    6.2934    8.6988   23.1988 O   0  0  0  0  0  0  0  0  0  0  0  0
    7.9806    8.6543   20.5437 C   0  0  0  0  0  0  0  0  0  0  0  0
   13.7270    5.7144   19.8610 O   0  0  0  0  0  0  0  0  0  0  0  0
    8.3351    5.5235   15.4478 C   0  0  0  0  0  0  0  0  0  0  0  0
    8.7700    7.8434   21.3915 C   0  0  0  0  0  0  0  0  0  0  0  0
   11.7856    6.8851   19.2401 C   0  0  0  0  0  0  0  0  0  0  0  0
   10.5281    7.4276   19.5649 C   0  0  0  0  0  0  0  0  0  0  0  0
   10.0256    7.2907   20.8484 C   0  0  0  0  0  0  0  0  0  0  0  0
    9.3113    5.3049   14.4911 C   0  0  0  0  0  0  0  0  0  0  0  0
    9.4607    7.5646   16.0139 C   0  0  0  0  0  0  0  0  0  0  0  0
   10.4192    7.3157   15.0955 C   0  0  0  0  0  0  0  0  0  0  0  0
   10.2489    6.4227   23.0218 N   0  0  0  0  0  0  0  0  0  0  0  0
    7.2472    8.0746   23.5050 C   0  0  0  0  0  0  0  0  0  0  0  0
    9.2051    6.9101   23.4604 C   0  0  0  0  0  0  0  0  0  0  0  0
   11.9646    6.0299   21.4251 C   0  0  0  0  0  0  0  0  0  0  0  0
  1  5  1  0
  1 13  1  0
  2 20  2  0
  2 28  1  0
  2 29  1  0
  3 19  4  0
  3 25  4  0
  4 23  4  0
  4 27  1  0
  4 30  4  0
  5 17  1  0
  6  8  1  0
  6 29  1  0
  7 24  4  0
  7 26  4  0
  8 28  1  0
  9 13  2  0
 10 18  1  0
 10 21  4  0
 10 30  4  0
 11 17  2  0
 12 18  1  0
 13 15  1  0
 14 24  1  0
 15 25  1  0
 16 28  2  0
 17 20  1  0
 19 24  4  0
 20 23  1  0
 21 22  4  0
 22 23  4  0
 25 26  4  0
 27 29  2  0
M  END
$$$$

 Created by Python create_sdf_string function

 30 33  0  0  0  0  0  0  0  0999 V2000
    8.3036    9.8571   18.4133 C   0  0  0  0  0  0  0  0  0  0  0  0
    8.3694    7.6612   22.6703 C   0  0  0  0  0  0  0  0  0  0  0  0
    8.4143    6.6863   16.2273 C   0  0  0  0  0  0  0  0  0  0  0  0
   10.7581    6.5674   21.7636 C   0  0  0  0  0  0  0  0  0  0  0  0
    8.4452    8.7960   19.2958 O   0  0  0  0  0  0  0  0  0  0  0  0
    8.7122    6.7842   24.8569 C   0  0  0  0  0  0  0  0  0  0  0  0
   10.3400    6.1726   14.3081 C   0  0  0  0  0  0  0  0  0  0  0  0
    7.4297    7.5873   24.8962 C   0  0  0  0  0  0  0  0  0  0  0  0
    8.1566   10.0536   16.0516 O   0  0  0  0  0  0  0  0  0  0  0  0
   12.4989    6.2074   20.1776 C   0  0  0  0  0  0  0  0  0  0  0  0
    6.9192    9.1053   20.9073 O   0  0  0  0  0  0  0  0  0  0  0  0
   14.3979    6.0729   18.7784 C   0  0  0  0  0  0  0  0  0  0  0  0
    8.6811    9.5354   16.9998 C   0  0  0  0  0  0  0  0  0  0  0  0
    9.2512    4.2713   13.7653 O   0  0  0  0  0  0  0  0  0  0  0  0
    9.6495    8.6317   16.8332 N   0  0  0  0  0  0  0  0  0  0  0  0
    6.2934    8.6988   23.1988 O   0  0  0  0  0  0  0  0  0  0  0  0
    7.9806    8.6543   20.5437 C   0  0  0  0  0  0  0  0  0  0  0  0
   13.7270    5.7144   19.8610 O   0  0  0  0  0  0  0  0  0  0  0  0
    8.3351    5.5235   15.4478 C   0  0  0  0  0  0  0  0  0  0  0  0
    8.7700    7.8434   21.3915 C   0  0  0  0  0  0  0  0  0  0  0  0
   11.7856    6.8851   19.2401 C   0  0  0  0  0  0  0  0  0  0  0  0
   10.5281    7.4276   19.5649 C   0  0  0  0  0  0  0  0  0  0  0  0
   10.0256    7.2907   20.8484 C   0  0  0  0  0  0  0  0  0  0  0  0
    9.3113    5.3049   14.4911 C   0  0  0  0  0  0  0  0  0  0  0  0
    9.4607    7.5646   16.0139 C   0  0  0  0  0  0  0  0  0  0  0  0
   10.4192    7.3157   15.0955 C   0  0  0  0  0  0  0  0  0  0  0  0
   10.2489    6.4227   23.0218 N   0  0  0  0  0  0  0  0  0  0  0  0
    7.2472    8.0746   23.5050 C   0  0  0  0  0  0  0  0  0  0  0  0
    9.2051    6.9101   23.4604 C   0  0  0  0  0  0  0  0  0  0  0  0
   11.9646    6.0299   21.4251 C   0  0  0  0  0  0  0  0  0  0  0  0
  1  5  1  0
  1 13  1  0
  2 20  2  0
  2 28  1  0
  2 29  1  0
  3 19  4  0
  3 25  4  0
  4 23  4  0
  4 27  1  0
  4 30  4  0
  5 17  1  0
  6  8  1  0
  6 29  1  0
  7 24  4  0
  7 26  4  0
  8 28  1  0
  9 13  2  0
 10 18  1  0
 10 21  4  0
 10 30  4  0
 11 17  2  0
 12 18  1  0
 13 15  1  0
 14 24  1  0
 15 25  1  0
 16 28  2  0
 17 20  1  0
 19 24  4  0
 20 23  1  0
 21 22  4  0
 22 23  4  0
 25 26  4  0
 27 29  2  0
M  END
$$$$

 Created by Python create_sdf_string function

 30 33  0  0  0  0  0  0  0  0999 V2000
    8.3036    9.8571   18.4133 C   0  0  0  0  0  0  0  0  0  0  0  0
    8.3694    7.6612   22.6703 C   0  0  0  0  0  0  0  0  0  0  0  0
    8.4143    6.6863   16.2273 C   0  0  0  0  0  0  0  0  0  0  0  0
   10.7581    6.5674   21.7636 C   0  0  0  0  0  0  0  0  0  0  0  0
    8.4452    8.7960   19.2958 O   0  0  0  0  0  0  0  0  0  0  0  0
    8.7122    6.7842   24.8569 C   0  0  0  0  0  0  0  0  0  0  0  0
   10.3400    6.1726   14.3081 C   0  0  0  0  0  0  0  0  0  0  0  0
    7.4297    7.5873   24.8962 C   0  0  0  0  0  0  0  0  0  0  0  0
    8.1566   10.0536   16.0516 O   0  0  0  0  0  0  0  0  0  0  0  0
   12.4989    6.2074   20.1776 C   0  0  0  0  0  0  0  0  0  0  0  0
    6.9192    9.1053   20.9073 O   0  0  0  0  0  0  0  0  0  0  0  0
   14.3979    6.0729   18.7784 C   0  0  0  0  0  0  0  0  0  0  0  0
    8.6811    9.5354   16.9998 C   0  0  0  0  0  0  0  0  0  0  0  0
    9.2512    4.2713   13.7653 O   0  0  0  0  0  0  0  0  0  0  0  0
    9.6495    8.6317   16.8332 N   0  0  0  0  0  0  0  0  0  0  0  0
    6.2934    8.6988   23.1988 O   0  0  0  0  0  0  0  0  0  0  0  0
    7.9806    8.6543   20.5437 C   0  0  0  0  0  0  0  0  0  0  0  0
   13.7270    5.7144   19.8610 O   0  0  0  0  0  0  0  0  0  0  0  0
    8.3351    5.5235   15.4478 C   0  0  0  0  0  0  0  0  0  0  0  0
    8.7700    7.8434   21.3915 C   0  0  0  0  0  0  0  0  0  0  0  0
   11.7856    6.8851   19.2401 C   0  0  0  0  0  0  0  0  0  0  0  0
   10.5281    7.4276   19.5649 C   0  0  0  0  0  0  0  0  0  0  0  0
   10.0256    7.2907   20.8484 C   0  0  0  0  0  0  0  0  0  0  0  0
    9.3113    5.3049   14.4911 C   0  0  0  0  0  0  0  0  0  0  0  0
    9.4607    7.5646   16.0139 C   0  0  0  0  0  0  0  0  0  0  0  0
   10.4192    7.3157   15.0955 C   0  0  0  0  0  0  0  0  0  0  0  0
   10.2489    6.4227   23.0218 N   0  0  0  0  0  0  0  0  0  0  0  0
    7.2472    8.0746   23.5050 C   0  0  0  0  0  0  0  0  0  0  0  0
    9.2051    6.9101   23.4604 C   0  0  0  0  0  0  0  0  0  0  0  0
   11.9646    6.0299   21.4251 C   0  0  0  0  0  0  0  0  0  0  0  0
  1  5  1  0
  1 13  1  0
  2 20  2  0
  2 28  1  0
  2 29  1  0
  3 19  4  0
  3 25  4  0
  4 23  4  0
  4 27  1  0
  4 30  4  0
  5 17  1  0
  6  8  1  0
  6 29  1  0
  7 24  4  0
  7 26  4  0
  8 28  1  0
  9 13  2  0
 10 18  1  0
 10 21  4  0
 10 30  4  0
 11 17  2  0
 12 18  1  0
 13 15  1  0
 14 24  1  0
 15 25  1  0
 16 28  2  0
 17 20  1  0
 19 24  4  0
 20 23  1  0
 21 22  4  0
 22 23  4  0
 25 26  4  0
 27 29  2  0
M  END
$$$$

 Created by Python create_sdf_string function

 30 33  0  0  0  0  0  0  0  0999 V2000
    8.3036    9.8571   18.4133 C   0  0  0  0  0  0  0  0  0  0  0  0
    8.3694    7.6612   22.6703 C   0  0  0  0  0  0  0  0  0  0  0  0
    8.4143    6.6863   16.2273 C   0  0  0  0  0  0  0  0  0  0  0  0
   10.7581    6.5674   21.7636 C   0  0  0  0  0  0  0  0  0  0  0  0
    8.4452    8.7960   19.2958 O   0  0  0  0  0  0  0  0  0  0  0  0
    8.7122    6.7842   24.8569 C   0  0  0  0  0  0  0  0  0  0  0  0
   10.3400    6.1726   14.3081 C   0  0  0  0  0  0  0  0  0  0  0  0
    7.4297    7.5873   24.8962 C   0  0  0  0  0  0  0  0  0  0  0  0
    8.1566   10.0536   16.0516 O   0  0  0  0  0  0  0  0  0  0  0  0
   12.4989    6.2074   20.1776 C   0  0  0  0  0  0  0  0  0  0  0  0
    6.9192    9.1053   20.9073 O   0  0  0  0  0  0  0  0  0  0  0  0
   14.3979    6.0729   18.7784 C   0  0  0  0  0  0  0  0  0  0  0  0
    8.6811    9.5354   16.9998 C   0  0  0  0  0  0  0  0  0  0  0  0
    9.2512    4.2713   13.7653 O   0  0  0  0  0  0  0  0  0  0  0  0
    9.6495    8.6317   16.8332 N   0  0  0  0  0  0  0  0  0  0  0  0
    6.2934    8.6988   23.1988 O   0  0  0  0  0  0  0  0  0  0  0  0
    7.9806    8.6543   20.5437 C   0  0  0  0  0  0  0  0  0  0  0  0
   13.7270    5.7144   19.8610 O   0  0  0  0  0  0  0  0  0  0  0  0
    8.3351    5.5235   15.4478 C   0  0  0  0  0  0  0  0  0  0  0  0
    8.7700    7.8434   21.3915 C   0  0  0  0  0  0  0  0  0  0  0  0
   11.7856    6.8851   19.2401 C   0  0  0  0  0  0  0  0  0  0  0  0
   10.5281    7.4276   19.5649 C   0  0  0  0  0  0  0  0  0  0  0  0
   10.0256    7.2907   20.8484 C   0  0  0  0  0  0  0  0  0  0  0  0
    9.3113    5.3049   14.4911 C   0  0  0  0  0  0  0  0  0  0  0  0
    9.4607    7.5646   16.0139 C   0  0  0  0  0  0  0  0  0  0  0  0
   10.4192    7.3157   15.0955 C   0  0  0  0  0  0  0  0  0  0  0  0
   10.2489    6.4227   23.0218 N   0  0  0  0  0  0  0  0  0  0  0  0
    7.2472    8.0746   23.5050 C   0  0  0  0  0  0  0  0  0  0  0  0
    9.2051    6.9101   23.4604 C   0  0  0  0  0  0  0  0  0  0  0  0
   11.9646    6.0299   21.4251 C   0  0  0  0  0  0  0  0  0  0  0  0
  1  5  1  0
  1 13  1  0
  2 20  2  0
  2 28  1  0
  2 29  1  0
  3 19  4  0
  3 25  4  0
  4 23  4  0
  4 27  1  0
  4 30  4  0
  5 17  1  0
  6  8  1  0
  6 29  1  0
  7 24  4  0
  7 26  4  0
  8 28  1  0
  9 13  2  0
 10 18  1  0
 10 21  4  0
 10 30  4  0
 11 17  2  0
 12 18  1  0
 13 15  1  0
 14 24  1  0
 15 25  1  0
 16 28  2  0
 17 20  1  0
 19 24  4  0
 20 23  1  0
 21 22  4  0
 22 23  4  0
 25 26  4  0
 27 29  2  0
M  END
$$$$

 Created by Python create_sdf_string function

 30 33  0  0  0  0  0  0  0  0999 V2000
    8.3036    9.8571   18.4133 C   0  0  0  0  0  0  0  0  0  0  0  0
    8.3694    7.6612   22.6703 C   0  0  0  0  0  0  0  0  0  0  0  0
    8.4143    6.6863   16.2273 C   0  0  0  0  0  0  0  0  0  0  0  0
   10.7581    6.5674   21.7636 C   0  0  0  0  0  0  0  0  0  0  0  0
    8.4452    8.7960   19.2958 O   0  0  0  0  0  0  0  0  0  0  0  0
    8.7122    6.7842   24.8569 C   0  0  0  0  0  0  0  0  0  0  0  0
   10.3400    6.1726   14.3081 C   0  0  0  0  0  0  0  0  0  0  0  0
    7.4297    7.5873   24.8962 C   0  0  0  0  0  0  0  0  0  0  0  0
    8.1566   10.0536   16.0516 O   0  0  0  0  0  0  0  0  0  0  0  0
   12.4989    6.2074   20.1776 C   0  0  0  0  0  0  0  0  0  0  0  0
    6.9192    9.1053   20.9073 O   0  0  0  0  0  0  0  0  0  0  0  0
   14.3979    6.0729   18.7784 C   0  0  0  0  0  0  0  0  0  0  0  0
    8.6811    9.5354   16.9998 C   0  0  0  0  0  0  0  0  0  0  0  0
    9.2512    4.2713   13.7653 O   0  0  0  0  0  0  0  0  0  0  0  0
    9.6495    8.6317   16.8332 N   0  0  0  0  0  0  0  0  0  0  0  0
    6.2934    8.6988   23.1988 O   0  0  0  0  0  0  0  0  0  0  0  0
    7.9806    8.6543   20.5437 C   0  0  0  0  0  0  0  0  0  0  0  0
   13.7270    5.7144   19.8610 O   0  0  0  0  0  0  0  0  0  0  0  0
    8.3351    5.5235   15.4478 C   0  0  0  0  0  0  0  0  0  0  0  0
    8.7700    7.8434   21.3915 C   0  0  0  0  0  0  0  0  0  0  0  0
   11.7856    6.8851   19.2401 C   0  0  0  0  0  0  0  0  0  0  0  0
   10.5281    7.4276   19.5649 C   0  0  0  0  0  0  0  0  0  0  0  0
   10.0256    7.2907   20.8484 C   0  0  0  0  0  0  0  0  0  0  0  0
    9.3113    5.3049   14.4911 C   0  0  0  0  0  0  0  0  0  0  0  0
    9.4607    7.5646   16.0139 C   0  0  0  0  0  0  0  0  0  0  0  0
   10.4192    7.3157   15.0955 C   0  0  0  0  0  0  0  0  0  0  0  0
   10.2489    6.4227   23.0218 N   0  0  0  0  0  0  0  0  0  0  0  0
    7.2472    8.0746   23.5050 C   0  0  0  0  0  0  0  0  0  0  0  0
    9.2051    6.9101   23.4604 C   0  0  0  0  0  0  0  0  0  0  0  0
   11.9646    6.0299   21.4251 C   0  0  0  0  0  0  0  0  0  0  0  0
  1  5  1  0
  1 13  1  0
  2 20  2  0
  2 28  1  0
  2 29  1  0
  3 19  4  0
  3 25  4  0
  4 23  4  0
  4 27  1  0
  4 30  4  0
  5 17  1  0
  6  8  1  0
  6 29  1  0
  7 24  4  0
  7 26  4  0
  8 28  1  0
  9 13  2  0
 10 18  1  0
 10 21  4  0
 10 30  4  0
 11 17  2  0
 12 18  1  0
 13 15  1  0
 14 24  1  0
 15 25  1  0
 16 28  2  0
 17 20  1  0
 19 24  4  0
 20 23  1  0
 21 22  4  0
 22 23  4  0
 25 26  4  0
 27 29  2  0
M  END
$$$$

 Created by Python create_sdf_string function

 30 33  0  0  0  0  0  0  0  0999 V2000
    8.3036    9.8571   18.4133 C   0  0  0  0  0  0  0  0  0  0  0  0
    8.3694    7.6612   22.6703 C   0  0  0  0  0  0  0  0  0  0  0  0
    8.4143    6.6863   16.2273 C   0  0  0  0  0  0  0  0  0  0  0  0
   10.7581    6.5674   21.7636 C   0  0  0  0  0  0  0  0  0  0  0  0
    8.4452    8.7960   19.2958 O   0  0  0  0  0  0  0  0  0  0  0  0
    8.7122    6.7842   24.8569 C   0  0  0  0  0  0  0  0  0  0  0  0
   10.3400    6.1726   14.3081 C   0  0  0  0  0  0  0  0  0  0  0  0
    7.4297    7.5873   24.8962 C   0  0  0  0  0  0  0  0  0  0  0  0
    8.1566   10.0536   16.0516 O   0  0  0  0  0  0  0  0  0  0  0  0
   12.4989    6.2074   20.1776 C   0  0  0  0  0  0  0  0  0  0  0  0
    6.9192    9.1053   20.9073 O   0  0  0  0  0  0  0  0  0  0  0  0
   14.3979    6.0729   18.7784 C   0  0  0  0  0  0  0  0  0  0  0  0
    8.6811    9.5354   16.9998 C   0  0  0  0  0  0  0  0  0  0  0  0
    9.2512    4.2713   13.7653 O   0  0  0  0  0  0  0  0  0  0  0  0
    9.6495    8.6317   16.8332 N   0  0  0  0  0  0  0  0  0  0  0  0
    6.2934    8.6988   23.1988 O   0  0  0  0  0  0  0  0  0  0  0  0
    7.9806    8.6543   20.5437 C   0  0  0  0  0  0  0  0  0  0  0  0
   13.7270    5.7144   19.8610 O   0  0  0  0  0  0  0  0  0  0  0  0
    8.3351    5.5235   15.4478 C   0  0  0  0  0  0  0  0  0  0  0  0
    8.7700    7.8434   21.3915 C   0  0  0  0  0  0  0  0  0  0  0  0
   11.7856    6.8851   19.2401 C   0  0  0  0  0  0  0  0  0  0  0  0
   10.5281    7.4276   19.5649 C   0  0  0  0  0  0  0  0  0  0  0  0
   10.0256    7.2907   20.8484 C   0  0  0  0  0  0  0  0  0  0  0  0
    9.3113    5.3049   14.4911 C   0  0  0  0  0  0  0  0  0  0  0  0
    9.4607    7.5646   16.0139 C   0  0  0  0  0  0  0  0  0  0  0  0
   10.4192    7.3157   15.0955 C   0  0  0  0  0  0  0  0  0  0  0  0
   10.2489    6.4227   23.0218 N   0  0  0  0  0  0  0  0  0  0  0  0
    7.2472    8.0746   23.5050 C   0  0  0  0  0  0  0  0  0  0  0  0
    9.2051    6.9101   23.4604 C   0  0  0  0  0  0  0  0  0  0  0  0
   11.9646    6.0299   21.4251 C   0  0  0  0  0  0  0  0  0  0  0  0
  1  5  1  0
  1 13  1  0
  2 20  2  0
  2 28  1  0
  2 29  1  0
  3 19  4  0
  3 25  4  0
  4 23  4  0
  4 27  1  0
  4 30  4  0
  5 17  1  0
  6  8  1  0
  6 29  1  0
  7 24  4  0
  7 26  4  0
  8 28  1  0
  9 13  2  0
 10 18  1  0
 10 21  4  0
 10 30  4  0
 11 17  2  0
 12 18  1  0
 13 15  1  0
 14 24  1  0
 15 25  1  0
 16 28  2  0
 17 20  1  0
 19 24  4  0
 20 23  1  0
 21 22  4  0
 22 23  4  0
 25 26  4  0
 27 29  2  0
M  END
$$$$

 Created by Python create_sdf_string function

 30 33  0  0  0  0  0  0  0  0999 V2000
    8.3036    9.8571   18.4133 C   0  0  0  0  0  0  0  0  0  0  0  0
    8.3694    7.6612   22.6703 C   0  0  0  0  0  0  0  0  0  0  0  0
    8.4143    6.6863   16.2273 C   0  0  0  0  0  0  0  0  0  0  0  0
   10.7581    6.5674   21.7636 C   0  0  0  0  0  0  0  0  0  0  0  0
    8.4452    8.7960   19.2958 O   0  0  0  0  0  0  0  0  0  0  0  0
    8.7122    6.7842   24.8569 C   0  0  0  0  0  0  0  0  0  0  0  0
   10.3400    6.1726   14.3081 C   0  0  0  0  0  0  0  0  0  0  0  0
    7.4297    7.5873   24.8962 C   0  0  0  0  0  0  0  0  0  0  0  0
    8.1566   10.0536   16.0516 O   0  0  0  0  0  0  0  0  0  0  0  0
   12.4989    6.2074   20.1776 C   0  0  0  0  0  0  0  0  0  0  0  0
    6.9192    9.1053   20.9073 O   0  0  0  0  0  0  0  0  0  0  0  0
   14.3979    6.0729   18.7784 C   0  0  0  0  0  0  0  0  0  0  0  0
    8.6811    9.5354   16.9998 C   0  0  0  0  0  0  0  0  0  0  0  0
    9.2512    4.2713   13.7653 O   0  0  0  0  0  0  0  0  0  0  0  0
    9.6495    8.6317   16.8332 N   0  0  0  0  0  0  0  0  0  0  0  0
    6.2934    8.6988   23.1988 O   0  0  0  0  0  0  0  0  0  0  0  0
    7.9806    8.6543   20.5437 C   0  0  0  0  0  0  0  0  0  0  0  0
   13.7270    5.7144   19.8610 O   0  0  0  0  0  0  0  0  0  0  0  0
    8.3351    5.5235   15.4478 C   0  0  0  0  0  0  0  0  0  0  0  0
    8.7700    7.8434   21.3915 C   0  0  0  0  0  0  0  0  0  0  0  0
   11.7856    6.8851   19.2401 C   0  0  0  0  0  0  0  0  0  0  0  0
   10.5281    7.4276   19.5649 C   0  0  0  0  0  0  0  0  0  0  0  0
   10.0256    7.2907   20.8484 C   0  0  0  0  0  0  0  0  0  0  0  0
    9.3113    5.3049   14.4911 C   0  0  0  0  0  0  0  0  0  0  0  0
    9.4607    7.5646   16.0139 C   0  0  0  0  0  0  0  0  0  0  0  0
   10.4192    7.3157   15.0955 C   0  0  0  0  0  0  0  0  0  0  0  0
   10.2489    6.4227   23.0218 N   0  0  0  0  0  0  0  0  0  0  0  0
    7.2472    8.0746   23.5050 C   0  0  0  0  0  0  0  0  0  0  0  0
    9.2051    6.9101   23.4604 C   0  0  0  0  0  0  0  0  0  0  0  0
   11.9646    6.0299   21.4251 C   0  0  0  0  0  0  0  0  0  0  0  0
  1  5  1  0
  1 13  1  0
  2 20  2  0
  2 28  1  0
  2 29  1  0
  3 19  4  0
  3 25  4  0
  4 23  4  0
  4 27  1  0
  4 30  4  0
  5 17  1  0
  6  8  1  0
  6 29  1  0
  7 24  4  0
  7 26  4  0
  8 28  1  0
  9 13  2  0
 10 18  1  0
 10 21  4  0
 10 30  4  0
 11 17  2  0
 12 18  1  0
 13 15  1  0
 14 24  1  0
 15 25  1  0
 16 28  2  0
 17 20  1  0
 19 24  4  0
 20 23  1  0
 21 22  4  0
 22 23  4  0
 25 26  4  0
 27 29  2  0
M  END
$$$$

 Created by Python create_sdf_string function

 30 33  0  0  0  0  0  0  0  0999 V2000
    8.3036    9.8571   18.4133 C   0  0  0  0  0  0  0  0  0  0  0  0
    8.3694    7.6612   22.6703 C   0  0  0  0  0  0  0  0  0  0  0  0
    8.4143    6.6863   16.2273 C   0  0  0  0  0  0  0  0  0  0  0  0
   10.7581    6.5674   21.7636 C   0  0  0  0  0  0  0  0  0  0  0  0
    8.4452    8.7960   19.2958 O   0  0  0  0  0  0  0  0  0  0  0  0
    8.7122    6.7842   24.8569 C   0  0  0  0  0  0  0  0  0  0  0  0
   10.3400    6.1726   14.3081 C   0  0  0  0  0  0  0  0  0  0  0  0
    7.4297    7.5873   24.8962 C   0  0  0  0  0  0  0  0  0  0  0  0
    8.1566   10.0536   16.0516 O   0  0  0  0  0  0  0  0  0  0  0  0
   12.4989    6.2074   20.1776 C   0  0  0  0  0  0  0  0  0  0  0  0
    6.9192    9.1053   20.9073 O   0  0  0  0  0  0  0  0  0  0  0  0
   14.3979    6.0729   18.7784 C   0  0  0  0  0  0  0  0  0  0  0  0
    8.6811    9.5354   16.9998 C   0  0  0  0  0  0  0  0  0  0  0  0
    9.2512    4.2713   13.7653 O   0  0  0  0  0  0  0  0  0  0  0  0
    9.6495    8.6317   16.8332 N   0  0  0  0  0  0  0  0  0  0  0  0
    6.2934    8.6988   23.1988 O   0  0  0  0  0  0  0  0  0  0  0  0
    7.9806    8.6543   20.5437 C   0  0  0  0  0  0  0  0  0  0  0  0
   13.7270    5.7144   19.8610 O   0  0  0  0  0  0  0  0  0  0  0  0
    8.3351    5.5235   15.4478 C   0  0  0  0  0  0  0  0  0  0  0  0
    8.7700    7.8434   21.3915 C   0  0  0  0  0  0  0  0  0  0  0  0
   11.7856    6.8851   19.2401 C   0  0  0  0  0  0  0  0  0  0  0  0
   10.5281    7.4276   19.5649 C   0  0  0  0  0  0  0  0  0  0  0  0
   10.0256    7.2907   20.8484 C   0  0  0  0  0  0  0  0  0  0  0  0
    9.3113    5.3049   14.4911 C   0  0  0  0  0  0  0  0  0  0  0  0
    9.4607    7.5646   16.0139 C   0  0  0  0  0  0  0  0  0  0  0  0
   10.4192    7.3157   15.0955 C   0  0  0  0  0  0  0  0  0  0  0  0
   10.2489    6.4227   23.0218 N   0  0  0  0  0  0  0  0  0  0  0  0
    7.2472    8.0746   23.5050 C   0  0  0  0  0  0  0  0  0  0  0  0
    9.2051    6.9101   23.4604 C   0  0  0  0  0  0  0  0  0  0  0  0
   11.9646    6.0299   21.4251 C   0  0  0  0  0  0  0  0  0  0  0  0
  1  5  1  0
  1 13  1  0
  2 20  2  0
  2 28  1  0
  2 29  1  0
  3 19  4  0
  3 25  4  0
  4 23  4  0
  4 27  1  0
  4 30  4  0
  5 17  1  0
  6  8  1  0
  6 29  1  0
  7 24  4  0
  7 26  4  0
  8 28  1  0
  9 13  2  0
 10 18  1  0
 10 21  4  0
 10 30  4  0
 11 17  2  0
 12 18  1  0
 13 15  1  0
 14 24  1  0
 15 25  1  0
 16 28  2  0
 17 20  1  0
 19 24  4  0
 20 23  1  0
 21 22  4  0
 22 23  4  0
 25 26  4  0
 27 29  2  0
M  END
$$$$

 Created by Python create_sdf_string function

 30 33  0  0  0  0  0  0  0  0999 V2000
    8.3036    9.8571   18.4133 C   0  0  0  0  0  0  0  0  0  0  0  0
    8.3694    7.6612   22.6703 C   0  0  0  0  0  0  0  0  0  0  0  0
    8.4143    6.6863   16.2273 C   0  0  0  0  0  0  0  0  0  0  0  0
   10.7581    6.5674   21.7636 C   0  0  0  0  0  0  0  0  0  0  0  0
    8.4452    8.7960   19.2958 O   0  0  0  0  0  0  0  0  0  0  0  0
    8.7122    6.7842   24.8569 C   0  0  0  0  0  0  0  0  0  0  0  0
   10.3400    6.1726   14.3081 C   0  0  0  0  0  0  0  0  0  0  0  0
    7.4297    7.5873   24.8962 C   0  0  0  0  0  0  0  0  0  0  0  0
    8.1566   10.0536   16.0516 O   0  0  0  0  0  0  0  0  0  0  0  0
   12.4989    6.2074   20.1776 C   0  0  0  0  0  0  0  0  0  0  0  0
    6.9192    9.1053   20.9073 O   0  0  0  0  0  0  0  0  0  0  0  0
   14.3979    6.0729   18.7784 C   0  0  0  0  0  0  0  0  0  0  0  0
    8.6811    9.5354   16.9998 C   0  0  0  0  0  0  0  0  0  0  0  0
    9.2512    4.2713   13.7653 O   0  0  0  0  0  0  0  0  0  0  0  0
    9.6495    8.6317   16.8332 N   0  0  0  0  0  0  0  0  0  0  0  0
    6.2934    8.6988   23.1988 O   0  0  0  0  0  0  0  0  0  0  0  0
    7.9806    8.6543   20.5437 C   0  0  0  0  0  0  0  0  0  0  0  0
   13.7270    5.7144   19.8610 O   0  0  0  0  0  0  0  0  0  0  0  0
    8.3351    5.5235   15.4478 C   0  0  0  0  0  0  0  0  0  0  0  0
    8.7700    7.8434   21.3915 C   0  0  0  0  0  0  0  0  0  0  0  0
   11.7856    6.8851   19.2401 C   0  0  0  0  0  0  0  0  0  0  0  0
   10.5281    7.4276   19.5649 C   0  0  0  0  0  0  0  0  0  0  0  0
   10.0256    7.2907   20.8484 C   0  0  0  0  0  0  0  0  0  0  0  0
    9.3113    5.3049   14.4911 C   0  0  0  0  0  0  0  0  0  0  0  0
    9.4607    7.5646   16.0139 C   0  0  0  0  0  0  0  0  0  0  0  0
   10.4192    7.3157   15.0955 C   0  0  0  0  0  0  0  0  0  0  0  0
   10.2489    6.4227   23.0218 N   0  0  0  0  0  0  0  0  0  0  0  0
    7.2472    8.0746   23.5050 C   0  0  0  0  0  0  0  0  0  0  0  0
    9.2051    6.9101   23.4604 C   0  0  0  0  0  0  0  0  0  0  0  0
   11.9646    6.0299   21.4251 C   0  0  0  0  0  0  0  0  0  0  0  0
  1  5  1  0
  1 13  1  0
  2 20  2  0
  2 28  1  0
  2 29  1  0
  3 19  4  0
  3 25  4  0
  4 23  4  0
  4 27  1  0
  4 30  4  0
  5 17  1  0
  6  8  1  0
  6 29  1  0
  7 24  4  0
  7 26  4  0
  8 28  1  0
  9 13  2  0
 10 18  1  0
 10 21  4  0
 10 30  4  0
 11 17  2  0
 12 18  1  0
 13 15  1  0
 14 24  1  0
 15 25  1  0
 16 28  2  0
 17 20  1  0
 19 24  4  0
 20 23  1  0
 21 22  4  0
 22 23  4  0
 25 26  4  0
 27 29  2  0
M  END
$$$$

 Created by Python create_sdf_string function

 30 33  0  0  0  0  0  0  0  0999 V2000
    8.3036    9.8571   18.4133 C   0  0  0  0  0  0  0  0  0  0  0  0
    8.3694    7.6612   22.6703 C   0  0  0  0  0  0  0  0  0  0  0  0
    8.4143    6.6863   16.2273 C   0  0  0  0  0  0  0  0  0  0  0  0
   10.7581    6.5674   21.7636 C   0  0  0  0  0  0  0  0  0  0  0  0
    8.4452    8.7960   19.2958 O   0  0  0  0  0  0  0  0  0  0  0  0
    8.7122    6.7842   24.8569 C   0  0  0  0  0  0  0  0  0  0  0  0
   10.3400    6.1726   14.3081 C   0  0  0  0  0  0  0  0  0  0  0  0
    7.4297    7.5873   24.8962 C   0  0  0  0  0  0  0  0  0  0  0  0
    8.1566   10.0536   16.0516 O   0  0  0  0  0  0  0  0  0  0  0  0
   12.4989    6.2074   20.1776 C   0  0  0  0  0  0  0  0  0  0  0  0
    6.9192    9.1053   20.9073 O   0  0  0  0  0  0  0  0  0  0  0  0
   14.3979    6.0729   18.7784 C   0  0  0  0  0  0  0  0  0  0  0  0
    8.6811    9.5354   16.9998 C   0  0  0  0  0  0  0  0  0  0  0  0
    9.2512    4.2713   13.7653 O   0  0  0  0  0  0  0  0  0  0  0  0
    9.6495    8.6317   16.8332 N   0  0  0  0  0  0  0  0  0  0  0  0
    6.2934    8.6988   23.1988 O   0  0  0  0  0  0  0  0  0  0  0  0
    7.9806    8.6543   20.5437 C   0  0  0  0  0  0  0  0  0  0  0  0
   13.7270    5.7144   19.8610 O   0  0  0  0  0  0  0  0  0  0  0  0
    8.3351    5.5235   15.4478 C   0  0  0  0  0  0  0  0  0  0  0  0
    8.7700    7.8434   21.3915 C   0  0  0  0  0  0  0  0  0  0  0  0
   11.7856    6.8851   19.2401 C   0  0  0  0  0  0  0  0  0  0  0  0
   10.5281    7.4276   19.5649 C   0  0  0  0  0  0  0  0  0  0  0  0
   10.0256    7.2907   20.8484 C   0  0  0  0  0  0  0  0  0  0  0  0
    9.3113    5.3049   14.4911 C   0  0  0  0  0  0  0  0  0  0  0  0
    9.4607    7.5646   16.0139 C   0  0  0  0  0  0  0  0  0  0  0  0
   10.4192    7.3157   15.0955 C   0  0  0  0  0  0  0  0  0  0  0  0
   10.2489    6.4227   23.0218 N   0  0  0  0  0  0  0  0  0  0  0  0
    7.2472    8.0746   23.5050 C   0  0  0  0  0  0  0  0  0  0  0  0
    9.2051    6.9101   23.4604 C   0  0  0  0  0  0  0  0  0  0  0  0
   11.9646    6.0299   21.4251 C   0  0  0  0  0  0  0  0  0  0  0  0
  1  5  1  0
  1 13  1  0
  2 20  2  0
  2 28  1  0
  2 29  1  0
  3 19  4  0
  3 25  4  0
  4 23  4  0
  4 27  1  0
  4 30  4  0
  5 17  1  0
  6  8  1  0
  6 29  1  0
  7 24  4  0
  7 26  4  0
  8 28  1  0
  9 13  2  0
 10 18  1  0
 10 21  4  0
 10 30  4  0
 11 17  2  0
 12 18  1  0
 13 15  1  0
 14 24  1  0
 15 25  1  0
 16 28  2  0
 17 20  1  0
 19 24  4  0
 20 23  1  0
 21 22  4  0
 22 23  4  0
 25 26  4  0
 27 29  2  0
M  END
$$$$

 Created by Python create_sdf_string function

 30 33  0  0  0  0  0  0  0  0999 V2000
    8.3036    9.8571   18.4133 C   0  0  0  0  0  0  0  0  0  0  0  0
    8.3694    7.6612   22.6703 C   0  0  0  0  0  0  0  0  0  0  0  0
    8.4143    6.6863   16.2273 C   0  0  0  0  0  0  0  0  0  0  0  0
   10.7581    6.5674   21.7636 C   0  0  0  0  0  0  0  0  0  0  0  0
    8.4452    8.7960   19.2958 O   0  0  0  0  0  0  0  0  0  0  0  0
    8.7122    6.7842   24.8569 C   0  0  0  0  0  0  0  0  0  0  0  0
   10.3400    6.1726   14.3081 C   0  0  0  0  0  0  0  0  0  0  0  0
    7.4297    7.5873   24.8962 C   0  0  0  0  0  0  0  0  0  0  0  0
    8.1566   10.0536   16.0516 O   0  0  0  0  0  0  0  0  0  0  0  0
   12.4989    6.2074   20.1776 C   0  0  0  0  0  0  0  0  0  0  0  0
    6.9192    9.1053   20.9073 O   0  0  0  0  0  0  0  0  0  0  0  0
   14.3979    6.0729   18.7784 C   0  0  0  0  0  0  0  0  0  0  0  0
    8.6811    9.5354   16.9998 C   0  0  0  0  0  0  0  0  0  0  0  0
    9.2512    4.2713   13.7653 O   0  0  0  0  0  0  0  0  0  0  0  0
    9.6495    8.6317   16.8332 N   0  0  0  0  0  0  0  0  0  0  0  0
    6.2934    8.6988   23.1988 O   0  0  0  0  0  0  0  0  0  0  0  0
    7.9806    8.6543   20.5437 C   0  0  0  0  0  0  0  0  0  0  0  0
   13.7270    5.7144   19.8610 O   0  0  0  0  0  0  0  0  0  0  0  0
    8.3351    5.5235   15.4478 C   0  0  0  0  0  0  0  0  0  0  0  0
    8.7700    7.8434   21.3915 C   0  0  0  0  0  0  0  0  0  0  0  0
   11.7856    6.8851   19.2401 C   0  0  0  0  0  0  0  0  0  0  0  0
   10.5281    7.4276   19.5649 C   0  0  0  0  0  0  0  0  0  0  0  0
   10.0256    7.2907   20.8484 C   0  0  0  0  0  0  0  0  0  0  0  0
    9.3113    5.3049   14.4911 C   0  0  0  0  0  0  0  0  0  0  0  0
    9.4607    7.5646   16.0139 C   0  0  0  0  0  0  0  0  0  0  0  0
   10.4192    7.3157   15.0955 C   0  0  0  0  0  0  0  0  0  0  0  0
   10.2489    6.4227   23.0218 N   0  0  0  0  0  0  0  0  0  0  0  0
    7.2472    8.0746   23.5050 C   0  0  0  0  0  0  0  0  0  0  0  0
    9.2051    6.9101   23.4604 C   0  0  0  0  0  0  0  0  0  0  0  0
   11.9646    6.0299   21.4251 C   0  0  0  0  0  0  0  0  0  0  0  0
  1  5  1  0
  1 13  1  0
  2 20  2  0
  2 28  1  0
  2 29  1  0
  3 19  4  0
  3 25  4  0
  4 23  4  0
  4 27  1  0
  4 30  4  0
  5 17  1  0
  6  8  1  0
  6 29  1  0
  7 24  4  0
  7 26  4  0
  8 28  1  0
  9 13  2  0
 10 18  1  0
 10 21  4  0
 10 30  4  0
 11 17  2  0
 12 18  1  0
 13 15  1  0
 14 24  1  0
 15 25  1  0
 16 28  2  0
 17 20  1  0
 19 24  4  0
 20 23  1  0
 21 22  4  0
 22 23  4  0
 25 26  4  0
 27 29  2  0
M  END
$$$$

 Created by Python create_sdf_string function

 30 33  0  0  0  0  0  0  0  0999 V2000
    8.3036    9.8571   18.4133 C   0  0  0  0  0  0  0  0  0  0  0  0
    8.3694    7.6612   22.6703 C   0  0  0  0  0  0  0  0  0  0  0  0
    8.4143    6.6863   16.2273 C   0  0  0  0  0  0  0  0  0  0  0  0
   10.7581    6.5674   21.7636 C   0  0  0  0  0  0  0  0  0  0  0  0
    8.4452    8.7960   19.2958 O   0  0  0  0  0  0  0  0  0  0  0  0
    8.7122    6.7842   24.8569 C   0  0  0  0  0  0  0  0  0  0  0  0
   10.3400    6.1726   14.3081 C   0  0  0  0  0  0  0  0  0  0  0  0
    7.4297    7.5873   24.8962 C   0  0  0  0  0  0  0  0  0  0  0  0
    8.1566   10.0536   16.0516 O   0  0  0  0  0  0  0  0  0  0  0  0
   12.4989    6.2074   20.1776 C   0  0  0  0  0  0  0  0  0  0  0  0
    6.9192    9.1053   20.9073 O   0  0  0  0  0  0  0  0  0  0  0  0
   14.3979    6.0729   18.7784 C   0  0  0  0  0  0  0  0  0  0  0  0
    8.6811    9.5354   16.9998 C   0  0  0  0  0  0  0  0  0  0  0  0
    9.2512    4.2713   13.7653 O   0  0  0  0  0  0  0  0  0  0  0  0
    9.6495    8.6317   16.8332 N   0  0  0  0  0  0  0  0  0  0  0  0
    6.2934    8.6988   23.1988 O   0  0  0  0  0  0  0  0  0  0  0  0
    7.9806    8.6543   20.5437 C   0  0  0  0  0  0  0  0  0  0  0  0
   13.7270    5.7144   19.8610 O   0  0  0  0  0  0  0  0  0  0  0  0
    8.3351    5.5235   15.4478 C   0  0  0  0  0  0  0  0  0  0  0  0
    8.7700    7.8434   21.3915 C   0  0  0  0  0  0  0  0  0  0  0  0
   11.7856    6.8851   19.2401 C   0  0  0  0  0  0  0  0  0  0  0  0
   10.5281    7.4276   19.5649 C   0  0  0  0  0  0  0  0  0  0  0  0
   10.0256    7.2907   20.8484 C   0  0  0  0  0  0  0  0  0  0  0  0
    9.3113    5.3049   14.4911 C   0  0  0  0  0  0  0  0  0  0  0  0
    9.4607    7.5646   16.0139 C   0  0  0  0  0  0  0  0  0  0  0  0
   10.4192    7.3157   15.0955 C   0  0  0  0  0  0  0  0  0  0  0  0
   10.2489    6.4227   23.0218 N   0  0  0  0  0  0  0  0  0  0  0  0
    7.2472    8.0746   23.5050 C   0  0  0  0  0  0  0  0  0  0  0  0
    9.2051    6.9101   23.4604 C   0  0  0  0  0  0  0  0  0  0  0  0
   11.9646    6.0299   21.4251 C   0  0  0  0  0  0  0  0  0  0  0  0
  1  5  1  0
  1 13  1  0
  2 20  2  0
  2 28  1  0
  2 29  1  0
  3 19  4  0
  3 25  4  0
  4 23  4  0
  4 27  1  0
  4 30  4  0
  5 17  1  0
  6  8  1  0
  6 29  1  0
  7 24  4  0
  7 26  4  0
  8 28  1  0
  9 13  2  0
 10 18  1  0
 10 21  4  0
 10 30  4  0
 11 17  2  0
 12 18  1  0
 13 15  1  0
 14 24  1  0
 15 25  1  0
 16 28  2  0
 17 20  1  0
 19 24  4  0
 20 23  1  0
 21 22  4  0
 22 23  4  0
 25 26  4  0
 27 29  2  0
M  END
$$$$

 Created by Python create_sdf_string function

 30 33  0  0  0  0  0  0  0  0999 V2000
    8.3036    9.8571   18.4133 C   0  0  0  0  0  0  0  0  0  0  0  0
    8.3694    7.6612   22.6703 C   0  0  0  0  0  0  0  0  0  0  0  0
    8.4143    6.6863   16.2273 C   0  0  0  0  0  0  0  0  0  0  0  0
   10.7581    6.5674   21.7636 C   0  0  0  0  0  0  0  0  0  0  0  0
    8.4452    8.7960   19.2958 O   0  0  0  0  0  0  0  0  0  0  0  0
    8.7122    6.7842   24.8569 C   0  0  0  0  0  0  0  0  0  0  0  0
   10.3400    6.1726   14.3081 C   0  0  0  0  0  0  0  0  0  0  0  0
    7.4297    7.5873   24.8962 C   0  0  0  0  0  0  0  0  0  0  0  0
    8.1566   10.0536   16.0516 O   0  0  0  0  0  0  0  0  0  0  0  0
   12.4989    6.2074   20.1776 C   0  0  0  0  0  0  0  0  0  0  0  0
    6.9192    9.1053   20.9073 O   0  0  0  0  0  0  0  0  0  0  0  0
   14.3979    6.0729   18.7784 C   0  0  0  0  0  0  0  0  0  0  0  0
    8.6811    9.5354   16.9998 C   0  0  0  0  0  0  0  0  0  0  0  0
    9.2512    4.2713   13.7653 O   0  0  0  0  0  0  0  0  0  0  0  0
    9.6495    8.6317   16.8332 N   0  0  0  0  0  0  0  0  0  0  0  0
    6.2934    8.6988   23.1988 O   0  0  0  0  0  0  0  0  0  0  0  0
    7.9806    8.6543   20.5437 C   0  0  0  0  0  0  0  0  0  0  0  0
   13.7270    5.7144   19.8610 O   0  0  0  0  0  0  0  0  0  0  0  0
    8.3351    5.5235   15.4478 C   0  0  0  0  0  0  0  0  0  0  0  0
    8.7700    7.8434   21.3915 C   0  0  0  0  0  0  0  0  0  0  0  0
   11.7856    6.8851   19.2401 C   0  0  0  0  0  0  0  0  0  0  0  0
   10.5281    7.4276   19.5649 C   0  0  0  0  0  0  0  0  0  0  0  0
   10.0256    7.2907   20.8484 C   0  0  0  0  0  0  0  0  0  0  0  0
    9.3113    5.3049   14.4911 C   0  0  0  0  0  0  0  0  0  0  0  0
    9.4607    7.5646   16.0139 C   0  0  0  0  0  0  0  0  0  0  0  0
   10.4192    7.3157   15.0955 C   0  0  0  0  0  0  0  0  0  0  0  0
   10.2489    6.4227   23.0218 N   0  0  0  0  0  0  0  0  0  0  0  0
    7.2472    8.0746   23.5050 C   0  0  0  0  0  0  0  0  0  0  0  0
    9.2051    6.9101   23.4604 C   0  0  0  0  0  0  0  0  0  0  0  0
   11.9646    6.0299   21.4251 C   0  0  0  0  0  0  0  0  0  0  0  0
  1  5  1  0
  1 13  1  0
  2 20  2  0
  2 28  1  0
  2 29  1  0
  3 19  4  0
  3 25  4  0
  4 23  4  0
  4 27  1  0
  4 30  4  0
  5 17  1  0
  6  8  1  0
  6 29  1  0
  7 24  4  0
  7 26  4  0
  8 28  1  0
  9 13  2  0
 10 18  1  0
 10 21  4  0
 10 30  4  0
 11 17  2  0
 12 18  1  0
 13 15  1  0
 14 24  1  0
 15 25  1  0
 16 28  2  0
 17 20  1  0
 19 24  4  0
 20 23  1  0
 21 22  4  0
 22 23  4  0
 25 26  4  0
 27 29  2  0
M  END
$$$$

 Created by Python create_sdf_string function

 30 33  0  0  0  0  0  0  0  0999 V2000
    8.3036    9.8571   18.4133 C   0  0  0  0  0  0  0  0  0  0  0  0
    8.3694    7.6612   22.6703 C   0  0  0  0  0  0  0  0  0  0  0  0
    8.4143    6.6863   16.2273 C   0  0  0  0  0  0  0  0  0  0  0  0
   10.7581    6.5674   21.7636 C   0  0  0  0  0  0  0  0  0  0  0  0
    8.4452    8.7960   19.2958 O   0  0  0  0  0  0  0  0  0  0  0  0
    8.7122    6.7842   24.8569 C   0  0  0  0  0  0  0  0  0  0  0  0
   10.3400    6.1726   14.3081 C   0  0  0  0  0  0  0  0  0  0  0  0
    7.4297    7.5873   24.8962 C   0  0  0  0  0  0  0  0  0  0  0  0
    8.1566   10.0536   16.0516 O   0  0  0  0  0  0  0  0  0  0  0  0
   12.4989    6.2074   20.1776 C   0  0  0  0  0  0  0  0  0  0  0  0
    6.9192    9.1053   20.9073 O   0  0  0  0  0  0  0  0  0  0  0  0
   14.3979    6.0729   18.7784 C   0  0  0  0  0  0  0  0  0  0  0  0
    8.6811    9.5354   16.9998 C   0  0  0  0  0  0  0  0  0  0  0  0
    9.2512    4.2713   13.7653 O   0  0  0  0  0  0  0  0  0  0  0  0
    9.6495    8.6317   16.8332 N   0  0  0  0  0  0  0  0  0  0  0  0
    6.2934    8.6988   23.1988 O   0  0  0  0  0  0  0  0  0  0  0  0
    7.9806    8.6543   20.5437 C   0  0  0  0  0  0  0  0  0  0  0  0
   13.7270    5.7144   19.8610 O   0  0  0  0  0  0  0  0  0  0  0  0
    8.3351    5.5235   15.4478 C   0  0  0  0  0  0  0  0  0  0  0  0
    8.7700    7.8434   21.3915 C   0  0  0  0  0  0  0  0  0  0  0  0
   11.7856    6.8851   19.2401 C   0  0  0  0  0  0  0  0  0  0  0  0
   10.5281    7.4276   19.5649 C   0  0  0  0  0  0  0  0  0  0  0  0
   10.0256    7.2907   20.8484 C   0  0  0  0  0  0  0  0  0  0  0  0
    9.3113    5.3049   14.4911 C   0  0  0  0  0  0  0  0  0  0  0  0
    9.4607    7.5646   16.0139 C   0  0  0  0  0  0  0  0  0  0  0  0
   10.4192    7.3157   15.0955 C   0  0  0  0  0  0  0  0  0  0  0  0
   10.2489    6.4227   23.0218 N   0  0  0  0  0  0  0  0  0  0  0  0
    7.2472    8.0746   23.5050 C   0  0  0  0  0  0  0  0  0  0  0  0
    9.2051    6.9101   23.4604 C   0  0  0  0  0  0  0  0  0  0  0  0
   11.9646    6.0299   21.4251 C   0  0  0  0  0  0  0  0  0  0  0  0
  1  5  1  0
  1 13  1  0
  2 20  2  0
  2 28  1  0
  2 29  1  0
  3 19  4  0
  3 25  4  0
  4 23  4  0
  4 27  1  0
  4 30  4  0
  5 17  1  0
  6  8  1  0
  6 29  1  0
  7 24  4  0
  7 26  4  0
  8 28  1  0
  9 13  2  0
 10 18  1  0
 10 21  4  0
 10 30  4  0
 11 17  2  0
 12 18  1  0
 13 15  1  0
 14 24  1  0
 15 25  1  0
 16 28  2  0
 17 20  1  0
 19 24  4  0
 20 23  1  0
 21 22  4  0
 22 23  4  0
 25 26  4  0
 27 29  2  0
M  END
$$$$

 Created by Python create_sdf_string function

 30 33  0  0  0  0  0  0  0  0999 V2000
    8.3036    9.8571   18.4133 C   0  0  0  0  0  0  0  0  0  0  0  0
    8.3694    7.6612   22.6703 C   0  0  0  0  0  0  0  0  0  0  0  0
    8.4143    6.6863   16.2273 C   0  0  0  0  0  0  0  0  0  0  0  0
   10.7581    6.5674   21.7636 C   0  0  0  0  0  0  0  0  0  0  0  0
    8.4452    8.7960   19.2958 O   0  0  0  0  0  0  0  0  0  0  0  0
    8.7122    6.7842   24.8569 C   0  0  0  0  0  0  0  0  0  0  0  0
   10.3400    6.1726   14.3081 C   0  0  0  0  0  0  0  0  0  0  0  0
    7.4297    7.5873   24.8962 C   0  0  0  0  0  0  0  0  0  0  0  0
    8.1566   10.0536   16.0516 O   0  0  0  0  0  0  0  0  0  0  0  0
   12.4989    6.2074   20.1776 C   0  0  0  0  0  0  0  0  0  0  0  0
    6.9192    9.1053   20.9073 O   0  0  0  0  0  0  0  0  0  0  0  0
   14.3979    6.0729   18.7784 C   0  0  0  0  0  0  0  0  0  0  0  0
    8.6811    9.5354   16.9998 C   0  0  0  0  0  0  0  0  0  0  0  0
    9.2512    4.2713   13.7653 O   0  0  0  0  0  0  0  0  0  0  0  0
    9.6495    8.6317   16.8332 N   0  0  0  0  0  0  0  0  0  0  0  0
    6.2934    8.6988   23.1988 O   0  0  0  0  0  0  0  0  0  0  0  0
    7.9806    8.6543   20.5437 C   0  0  0  0  0  0  0  0  0  0  0  0
   13.7270    5.7144   19.8610 O   0  0  0  0  0  0  0  0  0  0  0  0
    8.3351    5.5235   15.4478 C   0  0  0  0  0  0  0  0  0  0  0  0
    8.7700    7.8434   21.3915 C   0  0  0  0  0  0  0  0  0  0  0  0
   11.7856    6.8851   19.2401 C   0  0  0  0  0  0  0  0  0  0  0  0
   10.5281    7.4276   19.5649 C   0  0  0  0  0  0  0  0  0  0  0  0
   10.0256    7.2907   20.8484 C   0  0  0  0  0  0  0  0  0  0  0  0
    9.3113    5.3049   14.4911 C   0  0  0  0  0  0  0  0  0  0  0  0
    9.4607    7.5646   16.0139 C   0  0  0  0  0  0  0  0  0  0  0  0
   10.4192    7.3157   15.0955 C   0  0  0  0  0  0  0  0  0  0  0  0
   10.2489    6.4227   23.0218 N   0  0  0  0  0  0  0  0  0  0  0  0
    7.2472    8.0746   23.5050 C   0  0  0  0  0  0  0  0  0  0  0  0
    9.2051    6.9101   23.4604 C   0  0  0  0  0  0  0  0  0  0  0  0
   11.9646    6.0299   21.4251 C   0  0  0  0  0  0  0  0  0  0  0  0
  1  5  1  0
  1 13  1  0
  2 20  2  0
  2 28  1  0
  2 29  1  0
  3 19  4  0
  3 25  4  0
  4 23  4  0
  4 27  1  0
  4 30  4  0
  5 17  1  0
  6  8  1  0
  6 29  1  0
  7 24  4  0
  7 26  4  0
  8 28  1  0
  9 13  2  0
 10 18  1  0
 10 21  4  0
 10 30  4  0
 11 17  2  0
 12 18  1  0
 13 15  1  0
 14 24  1  0
 15 25  1  0
 16 28  2  0
 17 20  1  0
 19 24  4  0
 20 23  1  0
 21 22  4  0
 22 23  4  0
 25 26  4  0
 27 29  2  0
M  END
$$$$

 Created by Python create_sdf_string function

 30 33  0  0  0  0  0  0  0  0999 V2000
    8.3036    9.8571   18.4133 C   0  0  0  0  0  0  0  0  0  0  0  0
    8.3694    7.6612   22.6703 C   0  0  0  0  0  0  0  0  0  0  0  0
    8.4143    6.6863   16.2273 C   0  0  0  0  0  0  0  0  0  0  0  0
   10.7581    6.5674   21.7636 C   0  0  0  0  0  0  0  0  0  0  0  0
    8.4452    8.7960   19.2958 O   0  0  0  0  0  0  0  0  0  0  0  0
    8.7122    6.7842   24.8569 C   0  0  0  0  0  0  0  0  0  0  0  0
   10.3400    6.1726   14.3081 C   0  0  0  0  0  0  0  0  0  0  0  0
    7.4297    7.5873   24.8962 C   0  0  0  0  0  0  0  0  0  0  0  0
    8.1566   10.0536   16.0516 O   0  0  0  0  0  0  0  0  0  0  0  0
   12.4989    6.2074   20.1776 C   0  0  0  0  0  0  0  0  0  0  0  0
    6.9192    9.1053   20.9073 O   0  0  0  0  0  0  0  0  0  0  0  0
   14.3979    6.0729   18.7784 C   0  0  0  0  0  0  0  0  0  0  0  0
    8.6811    9.5354   16.9998 C   0  0  0  0  0  0  0  0  0  0  0  0
    9.2512    4.2713   13.7653 O   0  0  0  0  0  0  0  0  0  0  0  0
    9.6495    8.6317   16.8332 N   0  0  0  0  0  0  0  0  0  0  0  0
    6.2934    8.6988   23.1988 O   0  0  0  0  0  0  0  0  0  0  0  0
    7.9806    8.6543   20.5437 C   0  0  0  0  0  0  0  0  0  0  0  0
   13.7270    5.7144   19.8610 O   0  0  0  0  0  0  0  0  0  0  0  0
    8.3351    5.5235   15.4478 C   0  0  0  0  0  0  0  0  0  0  0  0
    8.7700    7.8434   21.3915 C   0  0  0  0  0  0  0  0  0  0  0  0
   11.7856    6.8851   19.2401 C   0  0  0  0  0  0  0  0  0  0  0  0
   10.5281    7.4276   19.5649 C   0  0  0  0  0  0  0  0  0  0  0  0
   10.0256    7.2907   20.8484 C   0  0  0  0  0  0  0  0  0  0  0  0
    9.3113    5.3049   14.4911 C   0  0  0  0  0  0  0  0  0  0  0  0
    9.4607    7.5646   16.0139 C   0  0  0  0  0  0  0  0  0  0  0  0
   10.4192    7.3157   15.0955 C   0  0  0  0  0  0  0  0  0  0  0  0
   10.2489    6.4227   23.0218 N   0  0  0  0  0  0  0  0  0  0  0  0
    7.2472    8.0746   23.5050 C   0  0  0  0  0  0  0  0  0  0  0  0
    9.2051    6.9101   23.4604 C   0  0  0  0  0  0  0  0  0  0  0  0
   11.9646    6.0299   21.4251 C   0  0  0  0  0  0  0  0  0  0  0  0
  1  5  1  0
  1 13  1  0
  2 20  2  0
  2 28  1  0
  2 29  1  0
  3 19  4  0
  3 25  4  0
  4 23  4  0
  4 27  1  0
  4 30  4  0
  5 17  1  0
  6  8  1  0
  6 29  1  0
  7 24  4  0
  7 26  4  0
  8 28  1  0
  9 13  2  0
 10 18  1  0
 10 21  4  0
 10 30  4  0
 11 17  2  0
 12 18  1  0
 13 15  1  0
 14 24  1  0
 15 25  1  0
 16 28  2  0
 17 20  1  0
 19 24  4  0
 20 23  1  0
 21 22  4  0
 22 23  4  0
 25 26  4  0
 27 29  2  0
M  END
$$$$

 Created by Python create_sdf_string function

 30 33  0  0  0  0  0  0  0  0999 V2000
    8.3036    9.8571   18.4133 C   0  0  0  0  0  0  0  0  0  0  0  0
    8.3694    7.6612   22.6703 C   0  0  0  0  0  0  0  0  0  0  0  0
    8.4143    6.6863   16.2273 C   0  0  0  0  0  0  0  0  0  0  0  0
   10.7581    6.5674   21.7636 C   0  0  0  0  0  0  0  0  0  0  0  0
    8.4452    8.7960   19.2958 O   0  0  0  0  0  0  0  0  0  0  0  0
    8.7122    6.7842   24.8569 C   0  0  0  0  0  0  0  0  0  0  0  0
   10.3400    6.1726   14.3081 C   0  0  0  0  0  0  0  0  0  0  0  0
    7.4297    7.5873   24.8962 C   0  0  0  0  0  0  0  0  0  0  0  0
    8.1566   10.0536   16.0516 O   0  0  0  0  0  0  0  0  0  0  0  0
   12.4989    6.2074   20.1776 C   0  0  0  0  0  0  0  0  0  0  0  0
    6.9192    9.1053   20.9073 O   0  0  0  0  0  0  0  0  0  0  0  0
   14.3979    6.0729   18.7784 C   0  0  0  0  0  0  0  0  0  0  0  0
    8.6811    9.5354   16.9998 C   0  0  0  0  0  0  0  0  0  0  0  0
    9.2512    4.2713   13.7653 O   0  0  0  0  0  0  0  0  0  0  0  0
    9.6495    8.6317   16.8332 N   0  0  0  0  0  0  0  0  0  0  0  0
    6.2934    8.6988   23.1988 O   0  0  0  0  0  0  0  0  0  0  0  0
    7.9806    8.6543   20.5437 C   0  0  0  0  0  0  0  0  0  0  0  0
   13.7270    5.7144   19.8610 O   0  0  0  0  0  0  0  0  0  0  0  0
    8.3351    5.5235   15.4478 C   0  0  0  0  0  0  0  0  0  0  0  0
    8.7700    7.8434   21.3915 C   0  0  0  0  0  0  0  0  0  0  0  0
   11.7856    6.8851   19.2401 C   0  0  0  0  0  0  0  0  0  0  0  0
   10.5281    7.4276   19.5649 C   0  0  0  0  0  0  0  0  0  0  0  0
   10.0256    7.2907   20.8484 C   0  0  0  0  0  0  0  0  0  0  0  0
    9.3113    5.3049   14.4911 C   0  0  0  0  0  0  0  0  0  0  0  0
    9.4607    7.5646   16.0139 C   0  0  0  0  0  0  0  0  0  0  0  0
   10.4192    7.3157   15.0955 C   0  0  0  0  0  0  0  0  0  0  0  0
   10.2489    6.4227   23.0218 N   0  0  0  0  0  0  0  0  0  0  0  0
    7.2472    8.0746   23.5050 C   0  0  0  0  0  0  0  0  0  0  0  0
    9.2051    6.9101   23.4604 C   0  0  0  0  0  0  0  0  0  0  0  0
   11.9646    6.0299   21.4251 C   0  0  0  0  0  0  0  0  0  0  0  0
  1  5  1  0
  1 13  1  0
  2 20  2  0
  2 28  1  0
  2 29  1  0
  3 19  4  0
  3 25  4  0
  4 23  4  0
  4 27  1  0
  4 30  4  0
  5 17  1  0
  6  8  1  0
  6 29  1  0
  7 24  4  0
  7 26  4  0
  8 28  1  0
  9 13  2  0
 10 18  1  0
 10 21  4  0
 10 30  4  0
 11 17  2  0
 12 18  1  0
 13 15  1  0
 14 24  1  0
 15 25  1  0
 16 28  2  0
 17 20  1  0
 19 24  4  0
 20 23  1  0
 21 22  4  0
 22 23  4  0
 25 26  4  0
 27 29  2  0
M  END
$$$$

 Created by Python create_sdf_string function

 30 33  0  0  0  0  0  0  0  0999 V2000
    8.3036    9.8571   18.4133 C   0  0  0  0  0  0  0  0  0  0  0  0
    8.3694    7.6612   22.6703 C   0  0  0  0  0  0  0  0  0  0  0  0
    8.4143    6.6863   16.2273 C   0  0  0  0  0  0  0  0  0  0  0  0
   10.7581    6.5674   21.7636 C   0  0  0  0  0  0  0  0  0  0  0  0
    8.4452    8.7960   19.2958 O   0  0  0  0  0  0  0  0  0  0  0  0
    8.7122    6.7842   24.8569 C   0  0  0  0  0  0  0  0  0  0  0  0
   10.3400    6.1726   14.3081 C   0  0  0  0  0  0  0  0  0  0  0  0
    7.4297    7.5873   24.8962 C   0  0  0  0  0  0  0  0  0  0  0  0
    8.1566   10.0536   16.0516 O   0  0  0  0  0  0  0  0  0  0  0  0
   12.4989    6.2074   20.1776 C   0  0  0  0  0  0  0  0  0  0  0  0
    6.9192    9.1053   20.9073 O   0  0  0  0  0  0  0  0  0  0  0  0
   14.3979    6.0729   18.7784 C   0  0  0  0  0  0  0  0  0  0  0  0
    8.6811    9.5354   16.9998 C   0  0  0  0  0  0  0  0  0  0  0  0
    9.2512    4.2713   13.7653 O   0  0  0  0  0  0  0  0  0  0  0  0
    9.6495    8.6317   16.8332 N   0  0  0  0  0  0  0  0  0  0  0  0
    6.2934    8.6988   23.1988 O   0  0  0  0  0  0  0  0  0  0  0  0
    7.9806    8.6543   20.5437 C   0  0  0  0  0  0  0  0  0  0  0  0
   13.7270    5.7144   19.8610 O   0  0  0  0  0  0  0  0  0  0  0  0
    8.3351    5.5235   15.4478 C   0  0  0  0  0  0  0  0  0  0  0  0
    8.7700    7.8434   21.3915 C   0  0  0  0  0  0  0  0  0  0  0  0
   11.7856    6.8851   19.2401 C   0  0  0  0  0  0  0  0  0  0  0  0
   10.5281    7.4276   19.5649 C   0  0  0  0  0  0  0  0  0  0  0  0
   10.0256    7.2907   20.8484 C   0  0  0  0  0  0  0  0  0  0  0  0
    9.3113    5.3049   14.4911 C   0  0  0  0  0  0  0  0  0  0  0  0
    9.4607    7.5646   16.0139 C   0  0  0  0  0  0  0  0  0  0  0  0
   10.4192    7.3157   15.0955 C   0  0  0  0  0  0  0  0  0  0  0  0
   10.2489    6.4227   23.0218 N   0  0  0  0  0  0  0  0  0  0  0  0
    7.2472    8.0746   23.5050 C   0  0  0  0  0  0  0  0  0  0  0  0
    9.2051    6.9101   23.4604 C   0  0  0  0  0  0  0  0  0  0  0  0
   11.9646    6.0299   21.4251 C   0  0  0  0  0  0  0  0  0  0  0  0
  1  5  1  0
  1 13  1  0
  2 20  2  0
  2 28  1  0
  2 29  1  0
  3 19  4  0
  3 25  4  0
  4 23  4  0
  4 27  1  0
  4 30  4  0
  5 17  1  0
  6  8  1  0
  6 29  1  0
  7 24  4  0
  7 26  4  0
  8 28  1  0
  9 13  2  0
 10 18  1  0
 10 21  4  0
 10 30  4  0
 11 17  2  0
 12 18  1  0
 13 15  1  0
 14 24  1  0
 15 25  1  0
 16 28  2  0
 17 20  1  0
 19 24  4  0
 20 23  1  0
 21 22  4  0
 22 23  4  0
 25 26  4  0
 27 29  2  0
M  END
$$$$

 Created by Python create_sdf_string function

 30 33  0  0  0  0  0  0  0  0999 V2000
    8.3036    9.8571   18.4133 C   0  0  0  0  0  0  0  0  0  0  0  0
    8.3694    7.6612   22.6703 C   0  0  0  0  0  0  0  0  0  0  0  0
    8.4143    6.6863   16.2273 C   0  0  0  0  0  0  0  0  0  0  0  0
   10.7581    6.5674   21.7636 C   0  0  0  0  0  0  0  0  0  0  0  0
    8.4452    8.7960   19.2958 O   0  0  0  0  0  0  0  0  0  0  0  0
    8.7122    6.7842   24.8569 C   0  0  0  0  0  0  0  0  0  0  0  0
   10.3400    6.1726   14.3081 C   0  0  0  0  0  0  0  0  0  0  0  0
    7.4297    7.5873   24.8962 C   0  0  0  0  0  0  0  0  0  0  0  0
    8.1566   10.0536   16.0516 O   0  0  0  0  0  0  0  0  0  0  0  0
   12.4989    6.2074   20.1776 C   0  0  0  0  0  0  0  0  0  0  0  0
    6.9192    9.1053   20.9073 O   0  0  0  0  0  0  0  0  0  0  0  0
   14.3979    6.0729   18.7784 C   0  0  0  0  0  0  0  0  0  0  0  0
    8.6811    9.5354   16.9998 C   0  0  0  0  0  0  0  0  0  0  0  0
    9.2512    4.2713   13.7653 O   0  0  0  0  0  0  0  0  0  0  0  0
    9.6495    8.6317   16.8332 N   0  0  0  0  0  0  0  0  0  0  0  0
    6.2934    8.6988   23.1988 O   0  0  0  0  0  0  0  0  0  0  0  0
    7.9806    8.6543   20.5437 C   0  0  0  0  0  0  0  0  0  0  0  0
   13.7270    5.7144   19.8610 O   0  0  0  0  0  0  0  0  0  0  0  0
    8.3351    5.5235   15.4478 C   0  0  0  0  0  0  0  0  0  0  0  0
    8.7700    7.8434   21.3915 C   0  0  0  0  0  0  0  0  0  0  0  0
   11.7856    6.8851   19.2401 C   0  0  0  0  0  0  0  0  0  0  0  0
   10.5281    7.4276   19.5649 C   0  0  0  0  0  0  0  0  0  0  0  0
   10.0256    7.2907   20.8484 C   0  0  0  0  0  0  0  0  0  0  0  0
    9.3113    5.3049   14.4911 C   0  0  0  0  0  0  0  0  0  0  0  0
    9.4607    7.5646   16.0139 C   0  0  0  0  0  0  0  0  0  0  0  0
   10.4192    7.3157   15.0955 C   0  0  0  0  0  0  0  0  0  0  0  0
   10.2489    6.4227   23.0218 N   0  0  0  0  0  0  0  0  0  0  0  0
    7.2472    8.0746   23.5050 C   0  0  0  0  0  0  0  0  0  0  0  0
    9.2051    6.9101   23.4604 C   0  0  0  0  0  0  0  0  0  0  0  0
   11.9646    6.0299   21.4251 C   0  0  0  0  0  0  0  0  0  0  0  0
  1  5  1  0
  1 13  1  0
  2 20  2  0
  2 28  1  0
  2 29  1  0
  3 19  4  0
  3 25  4  0
  4 23  4  0
  4 27  1  0
  4 30  4  0
  5 17  1  0
  6  8  1  0
  6 29  1  0
  7 24  4  0
  7 26  4  0
  8 28  1  0
  9 13  2  0
 10 18  1  0
 10 21  4  0
 10 30  4  0
 11 17  2  0
 12 18  1  0
 13 15  1  0
 14 24  1  0
 15 25  1  0
 16 28  2  0
 17 20  1  0
 19 24  4  0
 20 23  1  0
 21 22  4  0
 22 23  4  0
 25 26  4  0
 27 29  2  0
M  END
$$$$

 Created by Python create_sdf_string function

 30 33  0  0  0  0  0  0  0  0999 V2000
    8.3036    9.8571   18.4133 C   0  0  0  0  0  0  0  0  0  0  0  0
    8.3694    7.6612   22.6703 C   0  0  0  0  0  0  0  0  0  0  0  0
    8.4143    6.6863   16.2273 C   0  0  0  0  0  0  0  0  0  0  0  0
   10.7581    6.5674   21.7636 C   0  0  0  0  0  0  0  0  0  0  0  0
    8.4452    8.7960   19.2958 O   0  0  0  0  0  0  0  0  0  0  0  0
    8.7122    6.7842   24.8569 C   0  0  0  0  0  0  0  0  0  0  0  0
   10.3400    6.1726   14.3081 C   0  0  0  0  0  0  0  0  0  0  0  0
    7.4297    7.5873   24.8962 C   0  0  0  0  0  0  0  0  0  0  0  0
    8.1566   10.0536   16.0516 O   0  0  0  0  0  0  0  0  0  0  0  0
   12.4989    6.2074   20.1776 C   0  0  0  0  0  0  0  0  0  0  0  0
    6.9192    9.1053   20.9073 O   0  0  0  0  0  0  0  0  0  0  0  0
   14.3979    6.0729   18.7784 C   0  0  0  0  0  0  0  0  0  0  0  0
    8.6811    9.5354   16.9998 C   0  0  0  0  0  0  0  0  0  0  0  0
    9.2512    4.2713   13.7653 O   0  0  0  0  0  0  0  0  0  0  0  0
    9.6495    8.6317   16.8332 N   0  0  0  0  0  0  0  0  0  0  0  0
    6.2934    8.6988   23.1988 O   0  0  0  0  0  0  0  0  0  0  0  0
    7.9806    8.6543   20.5437 C   0  0  0  0  0  0  0  0  0  0  0  0
   13.7270    5.7144   19.8610 O   0  0  0  0  0  0  0  0  0  0  0  0
    8.3351    5.5235   15.4478 C   0  0  0  0  0  0  0  0  0  0  0  0
    8.7700    7.8434   21.3915 C   0  0  0  0  0  0  0  0  0  0  0  0
   11.7856    6.8851   19.2401 C   0  0  0  0  0  0  0  0  0  0  0  0
   10.5281    7.4276   19.5649 C   0  0  0  0  0  0  0  0  0  0  0  0
   10.0256    7.2907   20.8484 C   0  0  0  0  0  0  0  0  0  0  0  0
    9.3113    5.3049   14.4911 C   0  0  0  0  0  0  0  0  0  0  0  0
    9.4607    7.5646   16.0139 C   0  0  0  0  0  0  0  0  0  0  0  0
   10.4192    7.3157   15.0955 C   0  0  0  0  0  0  0  0  0  0  0  0
   10.2489    6.4227   23.0218 N   0  0  0  0  0  0  0  0  0  0  0  0
    7.2472    8.0746   23.5050 C   0  0  0  0  0  0  0  0  0  0  0  0
    9.2051    6.9101   23.4604 C   0  0  0  0  0  0  0  0  0  0  0  0
   11.9646    6.0299   21.4251 C   0  0  0  0  0  0  0  0  0  0  0  0
  1  5  1  0
  1 13  1  0
  2 20  2  0
  2 28  1  0
  2 29  1  0
  3 19  4  0
  3 25  4  0
  4 23  4  0
  4 27  1  0
  4 30  4  0
  5 17  1  0
  6  8  1  0
  6 29  1  0
  7 24  4  0
  7 26  4  0
  8 28  1  0
  9 13  2  0
 10 18  1  0
 10 21  4  0
 10 30  4  0
 11 17  2  0
 12 18  1  0
 13 15  1  0
 14 24  1  0
 15 25  1  0
 16 28  2  0
 17 20  1  0
 19 24  4  0
 20 23  1  0
 21 22  4  0
 22 23  4  0
 25 26  4  0
 27 29  2  0
M  END
$$$$

 Created by Python create_sdf_string function

 30 33  0  0  0  0  0  0  0  0999 V2000
    8.3036    9.8571   18.4133 C   0  0  0  0  0  0  0  0  0  0  0  0
    8.3694    7.6612   22.6703 C   0  0  0  0  0  0  0  0  0  0  0  0
    8.4143    6.6863   16.2273 C   0  0  0  0  0  0  0  0  0  0  0  0
   10.7581    6.5674   21.7636 C   0  0  0  0  0  0  0  0  0  0  0  0
    8.4452    8.7960   19.2958 O   0  0  0  0  0  0  0  0  0  0  0  0
    8.7122    6.7842   24.8569 C   0  0  0  0  0  0  0  0  0  0  0  0
   10.3400    6.1726   14.3081 C   0  0  0  0  0  0  0  0  0  0  0  0
    7.4297    7.5873   24.8962 C   0  0  0  0  0  0  0  0  0  0  0  0
    8.1566   10.0536   16.0516 O   0  0  0  0  0  0  0  0  0  0  0  0
   12.4989    6.2074   20.1776 C   0  0  0  0  0  0  0  0  0  0  0  0
    6.9192    9.1053   20.9073 O   0  0  0  0  0  0  0  0  0  0  0  0
   14.3979    6.0729   18.7784 C   0  0  0  0  0  0  0  0  0  0  0  0
    8.6811    9.5354   16.9998 C   0  0  0  0  0  0  0  0  0  0  0  0
    9.2512    4.2713   13.7653 O   0  0  0  0  0  0  0  0  0  0  0  0
    9.6495    8.6317   16.8332 N   0  0  0  0  0  0  0  0  0  0  0  0
    6.2934    8.6988   23.1988 O   0  0  0  0  0  0  0  0  0  0  0  0
    7.9806    8.6543   20.5437 C   0  0  0  0  0  0  0  0  0  0  0  0
   13.7270    5.7144   19.8610 O   0  0  0  0  0  0  0  0  0  0  0  0
    8.3351    5.5235   15.4478 C   0  0  0  0  0  0  0  0  0  0  0  0
    8.7700    7.8434   21.3915 C   0  0  0  0  0  0  0  0  0  0  0  0
   11.7856    6.8851   19.2401 C   0  0  0  0  0  0  0  0  0  0  0  0
   10.5281    7.4276   19.5649 C   0  0  0  0  0  0  0  0  0  0  0  0
   10.0256    7.2907   20.8484 C   0  0  0  0  0  0  0  0  0  0  0  0
    9.3113    5.3049   14.4911 C   0  0  0  0  0  0  0  0  0  0  0  0
    9.4607    7.5646   16.0139 C   0  0  0  0  0  0  0  0  0  0  0  0
   10.4192    7.3157   15.0955 C   0  0  0  0  0  0  0  0  0  0  0  0
   10.2489    6.4227   23.0218 N   0  0  0  0  0  0  0  0  0  0  0  0
    7.2472    8.0746   23.5050 C   0  0  0  0  0  0  0  0  0  0  0  0
    9.2051    6.9101   23.4604 C   0  0  0  0  0  0  0  0  0  0  0  0
   11.9646    6.0299   21.4251 C   0  0  0  0  0  0  0  0  0  0  0  0
  1  5  1  0
  1 13  1  0
  2 20  2  0
  2 28  1  0
  2 29  1  0
  3 19  4  0
  3 25  4  0
  4 23  4  0
  4 27  1  0
  4 30  4  0
  5 17  1  0
  6  8  1  0
  6 29  1  0
  7 24  4  0
  7 26  4  0
  8 28  1  0
  9 13  2  0
 10 18  1  0
 10 21  4  0
 10 30  4  0
 11 17  2  0
 12 18  1  0
 13 15  1  0
 14 24  1  0
 15 25  1  0
 16 28  2  0
 17 20  1  0
 19 24  4  0
 20 23  1  0
 21 22  4  0
 22 23  4  0
 25 26  4  0
 27 29  2  0
M  END
$$$$

 Created by Python create_sdf_string function

 30 33  0  0  0  0  0  0  0  0999 V2000
    8.3036    9.8571   18.4133 C   0  0  0  0  0  0  0  0  0  0  0  0
    8.3694    7.6612   22.6703 C   0  0  0  0  0  0  0  0  0  0  0  0
    8.4143    6.6863   16.2273 C   0  0  0  0  0  0  0  0  0  0  0  0
   10.7581    6.5674   21.7636 C   0  0  0  0  0  0  0  0  0  0  0  0
    8.4452    8.7960   19.2958 O   0  0  0  0  0  0  0  0  0  0  0  0
    8.7122    6.7842   24.8569 C   0  0  0  0  0  0  0  0  0  0  0  0
   10.3400    6.1726   14.3081 C   0  0  0  0  0  0  0  0  0  0  0  0
    7.4297    7.5873   24.8962 C   0  0  0  0  0  0  0  0  0  0  0  0
    8.1566   10.0536   16.0516 O   0  0  0  0  0  0  0  0  0  0  0  0
   12.4989    6.2074   20.1776 C   0  0  0  0  0  0  0  0  0  0  0  0
    6.9192    9.1053   20.9073 O   0  0  0  0  0  0  0  0  0  0  0  0
   14.3979    6.0729   18.7784 C   0  0  0  0  0  0  0  0  0  0  0  0
    8.6811    9.5354   16.9998 C   0  0  0  0  0  0  0  0  0  0  0  0
    9.2512    4.2713   13.7653 O   0  0  0  0  0  0  0  0  0  0  0  0
    9.6495    8.6317   16.8332 N   0  0  0  0  0  0  0  0  0  0  0  0
    6.2934    8.6988   23.1988 O   0  0  0  0  0  0  0  0  0  0  0  0
    7.9806    8.6543   20.5437 C   0  0  0  0  0  0  0  0  0  0  0  0
   13.7270    5.7144   19.8610 O   0  0  0  0  0  0  0  0  0  0  0  0
    8.3351    5.5235   15.4478 C   0  0  0  0  0  0  0  0  0  0  0  0
    8.7700    7.8434   21.3915 C   0  0  0  0  0  0  0  0  0  0  0  0
   11.7856    6.8851   19.2401 C   0  0  0  0  0  0  0  0  0  0  0  0
   10.5281    7.4276   19.5649 C   0  0  0  0  0  0  0  0  0  0  0  0
   10.0256    7.2907   20.8484 C   0  0  0  0  0  0  0  0  0  0  0  0
    9.3113    5.3049   14.4911 C   0  0  0  0  0  0  0  0  0  0  0  0
    9.4607    7.5646   16.0139 C   0  0  0  0  0  0  0  0  0  0  0  0
   10.4192    7.3157   15.0955 C   0  0  0  0  0  0  0  0  0  0  0  0
   10.2489    6.4227   23.0218 N   0  0  0  0  0  0  0  0  0  0  0  0
    7.2472    8.0746   23.5050 C   0  0  0  0  0  0  0  0  0  0  0  0
    9.2051    6.9101   23.4604 C   0  0  0  0  0  0  0  0  0  0  0  0
   11.9646    6.0299   21.4251 C   0  0  0  0  0  0  0  0  0  0  0  0
  1  5  1  0
  1 13  1  0
  2 20  2  0
  2 28  1  0
  2 29  1  0
  3 19  4  0
  3 25  4  0
  4 23  4  0
  4 27  1  0
  4 30  4  0
  5 17  1  0
  6  8  1  0
  6 29  1  0
  7 24  4  0
  7 26  4  0
  8 28  1  0
  9 13  2  0
 10 18  1  0
 10 21  4  0
 10 30  4  0
 11 17  2  0
 12 18  1  0
 13 15  1  0
 14 24  1  0
 15 25  1  0
 16 28  2  0
 17 20  1  0
 19 24  4  0
 20 23  1  0
 21 22  4  0
 22 23  4  0
 25 26  4  0
 27 29  2  0
M  END
$$$$

 Created by Python create_sdf_string function

 30 33  0  0  0  0  0  0  0  0999 V2000
    8.3036    9.8571   18.4133 C   0  0  0  0  0  0  0  0  0  0  0  0
    8.3694    7.6612   22.6703 C   0  0  0  0  0  0  0  0  0  0  0  0
    8.4143    6.6863   16.2273 C   0  0  0  0  0  0  0  0  0  0  0  0
   10.7581    6.5674   21.7636 C   0  0  0  0  0  0  0  0  0  0  0  0
    8.4452    8.7960   19.2958 O   0  0  0  0  0  0  0  0  0  0  0  0
    8.7122    6.7842   24.8569 C   0  0  0  0  0  0  0  0  0  0  0  0
   10.3400    6.1726   14.3081 C   0  0  0  0  0  0  0  0  0  0  0  0
    7.4297    7.5873   24.8962 C   0  0  0  0  0  0  0  0  0  0  0  0
    8.1566   10.0536   16.0516 O   0  0  0  0  0  0  0  0  0  0  0  0
   12.4989    6.2074   20.1776 C   0  0  0  0  0  0  0  0  0  0  0  0
    6.9192    9.1053   20.9073 O   0  0  0  0  0  0  0  0  0  0  0  0
   14.3979    6.0729   18.7784 C   0  0  0  0  0  0  0  0  0  0  0  0
    8.6811    9.5354   16.9998 C   0  0  0  0  0  0  0  0  0  0  0  0
    9.2512    4.2713   13.7653 O   0  0  0  0  0  0  0  0  0  0  0  0
    9.6495    8.6317   16.8332 N   0  0  0  0  0  0  0  0  0  0  0  0
    6.2934    8.6988   23.1988 O   0  0  0  0  0  0  0  0  0  0  0  0
    7.9806    8.6543   20.5437 C   0  0  0  0  0  0  0  0  0  0  0  0
   13.7270    5.7144   19.8610 O   0  0  0  0  0  0  0  0  0  0  0  0
    8.3351    5.5235   15.4478 C   0  0  0  0  0  0  0  0  0  0  0  0
    8.7700    7.8434   21.3915 C   0  0  0  0  0  0  0  0  0  0  0  0
   11.7856    6.8851   19.2401 C   0  0  0  0  0  0  0  0  0  0  0  0
   10.5281    7.4276   19.5649 C   0  0  0  0  0  0  0  0  0  0  0  0
   10.0256    7.2907   20.8484 C   0  0  0  0  0  0  0  0  0  0  0  0
    9.3113    5.3049   14.4911 C   0  0  0  0  0  0  0  0  0  0  0  0
    9.4607    7.5646   16.0139 C   0  0  0  0  0  0  0  0  0  0  0  0
   10.4192    7.3157   15.0955 C   0  0  0  0  0  0  0  0  0  0  0  0
   10.2489    6.4227   23.0218 N   0  0  0  0  0  0  0  0  0  0  0  0
    7.2472    8.0746   23.5050 C   0  0  0  0  0  0  0  0  0  0  0  0
    9.2051    6.9101   23.4604 C   0  0  0  0  0  0  0  0  0  0  0  0
   11.9646    6.0299   21.4251 C   0  0  0  0  0  0  0  0  0  0  0  0
  1  5  1  0
  1 13  1  0
  2 20  2  0
  2 28  1  0
  2 29  1  0
  3 19  4  0
  3 25  4  0
  4 23  4  0
  4 27  1  0
  4 30  4  0
  5 17  1  0
  6  8  1  0
  6 29  1  0
  7 24  4  0
  7 26  4  0
  8 28  1  0
  9 13  2  0
 10 18  1  0
 10 21  4  0
 10 30  4  0
 11 17  2  0
 12 18  1  0
 13 15  1  0
 14 24  1  0
 15 25  1  0
 16 28  2  0
 17 20  1  0
 19 24  4  0
 20 23  1  0
 21 22  4  0
 22 23  4  0
 25 26  4  0
 27 29  2  0
M  END
$$$$

 Created by Python create_sdf_string function

 30 33  0  0  0  0  0  0  0  0999 V2000
    8.3036    9.8571   18.4133 C   0  0  0  0  0  0  0  0  0  0  0  0
    8.3694    7.6612   22.6703 C   0  0  0  0  0  0  0  0  0  0  0  0
    8.4143    6.6863   16.2273 C   0  0  0  0  0  0  0  0  0  0  0  0
   10.7581    6.5674   21.7636 C   0  0  0  0  0  0  0  0  0  0  0  0
    8.4452    8.7960   19.2958 O   0  0  0  0  0  0  0  0  0  0  0  0
    8.7122    6.7842   24.8569 C   0  0  0  0  0  0  0  0  0  0  0  0
   10.3400    6.1726   14.3081 C   0  0  0  0  0  0  0  0  0  0  0  0
    7.4297    7.5873   24.8962 C   0  0  0  0  0  0  0  0  0  0  0  0
    8.1566   10.0536   16.0516 O   0  0  0  0  0  0  0  0  0  0  0  0
   12.4989    6.2074   20.1776 C   0  0  0  0  0  0  0  0  0  0  0  0
    6.9192    9.1053   20.9073 O   0  0  0  0  0  0  0  0  0  0  0  0
   14.3979    6.0729   18.7784 C   0  0  0  0  0  0  0  0  0  0  0  0
    8.6811    9.5354   16.9998 C   0  0  0  0  0  0  0  0  0  0  0  0
    9.2512    4.2713   13.7653 O   0  0  0  0  0  0  0  0  0  0  0  0
    9.6495    8.6317   16.8332 N   0  0  0  0  0  0  0  0  0  0  0  0
    6.2934    8.6988   23.1988 O   0  0  0  0  0  0  0  0  0  0  0  0
    7.9806    8.6543   20.5437 C   0  0  0  0  0  0  0  0  0  0  0  0
   13.7270    5.7144   19.8610 O   0  0  0  0  0  0  0  0  0  0  0  0
    8.3351    5.5235   15.4478 C   0  0  0  0  0  0  0  0  0  0  0  0
    8.7700    7.8434   21.3915 C   0  0  0  0  0  0  0  0  0  0  0  0
   11.7856    6.8851   19.2401 C   0  0  0  0  0  0  0  0  0  0  0  0
   10.5281    7.4276   19.5649 C   0  0  0  0  0  0  0  0  0  0  0  0
   10.0256    7.2907   20.8484 C   0  0  0  0  0  0  0  0  0  0  0  0
    9.3113    5.3049   14.4911 C   0  0  0  0  0  0  0  0  0  0  0  0
    9.4607    7.5646   16.0139 C   0  0  0  0  0  0  0  0  0  0  0  0
   10.4192    7.3157   15.0955 C   0  0  0  0  0  0  0  0  0  0  0  0
   10.2489    6.4227   23.0218 N   0  0  0  0  0  0  0  0  0  0  0  0
    7.2472    8.0746   23.5050 C   0  0  0  0  0  0  0  0  0  0  0  0
    9.2051    6.9101   23.4604 C   0  0  0  0  0  0  0  0  0  0  0  0
   11.9646    6.0299   21.4251 C   0  0  0  0  0  0  0  0  0  0  0  0
  1  5  1  0
  1 13  1  0
  2 20  2  0
  2 28  1  0
  2 29  1  0
  3 19  4  0
  3 25  4  0
  4 23  4  0
  4 27  1  0
  4 30  4  0
  5 17  1  0
  6  8  1  0
  6 29  1  0
  7 24  4  0
  7 26  4  0
  8 28  1  0
  9 13  2  0
 10 18  1  0
 10 21  4  0
 10 30  4  0
 11 17  2  0
 12 18  1  0
 13 15  1  0
 14 24  1  0
 15 25  1  0
 16 28  2  0
 17 20  1  0
 19 24  4  0
 20 23  1  0
 21 22  4  0
 22 23  4  0
 25 26  4  0
 27 29  2  0
M  END
$$$$

 Created by Python create_sdf_string function

 30 33  0  0  0  0  0  0  0  0999 V2000
    8.3036    9.8571   18.4133 C   0  0  0  0  0  0  0  0  0  0  0  0
    8.3694    7.6612   22.6703 C   0  0  0  0  0  0  0  0  0  0  0  0
    8.4143    6.6863   16.2273 C   0  0  0  0  0  0  0  0  0  0  0  0
   10.7581    6.5674   21.7636 C   0  0  0  0  0  0  0  0  0  0  0  0
    8.4452    8.7960   19.2958 O   0  0  0  0  0  0  0  0  0  0  0  0
    8.7122    6.7842   24.8569 C   0  0  0  0  0  0  0  0  0  0  0  0
   10.3400    6.1726   14.3081 C   0  0  0  0  0  0  0  0  0  0  0  0
    7.4297    7.5873   24.8962 C   0  0  0  0  0  0  0  0  0  0  0  0
    8.1566   10.0536   16.0516 O   0  0  0  0  0  0  0  0  0  0  0  0
   12.4989    6.2074   20.1776 C   0  0  0  0  0  0  0  0  0  0  0  0
    6.9192    9.1053   20.9073 O   0  0  0  0  0  0  0  0  0  0  0  0
   14.3979    6.0729   18.7784 C   0  0  0  0  0  0  0  0  0  0  0  0
    8.6811    9.5354   16.9998 C   0  0  0  0  0  0  0  0  0  0  0  0
    9.2512    4.2713   13.7653 O   0  0  0  0  0  0  0  0  0  0  0  0
    9.6495    8.6317   16.8332 N   0  0  0  0  0  0  0  0  0  0  0  0
    6.2934    8.6988   23.1988 O   0  0  0  0  0  0  0  0  0  0  0  0
    7.9806    8.6543   20.5437 C   0  0  0  0  0  0  0  0  0  0  0  0
   13.7270    5.7144   19.8610 O   0  0  0  0  0  0  0  0  0  0  0  0
    8.3351    5.5235   15.4478 C   0  0  0  0  0  0  0  0  0  0  0  0
    8.7700    7.8434   21.3915 C   0  0  0  0  0  0  0  0  0  0  0  0
   11.7856    6.8851   19.2401 C   0  0  0  0  0  0  0  0  0  0  0  0
   10.5281    7.4276   19.5649 C   0  0  0  0  0  0  0  0  0  0  0  0
   10.0256    7.2907   20.8484 C   0  0  0  0  0  0  0  0  0  0  0  0
    9.3113    5.3049   14.4911 C   0  0  0  0  0  0  0  0  0  0  0  0
    9.4607    7.5646   16.0139 C   0  0  0  0  0  0  0  0  0  0  0  0
   10.4192    7.3157   15.0955 C   0  0  0  0  0  0  0  0  0  0  0  0
   10.2489    6.4227   23.0218 N   0  0  0  0  0  0  0  0  0  0  0  0
    7.2472    8.0746   23.5050 C   0  0  0  0  0  0  0  0  0  0  0  0
    9.2051    6.9101   23.4604 C   0  0  0  0  0  0  0  0  0  0  0  0
   11.9646    6.0299   21.4251 C   0  0  0  0  0  0  0  0  0  0  0  0
  1  5  1  0
  1 13  1  0
  2 20  2  0
  2 28  1  0
  2 29  1  0
  3 19  4  0
  3 25  4  0
  4 23  4  0
  4 27  1  0
  4 30  4  0
  5 17  1  0
  6  8  1  0
  6 29  1  0
  7 24  4  0
  7 26  4  0
  8 28  1  0
  9 13  2  0
 10 18  1  0
 10 21  4  0
 10 30  4  0
 11 17  2  0
 12 18  1  0
 13 15  1  0
 14 24  1  0
 15 25  1  0
 16 28  2  0
 17 20  1  0
 19 24  4  0
 20 23  1  0
 21 22  4  0
 22 23  4  0
 25 26  4  0
 27 29  2  0
M  END
$$$$

 Created by Python create_sdf_string function

 30 33  0  0  0  0  0  0  0  0999 V2000
    8.3036    9.8571   18.4133 C   0  0  0  0  0  0  0  0  0  0  0  0
    8.3694    7.6612   22.6703 C   0  0  0  0  0  0  0  0  0  0  0  0
    8.4143    6.6863   16.2273 C   0  0  0  0  0  0  0  0  0  0  0  0
   10.7581    6.5674   21.7636 C   0  0  0  0  0  0  0  0  0  0  0  0
    8.4452    8.7960   19.2958 O   0  0  0  0  0  0  0  0  0  0  0  0
    8.7122    6.7842   24.8569 C   0  0  0  0  0  0  0  0  0  0  0  0
   10.3400    6.1726   14.3081 C   0  0  0  0  0  0  0  0  0  0  0  0
    7.4297    7.5873   24.8962 C   0  0  0  0  0  0  0  0  0  0  0  0
    8.1566   10.0536   16.0516 O   0  0  0  0  0  0  0  0  0  0  0  0
   12.4989    6.2074   20.1776 C   0  0  0  0  0  0  0  0  0  0  0  0
    6.9192    9.1053   20.9073 O   0  0  0  0  0  0  0  0  0  0  0  0
   14.3979    6.0729   18.7784 C   0  0  0  0  0  0  0  0  0  0  0  0
    8.6811    9.5354   16.9998 C   0  0  0  0  0  0  0  0  0  0  0  0
    9.2512    4.2713   13.7653 O   0  0  0  0  0  0  0  0  0  0  0  0
    9.6495    8.6317   16.8332 N   0  0  0  0  0  0  0  0  0  0  0  0
    6.2934    8.6988   23.1988 O   0  0  0  0  0  0  0  0  0  0  0  0
    7.9806    8.6543   20.5437 C   0  0  0  0  0  0  0  0  0  0  0  0
   13.7270    5.7144   19.8610 O   0  0  0  0  0  0  0  0  0  0  0  0
    8.3351    5.5235   15.4478 C   0  0  0  0  0  0  0  0  0  0  0  0
    8.7700    7.8434   21.3915 C   0  0  0  0  0  0  0  0  0  0  0  0
   11.7856    6.8851   19.2401 C   0  0  0  0  0  0  0  0  0  0  0  0
   10.5281    7.4276   19.5649 C   0  0  0  0  0  0  0  0  0  0  0  0
   10.0256    7.2907   20.8484 C   0  0  0  0  0  0  0  0  0  0  0  0
    9.3113    5.3049   14.4911 C   0  0  0  0  0  0  0  0  0  0  0  0
    9.4607    7.5646   16.0139 C   0  0  0  0  0  0  0  0  0  0  0  0
   10.4192    7.3157   15.0955 C   0  0  0  0  0  0  0  0  0  0  0  0
   10.2489    6.4227   23.0218 N   0  0  0  0  0  0  0  0  0  0  0  0
    7.2472    8.0746   23.5050 C   0  0  0  0  0  0  0  0  0  0  0  0
    9.2051    6.9101   23.4604 C   0  0  0  0  0  0  0  0  0  0  0  0
   11.9646    6.0299   21.4251 C   0  0  0  0  0  0  0  0  0  0  0  0
  1  5  1  0
  1 13  1  0
  2 20  2  0
  2 28  1  0
  2 29  1  0
  3 19  4  0
  3 25  4  0
  4 23  4  0
  4 27  1  0
  4 30  4  0
  5 17  1  0
  6  8  1  0
  6 29  1  0
  7 24  4  0
  7 26  4  0
  8 28  1  0
  9 13  2  0
 10 18  1  0
 10 21  4  0
 10 30  4  0
 11 17  2  0
 12 18  1  0
 13 15  1  0
 14 24  1  0
 15 25  1  0
 16 28  2  0
 17 20  1  0
 19 24  4  0
 20 23  1  0
 21 22  4  0
 22 23  4  0
 25 26  4  0
 27 29  2  0
M  END
$$$$

 Created by Python create_sdf_string function

 30 33  0  0  0  0  0  0  0  0999 V2000
    8.3036    9.8571   18.4133 C   0  0  0  0  0  0  0  0  0  0  0  0
    8.3694    7.6612   22.6703 C   0  0  0  0  0  0  0  0  0  0  0  0
    8.4143    6.6863   16.2273 C   0  0  0  0  0  0  0  0  0  0  0  0
   10.7581    6.5674   21.7636 C   0  0  0  0  0  0  0  0  0  0  0  0
    8.4452    8.7960   19.2958 O   0  0  0  0  0  0  0  0  0  0  0  0
    8.7122    6.7842   24.8569 C   0  0  0  0  0  0  0  0  0  0  0  0
   10.3400    6.1726   14.3081 C   0  0  0  0  0  0  0  0  0  0  0  0
    7.4297    7.5873   24.8962 C   0  0  0  0  0  0  0  0  0  0  0  0
    8.1566   10.0536   16.0516 O   0  0  0  0  0  0  0  0  0  0  0  0
   12.4989    6.2074   20.1776 C   0  0  0  0  0  0  0  0  0  0  0  0
    6.9192    9.1053   20.9073 O   0  0  0  0  0  0  0  0  0  0  0  0
   14.3979    6.0729   18.7784 C   0  0  0  0  0  0  0  0  0  0  0  0
    8.6811    9.5354   16.9998 C   0  0  0  0  0  0  0  0  0  0  0  0
    9.2512    4.2713   13.7653 O   0  0  0  0  0  0  0  0  0  0  0  0
    9.6495    8.6317   16.8332 N   0  0  0  0  0  0  0  0  0  0  0  0
    6.2934    8.6988   23.1988 O   0  0  0  0  0  0  0  0  0  0  0  0
    7.9806    8.6543   20.5437 C   0  0  0  0  0  0  0  0  0  0  0  0
   13.7270    5.7144   19.8610 O   0  0  0  0  0  0  0  0  0  0  0  0
    8.3351    5.5235   15.4478 C   0  0  0  0  0  0  0  0  0  0  0  0
    8.7700    7.8434   21.3915 C   0  0  0  0  0  0  0  0  0  0  0  0
   11.7856    6.8851   19.2401 C   0  0  0  0  0  0  0  0  0  0  0  0
   10.5281    7.4276   19.5649 C   0  0  0  0  0  0  0  0  0  0  0  0
   10.0256    7.2907   20.8484 C   0  0  0  0  0  0  0  0  0  0  0  0
    9.3113    5.3049   14.4911 C   0  0  0  0  0  0  0  0  0  0  0  0
    9.4607    7.5646   16.0139 C   0  0  0  0  0  0  0  0  0  0  0  0
   10.4192    7.3157   15.0955 C   0  0  0  0  0  0  0  0  0  0  0  0
   10.2489    6.4227   23.0218 N   0  0  0  0  0  0  0  0  0  0  0  0
    7.2472    8.0746   23.5050 C   0  0  0  0  0  0  0  0  0  0  0  0
    9.2051    6.9101   23.4604 C   0  0  0  0  0  0  0  0  0  0  0  0
   11.9646    6.0299   21.4251 C   0  0  0  0  0  0  0  0  0  0  0  0
  1  5  1  0
  1 13  1  0
  2 20  2  0
  2 28  1  0
  2 29  1  0
  3 19  4  0
  3 25  4  0
  4 23  4  0
  4 27  1  0
  4 30  4  0
  5 17  1  0
  6  8  1  0
  6 29  1  0
  7 24  4  0
  7 26  4  0
  8 28  1  0
  9 13  2  0
 10 18  1  0
 10 21  4  0
 10 30  4  0
 11 17  2  0
 12 18  1  0
 13 15  1  0
 14 24  1  0
 15 25  1  0
 16 28  2  0
 17 20  1  0
 19 24  4  0
 20 23  1  0
 21 22  4  0
 22 23  4  0
 25 26  4  0
 27 29  2  0
M  END
$$$$

 Created by Python create_sdf_string function

 30 33  0  0  0  0  0  0  0  0999 V2000
    8.3036    9.8571   18.4133 C   0  0  0  0  0  0  0  0  0  0  0  0
    8.3694    7.6612   22.6703 C   0  0  0  0  0  0  0  0  0  0  0  0
    8.4143    6.6863   16.2273 C   0  0  0  0  0  0  0  0  0  0  0  0
   10.7581    6.5674   21.7636 C   0  0  0  0  0  0  0  0  0  0  0  0
    8.4452    8.7960   19.2958 O   0  0  0  0  0  0  0  0  0  0  0  0
    8.7122    6.7842   24.8569 C   0  0  0  0  0  0  0  0  0  0  0  0
   10.3400    6.1726   14.3081 C   0  0  0  0  0  0  0  0  0  0  0  0
    7.4297    7.5873   24.8962 C   0  0  0  0  0  0  0  0  0  0  0  0
    8.1566   10.0536   16.0516 O   0  0  0  0  0  0  0  0  0  0  0  0
   12.4989    6.2074   20.1776 C   0  0  0  0  0  0  0  0  0  0  0  0
    6.9192    9.1053   20.9073 O   0  0  0  0  0  0  0  0  0  0  0  0
   14.3979    6.0729   18.7784 C   0  0  0  0  0  0  0  0  0  0  0  0
    8.6811    9.5354   16.9998 C   0  0  0  0  0  0  0  0  0  0  0  0
    9.2512    4.2713   13.7653 O   0  0  0  0  0  0  0  0  0  0  0  0
    9.6495    8.6317   16.8332 N   0  0  0  0  0  0  0  0  0  0  0  0
    6.2934    8.6988   23.1988 O   0  0  0  0  0  0  0  0  0  0  0  0
    7.9806    8.6543   20.5437 C   0  0  0  0  0  0  0  0  0  0  0  0
   13.7270    5.7144   19.8610 O   0  0  0  0  0  0  0  0  0  0  0  0
    8.3351    5.5235   15.4478 C   0  0  0  0  0  0  0  0  0  0  0  0
    8.7700    7.8434   21.3915 C   0  0  0  0  0  0  0  0  0  0  0  0
   11.7856    6.8851   19.2401 C   0  0  0  0  0  0  0  0  0  0  0  0
   10.5281    7.4276   19.5649 C   0  0  0  0  0  0  0  0  0  0  0  0
   10.0256    7.2907   20.8484 C   0  0  0  0  0  0  0  0  0  0  0  0
    9.3113    5.3049   14.4911 C   0  0  0  0  0  0  0  0  0  0  0  0
    9.4607    7.5646   16.0139 C   0  0  0  0  0  0  0  0  0  0  0  0
   10.4192    7.3157   15.0955 C   0  0  0  0  0  0  0  0  0  0  0  0
   10.2489    6.4227   23.0218 N   0  0  0  0  0  0  0  0  0  0  0  0
    7.2472    8.0746   23.5050 C   0  0  0  0  0  0  0  0  0  0  0  0
    9.2051    6.9101   23.4604 C   0  0  0  0  0  0  0  0  0  0  0  0
   11.9646    6.0299   21.4251 C   0  0  0  0  0  0  0  0  0  0  0  0
  1  5  1  0
  1 13  1  0
  2 20  2  0
  2 28  1  0
  2 29  1  0
  3 19  4  0
  3 25  4  0
  4 23  4  0
  4 27  1  0
  4 30  4  0
  5 17  1  0
  6  8  1  0
  6 29  1  0
  7 24  4  0
  7 26  4  0
  8 28  1  0
  9 13  2  0
 10 18  1  0
 10 21  4  0
 10 30  4  0
 11 17  2  0
 12 18  1  0
 13 15  1  0
 14 24  1  0
 15 25  1  0
 16 28  2  0
 17 20  1  0
 19 24  4  0
 20 23  1  0
 21 22  4  0
 22 23  4  0
 25 26  4  0
 27 29  2  0
M  END
$$$$

 Created by Python create_sdf_string function

 30 33  0  0  0  0  0  0  0  0999 V2000
    8.3036    9.8571   18.4133 C   0  0  0  0  0  0  0  0  0  0  0  0
    8.3694    7.6612   22.6703 C   0  0  0  0  0  0  0  0  0  0  0  0
    8.4143    6.6863   16.2273 C   0  0  0  0  0  0  0  0  0  0  0  0
   10.7581    6.5674   21.7636 C   0  0  0  0  0  0  0  0  0  0  0  0
    8.4452    8.7960   19.2958 O   0  0  0  0  0  0  0  0  0  0  0  0
    8.7122    6.7842   24.8569 C   0  0  0  0  0  0  0  0  0  0  0  0
   10.3400    6.1726   14.3081 C   0  0  0  0  0  0  0  0  0  0  0  0
    7.4297    7.5873   24.8962 C   0  0  0  0  0  0  0  0  0  0  0  0
    8.1566   10.0536   16.0516 O   0  0  0  0  0  0  0  0  0  0  0  0
   12.4989    6.2074   20.1776 C   0  0  0  0  0  0  0  0  0  0  0  0
    6.9192    9.1053   20.9073 O   0  0  0  0  0  0  0  0  0  0  0  0
   14.3979    6.0729   18.7784 C   0  0  0  0  0  0  0  0  0  0  0  0
    8.6811    9.5354   16.9998 C   0  0  0  0  0  0  0  0  0  0  0  0
    9.2512    4.2713   13.7653 O   0  0  0  0  0  0  0  0  0  0  0  0
    9.6495    8.6317   16.8332 N   0  0  0  0  0  0  0  0  0  0  0  0
    6.2934    8.6988   23.1988 O   0  0  0  0  0  0  0  0  0  0  0  0
    7.9806    8.6543   20.5437 C   0  0  0  0  0  0  0  0  0  0  0  0
   13.7270    5.7144   19.8610 O   0  0  0  0  0  0  0  0  0  0  0  0
    8.3351    5.5235   15.4478 C   0  0  0  0  0  0  0  0  0  0  0  0
    8.7700    7.8434   21.3915 C   0  0  0  0  0  0  0  0  0  0  0  0
   11.7856    6.8851   19.2401 C   0  0  0  0  0  0  0  0  0  0  0  0
   10.5281    7.4276   19.5649 C   0  0  0  0  0  0  0  0  0  0  0  0
   10.0256    7.2907   20.8484 C   0  0  0  0  0  0  0  0  0  0  0  0
    9.3113    5.3049   14.4911 C   0  0  0  0  0  0  0  0  0  0  0  0
    9.4607    7.5646   16.0139 C   0  0  0  0  0  0  0  0  0  0  0  0
   10.4192    7.3157   15.0955 C   0  0  0  0  0  0  0  0  0  0  0  0
   10.2489    6.4227   23.0218 N   0  0  0  0  0  0  0  0  0  0  0  0
    7.2472    8.0746   23.5050 C   0  0  0  0  0  0  0  0  0  0  0  0
    9.2051    6.9101   23.4604 C   0  0  0  0  0  0  0  0  0  0  0  0
   11.9646    6.0299   21.4251 C   0  0  0  0  0  0  0  0  0  0  0  0
  1  5  1  0
  1 13  1  0
  2 20  2  0
  2 28  1  0
  2 29  1  0
  3 19  4  0
  3 25  4  0
  4 23  4  0
  4 27  1  0
  4 30  4  0
  5 17  1  0
  6  8  1  0
  6 29  1  0
  7 24  4  0
  7 26  4  0
  8 28  1  0
  9 13  2  0
 10 18  1  0
 10 21  4  0
 10 30  4  0
 11 17  2  0
 12 18  1  0
 13 15  1  0
 14 24  1  0
 15 25  1  0
 16 28  2  0
 17 20  1  0
 19 24  4  0
 20 23  1  0
 21 22  4  0
 22 23  4  0
 25 26  4  0
 27 29  2  0
M  END
$$$$

 Created by Python create_sdf_string function

 30 33  0  0  0  0  0  0  0  0999 V2000
    8.3036    9.8571   18.4133 C   0  0  0  0  0  0  0  0  0  0  0  0
    8.3694    7.6612   22.6703 C   0  0  0  0  0  0  0  0  0  0  0  0
    8.4143    6.6863   16.2273 C   0  0  0  0  0  0  0  0  0  0  0  0
   10.7581    6.5674   21.7636 C   0  0  0  0  0  0  0  0  0  0  0  0
    8.4452    8.7960   19.2958 O   0  0  0  0  0  0  0  0  0  0  0  0
    8.7122    6.7842   24.8569 C   0  0  0  0  0  0  0  0  0  0  0  0
   10.3400    6.1726   14.3081 C   0  0  0  0  0  0  0  0  0  0  0  0
    7.4297    7.5873   24.8962 C   0  0  0  0  0  0  0  0  0  0  0  0
    8.1566   10.0536   16.0516 O   0  0  0  0  0  0  0  0  0  0  0  0
   12.4989    6.2074   20.1776 C   0  0  0  0  0  0  0  0  0  0  0  0
    6.9192    9.1053   20.9073 O   0  0  0  0  0  0  0  0  0  0  0  0
   14.3979    6.0729   18.7784 C   0  0  0  0  0  0  0  0  0  0  0  0
    8.6811    9.5354   16.9998 C   0  0  0  0  0  0  0  0  0  0  0  0
    9.2512    4.2713   13.7653 O   0  0  0  0  0  0  0  0  0  0  0  0
    9.6495    8.6317   16.8332 N   0  0  0  0  0  0  0  0  0  0  0  0
    6.2934    8.6988   23.1988 O   0  0  0  0  0  0  0  0  0  0  0  0
    7.9806    8.6543   20.5437 C   0  0  0  0  0  0  0  0  0  0  0  0
   13.7270    5.7144   19.8610 O   0  0  0  0  0  0  0  0  0  0  0  0
    8.3351    5.5235   15.4478 C   0  0  0  0  0  0  0  0  0  0  0  0
    8.7700    7.8434   21.3915 C   0  0  0  0  0  0  0  0  0  0  0  0
   11.7856    6.8851   19.2401 C   0  0  0  0  0  0  0  0  0  0  0  0
   10.5281    7.4276   19.5649 C   0  0  0  0  0  0  0  0  0  0  0  0
   10.0256    7.2907   20.8484 C   0  0  0  0  0  0  0  0  0  0  0  0
    9.3113    5.3049   14.4911 C   0  0  0  0  0  0  0  0  0  0  0  0
    9.4607    7.5646   16.0139 C   0  0  0  0  0  0  0  0  0  0  0  0
   10.4192    7.3157   15.0955 C   0  0  0  0  0  0  0  0  0  0  0  0
   10.2489    6.4227   23.0218 N   0  0  0  0  0  0  0  0  0  0  0  0
    7.2472    8.0746   23.5050 C   0  0  0  0  0  0  0  0  0  0  0  0
    9.2051    6.9101   23.4604 C   0  0  0  0  0  0  0  0  0  0  0  0
   11.9646    6.0299   21.4251 C   0  0  0  0  0  0  0  0  0  0  0  0
  1  5  1  0
  1 13  1  0
  2 20  2  0
  2 28  1  0
  2 29  1  0
  3 19  4  0
  3 25  4  0
  4 23  4  0
  4 27  1  0
  4 30  4  0
  5 17  1  0
  6  8  1  0
  6 29  1  0
  7 24  4  0
  7 26  4  0
  8 28  1  0
  9 13  2  0
 10 18  1  0
 10 21  4  0
 10 30  4  0
 11 17  2  0
 12 18  1  0
 13 15  1  0
 14 24  1  0
 15 25  1  0
 16 28  2  0
 17 20  1  0
 19 24  4  0
 20 23  1  0
 21 22  4  0
 22 23  4  0
 25 26  4  0
 27 29  2  0
M  END
$$$$

 Created by Python create_sdf_string function

 30 33  0  0  0  0  0  0  0  0999 V2000
    8.3036    9.8571   18.4133 C   0  0  0  0  0  0  0  0  0  0  0  0
    8.3694    7.6612   22.6703 C   0  0  0  0  0  0  0  0  0  0  0  0
    8.4143    6.6863   16.2273 C   0  0  0  0  0  0  0  0  0  0  0  0
   10.7581    6.5674   21.7636 C   0  0  0  0  0  0  0  0  0  0  0  0
    8.4452    8.7960   19.2958 O   0  0  0  0  0  0  0  0  0  0  0  0
    8.7122    6.7842   24.8569 C   0  0  0  0  0  0  0  0  0  0  0  0
   10.3400    6.1726   14.3081 C   0  0  0  0  0  0  0  0  0  0  0  0
    7.4297    7.5873   24.8962 C   0  0  0  0  0  0  0  0  0  0  0  0
    8.1566   10.0536   16.0516 O   0  0  0  0  0  0  0  0  0  0  0  0
   12.4989    6.2074   20.1776 C   0  0  0  0  0  0  0  0  0  0  0  0
    6.9192    9.1053   20.9073 O   0  0  0  0  0  0  0  0  0  0  0  0
   14.3979    6.0729   18.7784 C   0  0  0  0  0  0  0  0  0  0  0  0
    8.6811    9.5354   16.9998 C   0  0  0  0  0  0  0  0  0  0  0  0
    9.2512    4.2713   13.7653 O   0  0  0  0  0  0  0  0  0  0  0  0
    9.6495    8.6317   16.8332 N   0  0  0  0  0  0  0  0  0  0  0  0
    6.2934    8.6988   23.1988 O   0  0  0  0  0  0  0  0  0  0  0  0
    7.9806    8.6543   20.5437 C   0  0  0  0  0  0  0  0  0  0  0  0
   13.7270    5.7144   19.8610 O   0  0  0  0  0  0  0  0  0  0  0  0
    8.3351    5.5235   15.4478 C   0  0  0  0  0  0  0  0  0  0  0  0
    8.7700    7.8434   21.3915 C   0  0  0  0  0  0  0  0  0  0  0  0
   11.7856    6.8851   19.2401 C   0  0  0  0  0  0  0  0  0  0  0  0
   10.5281    7.4276   19.5649 C   0  0  0  0  0  0  0  0  0  0  0  0
   10.0256    7.2907   20.8484 C   0  0  0  0  0  0  0  0  0  0  0  0
    9.3113    5.3049   14.4911 C   0  0  0  0  0  0  0  0  0  0  0  0
    9.4607    7.5646   16.0139 C   0  0  0  0  0  0  0  0  0  0  0  0
   10.4192    7.3157   15.0955 C   0  0  0  0  0  0  0  0  0  0  0  0
   10.2489    6.4227   23.0218 N   0  0  0  0  0  0  0  0  0  0  0  0
    7.2472    8.0746   23.5050 C   0  0  0  0  0  0  0  0  0  0  0  0
    9.2051    6.9101   23.4604 C   0  0  0  0  0  0  0  0  0  0  0  0
   11.9646    6.0299   21.4251 C   0  0  0  0  0  0  0  0  0  0  0  0
  1  5  1  0
  1 13  1  0
  2 20  2  0
  2 28  1  0
  2 29  1  0
  3 19  4  0
  3 25  4  0
  4 23  4  0
  4 27  1  0
  4 30  4  0
  5 17  1  0
  6  8  1  0
  6 29  1  0
  7 24  4  0
  7 26  4  0
  8 28  1  0
  9 13  2  0
 10 18  1  0
 10 21  4  0
 10 30  4  0
 11 17  2  0
 12 18  1  0
 13 15  1  0
 14 24  1  0
 15 25  1  0
 16 28  2  0
 17 20  1  0
 19 24  4  0
 20 23  1  0
 21 22  4  0
 22 23  4  0
 25 26  4  0
 27 29  2  0
M  END
$$$$

 Created by Python create_sdf_string function

 30 33  0  0  0  0  0  0  0  0999 V2000
    8.3036    9.8571   18.4133 C   0  0  0  0  0  0  0  0  0  0  0  0
    8.3694    7.6612   22.6703 C   0  0  0  0  0  0  0  0  0  0  0  0
    8.4143    6.6863   16.2273 C   0  0  0  0  0  0  0  0  0  0  0  0
   10.7581    6.5674   21.7636 C   0  0  0  0  0  0  0  0  0  0  0  0
    8.4452    8.7960   19.2958 O   0  0  0  0  0  0  0  0  0  0  0  0
    8.7122    6.7842   24.8569 C   0  0  0  0  0  0  0  0  0  0  0  0
   10.3400    6.1726   14.3081 C   0  0  0  0  0  0  0  0  0  0  0  0
    7.4297    7.5873   24.8962 C   0  0  0  0  0  0  0  0  0  0  0  0
    8.1566   10.0536   16.0516 O   0  0  0  0  0  0  0  0  0  0  0  0
   12.4989    6.2074   20.1776 C   0  0  0  0  0  0  0  0  0  0  0  0
    6.9192    9.1053   20.9073 O   0  0  0  0  0  0  0  0  0  0  0  0
   14.3979    6.0729   18.7784 C   0  0  0  0  0  0  0  0  0  0  0  0
    8.6811    9.5354   16.9998 C   0  0  0  0  0  0  0  0  0  0  0  0
    9.2512    4.2713   13.7653 O   0  0  0  0  0  0  0  0  0  0  0  0
    9.6495    8.6317   16.8332 N   0  0  0  0  0  0  0  0  0  0  0  0
    6.2934    8.6988   23.1988 O   0  0  0  0  0  0  0  0  0  0  0  0
    7.9806    8.6543   20.5437 C   0  0  0  0  0  0  0  0  0  0  0  0
   13.7270    5.7144   19.8610 O   0  0  0  0  0  0  0  0  0  0  0  0
    8.3351    5.5235   15.4478 C   0  0  0  0  0  0  0  0  0  0  0  0
    8.7700    7.8434   21.3915 C   0  0  0  0  0  0  0  0  0  0  0  0
   11.7856    6.8851   19.2401 C   0  0  0  0  0  0  0  0  0  0  0  0
   10.5281    7.4276   19.5649 C   0  0  0  0  0  0  0  0  0  0  0  0
   10.0256    7.2907   20.8484 C   0  0  0  0  0  0  0  0  0  0  0  0
    9.3113    5.3049   14.4911 C   0  0  0  0  0  0  0  0  0  0  0  0
    9.4607    7.5646   16.0139 C   0  0  0  0  0  0  0  0  0  0  0  0
   10.4192    7.3157   15.0955 C   0  0  0  0  0  0  0  0  0  0  0  0
   10.2489    6.4227   23.0218 N   0  0  0  0  0  0  0  0  0  0  0  0
    7.2472    8.0746   23.5050 C   0  0  0  0  0  0  0  0  0  0  0  0
    9.2051    6.9101   23.4604 C   0  0  0  0  0  0  0  0  0  0  0  0
   11.9646    6.0299   21.4251 C   0  0  0  0  0  0  0  0  0  0  0  0
  1  5  1  0
  1 13  1  0
  2 20  2  0
  2 28  1  0
  2 29  1  0
  3 19  4  0
  3 25  4  0
  4 23  4  0
  4 27  1  0
  4 30  4  0
  5 17  1  0
  6  8  1  0
  6 29  1  0
  7 24  4  0
  7 26  4  0
  8 28  1  0
  9 13  2  0
 10 18  1  0
 10 21  4  0
 10 30  4  0
 11 17  2  0
 12 18  1  0
 13 15  1  0
 14 24  1  0
 15 25  1  0
 16 28  2  0
 17 20  1  0
 19 24  4  0
 20 23  1  0
 21 22  4  0
 22 23  4  0
 25 26  4  0
 27 29  2  0
M  END
$$$$

 Created by Python create_sdf_string function

 30 33  0  0  0  0  0  0  0  0999 V2000
    8.3036    9.8571   18.4133 C   0  0  0  0  0  0  0  0  0  0  0  0
    8.3694    7.6612   22.6703 C   0  0  0  0  0  0  0  0  0  0  0  0
    8.4143    6.6863   16.2273 C   0  0  0  0  0  0  0  0  0  0  0  0
   10.7581    6.5674   21.7636 C   0  0  0  0  0  0  0  0  0  0  0  0
    8.4452    8.7960   19.2958 O   0  0  0  0  0  0  0  0  0  0  0  0
    8.7122    6.7842   24.8569 C   0  0  0  0  0  0  0  0  0  0  0  0
   10.3400    6.1726   14.3081 C   0  0  0  0  0  0  0  0  0  0  0  0
    7.4297    7.5873   24.8962 C   0  0  0  0  0  0  0  0  0  0  0  0
    8.1566   10.0536   16.0516 O   0  0  0  0  0  0  0  0  0  0  0  0
   12.4989    6.2074   20.1776 C   0  0  0  0  0  0  0  0  0  0  0  0
    6.9192    9.1053   20.9073 O   0  0  0  0  0  0  0  0  0  0  0  0
   14.3979    6.0729   18.7784 C   0  0  0  0  0  0  0  0  0  0  0  0
    8.6811    9.5354   16.9998 C   0  0  0  0  0  0  0  0  0  0  0  0
    9.2512    4.2713   13.7653 O   0  0  0  0  0  0  0  0  0  0  0  0
    9.6495    8.6317   16.8332 N   0  0  0  0  0  0  0  0  0  0  0  0
    6.2934    8.6988   23.1988 O   0  0  0  0  0  0  0  0  0  0  0  0
    7.9806    8.6543   20.5437 C   0  0  0  0  0  0  0  0  0  0  0  0
   13.7270    5.7144   19.8610 O   0  0  0  0  0  0  0  0  0  0  0  0
    8.3351    5.5235   15.4478 C   0  0  0  0  0  0  0  0  0  0  0  0
    8.7700    7.8434   21.3915 C   0  0  0  0  0  0  0  0  0  0  0  0
   11.7856    6.8851   19.2401 C   0  0  0  0  0  0  0  0  0  0  0  0
   10.5281    7.4276   19.5649 C   0  0  0  0  0  0  0  0  0  0  0  0
   10.0256    7.2907   20.8484 C   0  0  0  0  0  0  0  0  0  0  0  0
    9.3113    5.3049   14.4911 C   0  0  0  0  0  0  0  0  0  0  0  0
    9.4607    7.5646   16.0139 C   0  0  0  0  0  0  0  0  0  0  0  0
   10.4192    7.3157   15.0955 C   0  0  0  0  0  0  0  0  0  0  0  0
   10.2489    6.4227   23.0218 N   0  0  0  0  0  0  0  0  0  0  0  0
    7.2472    8.0746   23.5050 C   0  0  0  0  0  0  0  0  0  0  0  0
    9.2051    6.9101   23.4604 C   0  0  0  0  0  0  0  0  0  0  0  0
   11.9646    6.0299   21.4251 C   0  0  0  0  0  0  0  0  0  0  0  0
  1  5  1  0
  1 13  1  0
  2 20  2  0
  2 28  1  0
  2 29  1  0
  3 19  4  0
  3 25  4  0
  4 23  4  0
  4 27  1  0
  4 30  4  0
  5 17  1  0
  6  8  1  0
  6 29  1  0
  7 24  4  0
  7 26  4  0
  8 28  1  0
  9 13  2  0
 10 18  1  0
 10 21  4  0
 10 30  4  0
 11 17  2  0
 12 18  1  0
 13 15  1  0
 14 24  1  0
 15 25  1  0
 16 28  2  0
 17 20  1  0
 19 24  4  0
 20 23  1  0
 21 22  4  0
 22 23  4  0
 25 26  4  0
 27 29  2  0
M  END
$$$$

 Created by Python create_sdf_string function

 30 33  0  0  0  0  0  0  0  0999 V2000
    8.3036    9.8571   18.4133 C   0  0  0  0  0  0  0  0  0  0  0  0
    8.3694    7.6612   22.6703 C   0  0  0  0  0  0  0  0  0  0  0  0
    8.4143    6.6863   16.2273 C   0  0  0  0  0  0  0  0  0  0  0  0
   10.7581    6.5674   21.7636 C   0  0  0  0  0  0  0  0  0  0  0  0
    8.4452    8.7960   19.2958 O   0  0  0  0  0  0  0  0  0  0  0  0
    8.7122    6.7842   24.8569 C   0  0  0  0  0  0  0  0  0  0  0  0
   10.3400    6.1726   14.3081 C   0  0  0  0  0  0  0  0  0  0  0  0
    7.4297    7.5873   24.8962 C   0  0  0  0  0  0  0  0  0  0  0  0
    8.1566   10.0536   16.0516 O   0  0  0  0  0  0  0  0  0  0  0  0
   12.4989    6.2074   20.1776 C   0  0  0  0  0  0  0  0  0  0  0  0
    6.9192    9.1053   20.9073 O   0  0  0  0  0  0  0  0  0  0  0  0
   14.3979    6.0729   18.7784 C   0  0  0  0  0  0  0  0  0  0  0  0
    8.6811    9.5354   16.9998 C   0  0  0  0  0  0  0  0  0  0  0  0
    9.2512    4.2713   13.7653 O   0  0  0  0  0  0  0  0  0  0  0  0
    9.6495    8.6317   16.8332 N   0  0  0  0  0  0  0  0  0  0  0  0
    6.2934    8.6988   23.1988 O   0  0  0  0  0  0  0  0  0  0  0  0
    7.9806    8.6543   20.5437 C   0  0  0  0  0  0  0  0  0  0  0  0
   13.7270    5.7144   19.8610 O   0  0  0  0  0  0  0  0  0  0  0  0
    8.3351    5.5235   15.4478 C   0  0  0  0  0  0  0  0  0  0  0  0
    8.7700    7.8434   21.3915 C   0  0  0  0  0  0  0  0  0  0  0  0
   11.7856    6.8851   19.2401 C   0  0  0  0  0  0  0  0  0  0  0  0
   10.5281    7.4276   19.5649 C   0  0  0  0  0  0  0  0  0  0  0  0
   10.0256    7.2907   20.8484 C   0  0  0  0  0  0  0  0  0  0  0  0
    9.3113    5.3049   14.4911 C   0  0  0  0  0  0  0  0  0  0  0  0
    9.4607    7.5646   16.0139 C   0  0  0  0  0  0  0  0  0  0  0  0
   10.4192    7.3157   15.0955 C   0  0  0  0  0  0  0  0  0  0  0  0
   10.2489    6.4227   23.0218 N   0  0  0  0  0  0  0  0  0  0  0  0
    7.2472    8.0746   23.5050 C   0  0  0  0  0  0  0  0  0  0  0  0
    9.2051    6.9101   23.4604 C   0  0  0  0  0  0  0  0  0  0  0  0
   11.9646    6.0299   21.4251 C   0  0  0  0  0  0  0  0  0  0  0  0
  1  5  1  0
  1 13  1  0
  2 20  2  0
  2 28  1  0
  2 29  1  0
  3 19  4  0
  3 25  4  0
  4 23  4  0
  4 27  1  0
  4 30  4  0
  5 17  1  0
  6  8  1  0
  6 29  1  0
  7 24  4  0
  7 26  4  0
  8 28  1  0
  9 13  2  0
 10 18  1  0
 10 21  4  0
 10 30  4  0
 11 17  2  0
 12 18  1  0
 13 15  1  0
 14 24  1  0
 15 25  1  0
 16 28  2  0
 17 20  1  0
 19 24  4  0
 20 23  1  0
 21 22  4  0
 22 23  4  0
 25 26  4  0
 27 29  2  0
M  END
$$$$

 Created by Python create_sdf_string function

 30 33  0  0  0  0  0  0  0  0999 V2000
    8.3036    9.8571   18.4133 C   0  0  0  0  0  0  0  0  0  0  0  0
    8.3694    7.6612   22.6703 C   0  0  0  0  0  0  0  0  0  0  0  0
    8.4143    6.6863   16.2273 C   0  0  0  0  0  0  0  0  0  0  0  0
   10.7581    6.5674   21.7636 C   0  0  0  0  0  0  0  0  0  0  0  0
    8.4452    8.7960   19.2958 O   0  0  0  0  0  0  0  0  0  0  0  0
    8.7122    6.7842   24.8569 C   0  0  0  0  0  0  0  0  0  0  0  0
   10.3400    6.1726   14.3081 C   0  0  0  0  0  0  0  0  0  0  0  0
    7.4297    7.5873   24.8962 C   0  0  0  0  0  0  0  0  0  0  0  0
    8.1566   10.0536   16.0516 O   0  0  0  0  0  0  0  0  0  0  0  0
   12.4989    6.2074   20.1776 C   0  0  0  0  0  0  0  0  0  0  0  0
    6.9192    9.1053   20.9073 O   0  0  0  0  0  0  0  0  0  0  0  0
   14.3979    6.0729   18.7784 C   0  0  0  0  0  0  0  0  0  0  0  0
    8.6811    9.5354   16.9998 C   0  0  0  0  0  0  0  0  0  0  0  0
    9.2512    4.2713   13.7653 O   0  0  0  0  0  0  0  0  0  0  0  0
    9.6495    8.6317   16.8332 N   0  0  0  0  0  0  0  0  0  0  0  0
    6.2934    8.6988   23.1988 O   0  0  0  0  0  0  0  0  0  0  0  0
    7.9806    8.6543   20.5437 C   0  0  0  0  0  0  0  0  0  0  0  0
   13.7270    5.7144   19.8610 O   0  0  0  0  0  0  0  0  0  0  0  0
    8.3351    5.5235   15.4478 C   0  0  0  0  0  0  0  0  0  0  0  0
    8.7700    7.8434   21.3915 C   0  0  0  0  0  0  0  0  0  0  0  0
   11.7856    6.8851   19.2401 C   0  0  0  0  0  0  0  0  0  0  0  0
   10.5281    7.4276   19.5649 C   0  0  0  0  0  0  0  0  0  0  0  0
   10.0256    7.2907   20.8484 C   0  0  0  0  0  0  0  0  0  0  0  0
    9.3113    5.3049   14.4911 C   0  0  0  0  0  0  0  0  0  0  0  0
    9.4607    7.5646   16.0139 C   0  0  0  0  0  0  0  0  0  0  0  0
   10.4192    7.3157   15.0955 C   0  0  0  0  0  0  0  0  0  0  0  0
   10.2489    6.4227   23.0218 N   0  0  0  0  0  0  0  0  0  0  0  0
    7.2472    8.0746   23.5050 C   0  0  0  0  0  0  0  0  0  0  0  0
    9.2051    6.9101   23.4604 C   0  0  0  0  0  0  0  0  0  0  0  0
   11.9646    6.0299   21.4251 C   0  0  0  0  0  0  0  0  0  0  0  0
  1  5  1  0
  1 13  1  0
  2 20  2  0
  2 28  1  0
  2 29  1  0
  3 19  4  0
  3 25  4  0
  4 23  4  0
  4 27  1  0
  4 30  4  0
  5 17  1  0
  6  8  1  0
  6 29  1  0
  7 24  4  0
  7 26  4  0
  8 28  1  0
  9 13  2  0
 10 18  1  0
 10 21  4  0
 10 30  4  0
 11 17  2  0
 12 18  1  0
 13 15  1  0
 14 24  1  0
 15 25  1  0
 16 28  2  0
 17 20  1  0
 19 24  4  0
 20 23  1  0
 21 22  4  0
 22 23  4  0
 25 26  4  0
 27 29  2  0
M  END
$$$$

 Created by Python create_sdf_string function

 30 33  0  0  0  0  0  0  0  0999 V2000
    8.3036    9.8571   18.4133 C   0  0  0  0  0  0  0  0  0  0  0  0
    8.3694    7.6612   22.6703 C   0  0  0  0  0  0  0  0  0  0  0  0
    8.4143    6.6863   16.2273 C   0  0  0  0  0  0  0  0  0  0  0  0
   10.7581    6.5674   21.7636 C   0  0  0  0  0  0  0  0  0  0  0  0
    8.4452    8.7960   19.2958 O   0  0  0  0  0  0  0  0  0  0  0  0
    8.7122    6.7842   24.8569 C   0  0  0  0  0  0  0  0  0  0  0  0
   10.3400    6.1726   14.3081 C   0  0  0  0  0  0  0  0  0  0  0  0
    7.4297    7.5873   24.8962 C   0  0  0  0  0  0  0  0  0  0  0  0
    8.1566   10.0536   16.0516 O   0  0  0  0  0  0  0  0  0  0  0  0
   12.4989    6.2074   20.1776 C   0  0  0  0  0  0  0  0  0  0  0  0
    6.9192    9.1053   20.9073 O   0  0  0  0  0  0  0  0  0  0  0  0
   14.3979    6.0729   18.7784 C   0  0  0  0  0  0  0  0  0  0  0  0
    8.6811    9.5354   16.9998 C   0  0  0  0  0  0  0  0  0  0  0  0
    9.2512    4.2713   13.7653 O   0  0  0  0  0  0  0  0  0  0  0  0
    9.6495    8.6317   16.8332 N   0  0  0  0  0  0  0  0  0  0  0  0
    6.2934    8.6988   23.1988 O   0  0  0  0  0  0  0  0  0  0  0  0
    7.9806    8.6543   20.5437 C   0  0  0  0  0  0  0  0  0  0  0  0
   13.7270    5.7144   19.8610 O   0  0  0  0  0  0  0  0  0  0  0  0
    8.3351    5.5235   15.4478 C   0  0  0  0  0  0  0  0  0  0  0  0
    8.7700    7.8434   21.3915 C   0  0  0  0  0  0  0  0  0  0  0  0
   11.7856    6.8851   19.2401 C   0  0  0  0  0  0  0  0  0  0  0  0
   10.5281    7.4276   19.5649 C   0  0  0  0  0  0  0  0  0  0  0  0
   10.0256    7.2907   20.8484 C   0  0  0  0  0  0  0  0  0  0  0  0
    9.3113    5.3049   14.4911 C   0  0  0  0  0  0  0  0  0  0  0  0
    9.4607    7.5646   16.0139 C   0  0  0  0  0  0  0  0  0  0  0  0
   10.4192    7.3157   15.0955 C   0  0  0  0  0  0  0  0  0  0  0  0
   10.2489    6.4227   23.0218 N   0  0  0  0  0  0  0  0  0  0  0  0
    7.2472    8.0746   23.5050 C   0  0  0  0  0  0  0  0  0  0  0  0
    9.2051    6.9101   23.4604 C   0  0  0  0  0  0  0  0  0  0  0  0
   11.9646    6.0299   21.4251 C   0  0  0  0  0  0  0  0  0  0  0  0
  1  5  1  0
  1 13  1  0
  2 20  2  0
  2 28  1  0
  2 29  1  0
  3 19  4  0
  3 25  4  0
  4 23  4  0
  4 27  1  0
  4 30  4  0
  5 17  1  0
  6  8  1  0
  6 29  1  0
  7 24  4  0
  7 26  4  0
  8 28  1  0
  9 13  2  0
 10 18  1  0
 10 21  4  0
 10 30  4  0
 11 17  2  0
 12 18  1  0
 13 15  1  0
 14 24  1  0
 15 25  1  0
 16 28  2  0
 17 20  1  0
 19 24  4  0
 20 23  1  0
 21 22  4  0
 22 23  4  0
 25 26  4  0
 27 29  2  0
M  END
$$$$

 Created by Python create_sdf_string function

 30 33  0  0  0  0  0  0  0  0999 V2000
    8.3036    9.8571   18.4133 C   0  0  0  0  0  0  0  0  0  0  0  0
    8.3694    7.6612   22.6703 C   0  0  0  0  0  0  0  0  0  0  0  0
    8.4143    6.6863   16.2273 C   0  0  0  0  0  0  0  0  0  0  0  0
   10.7581    6.5674   21.7636 C   0  0  0  0  0  0  0  0  0  0  0  0
    8.4452    8.7960   19.2958 O   0  0  0  0  0  0  0  0  0  0  0  0
    8.7122    6.7842   24.8569 C   0  0  0  0  0  0  0  0  0  0  0  0
   10.3400    6.1726   14.3081 C   0  0  0  0  0  0  0  0  0  0  0  0
    7.4297    7.5873   24.8962 C   0  0  0  0  0  0  0  0  0  0  0  0
    8.1566   10.0536   16.0516 O   0  0  0  0  0  0  0  0  0  0  0  0
   12.4989    6.2074   20.1776 C   0  0  0  0  0  0  0  0  0  0  0  0
    6.9192    9.1053   20.9073 O   0  0  0  0  0  0  0  0  0  0  0  0
   14.3979    6.0729   18.7784 C   0  0  0  0  0  0  0  0  0  0  0  0
    8.6811    9.5354   16.9998 C   0  0  0  0  0  0  0  0  0  0  0  0
    9.2512    4.2713   13.7653 O   0  0  0  0  0  0  0  0  0  0  0  0
    9.6495    8.6317   16.8332 N   0  0  0  0  0  0  0  0  0  0  0  0
    6.2934    8.6988   23.1988 O   0  0  0  0  0  0  0  0  0  0  0  0
    7.9806    8.6543   20.5437 C   0  0  0  0  0  0  0  0  0  0  0  0
   13.7270    5.7144   19.8610 O   0  0  0  0  0  0  0  0  0  0  0  0
    8.3351    5.5235   15.4478 C   0  0  0  0  0  0  0  0  0  0  0  0
    8.7700    7.8434   21.3915 C   0  0  0  0  0  0  0  0  0  0  0  0
   11.7856    6.8851   19.2401 C   0  0  0  0  0  0  0  0  0  0  0  0
   10.5281    7.4276   19.5649 C   0  0  0  0  0  0  0  0  0  0  0  0
   10.0256    7.2907   20.8484 C   0  0  0  0  0  0  0  0  0  0  0  0
    9.3113    5.3049   14.4911 C   0  0  0  0  0  0  0  0  0  0  0  0
    9.4607    7.5646   16.0139 C   0  0  0  0  0  0  0  0  0  0  0  0
   10.4192    7.3157   15.0955 C   0  0  0  0  0  0  0  0  0  0  0  0
   10.2489    6.4227   23.0218 N   0  0  0  0  0  0  0  0  0  0  0  0
    7.2472    8.0746   23.5050 C   0  0  0  0  0  0  0  0  0  0  0  0
    9.2051    6.9101   23.4604 C   0  0  0  0  0  0  0  0  0  0  0  0
   11.9646    6.0299   21.4251 C   0  0  0  0  0  0  0  0  0  0  0  0
  1  5  1  0
  1 13  1  0
  2 20  2  0
  2 28  1  0
  2 29  1  0
  3 19  4  0
  3 25  4  0
  4 23  4  0
  4 27  1  0
  4 30  4  0
  5 17  1  0
  6  8  1  0
  6 29  1  0
  7 24  4  0
  7 26  4  0
  8 28  1  0
  9 13  2  0
 10 18  1  0
 10 21  4  0
 10 30  4  0
 11 17  2  0
 12 18  1  0
 13 15  1  0
 14 24  1  0
 15 25  1  0
 16 28  2  0
 17 20  1  0
 19 24  4  0
 20 23  1  0
 21 22  4  0
 22 23  4  0
 25 26  4  0
 27 29  2  0
M  END
$$$$

 Created by Python create_sdf_string function

 30 33  0  0  0  0  0  0  0  0999 V2000
    8.3036    9.8571   18.4133 C   0  0  0  0  0  0  0  0  0  0  0  0
    8.3694    7.6612   22.6703 C   0  0  0  0  0  0  0  0  0  0  0  0
    8.4143    6.6863   16.2273 C   0  0  0  0  0  0  0  0  0  0  0  0
   10.7581    6.5674   21.7636 C   0  0  0  0  0  0  0  0  0  0  0  0
    8.4452    8.7960   19.2958 O   0  0  0  0  0  0  0  0  0  0  0  0
    8.7122    6.7842   24.8569 C   0  0  0  0  0  0  0  0  0  0  0  0
   10.3400    6.1726   14.3081 C   0  0  0  0  0  0  0  0  0  0  0  0
    7.4297    7.5873   24.8962 C   0  0  0  0  0  0  0  0  0  0  0  0
    8.1566   10.0536   16.0516 O   0  0  0  0  0  0  0  0  0  0  0  0
   12.4989    6.2074   20.1776 C   0  0  0  0  0  0  0  0  0  0  0  0
    6.9192    9.1053   20.9073 O   0  0  0  0  0  0  0  0  0  0  0  0
   14.3979    6.0729   18.7784 C   0  0  0  0  0  0  0  0  0  0  0  0
    8.6811    9.5354   16.9998 C   0  0  0  0  0  0  0  0  0  0  0  0
    9.2512    4.2713   13.7653 O   0  0  0  0  0  0  0  0  0  0  0  0
    9.6495    8.6317   16.8332 N   0  0  0  0  0  0  0  0  0  0  0  0
    6.2934    8.6988   23.1988 O   0  0  0  0  0  0  0  0  0  0  0  0
    7.9806    8.6543   20.5437 C   0  0  0  0  0  0  0  0  0  0  0  0
   13.7270    5.7144   19.8610 O   0  0  0  0  0  0  0  0  0  0  0  0
    8.3351    5.5235   15.4478 C   0  0  0  0  0  0  0  0  0  0  0  0
    8.7700    7.8434   21.3915 C   0  0  0  0  0  0  0  0  0  0  0  0
   11.7856    6.8851   19.2401 C   0  0  0  0  0  0  0  0  0  0  0  0
   10.5281    7.4276   19.5649 C   0  0  0  0  0  0  0  0  0  0  0  0
   10.0256    7.2907   20.8484 C   0  0  0  0  0  0  0  0  0  0  0  0
    9.3113    5.3049   14.4911 C   0  0  0  0  0  0  0  0  0  0  0  0
    9.4607    7.5646   16.0139 C   0  0  0  0  0  0  0  0  0  0  0  0
   10.4192    7.3157   15.0955 C   0  0  0  0  0  0  0  0  0  0  0  0
   10.2489    6.4227   23.0218 N   0  0  0  0  0  0  0  0  0  0  0  0
    7.2472    8.0746   23.5050 C   0  0  0  0  0  0  0  0  0  0  0  0
    9.2051    6.9101   23.4604 C   0  0  0  0  0  0  0  0  0  0  0  0
   11.9646    6.0299   21.4251 C   0  0  0  0  0  0  0  0  0  0  0  0
  1  5  1  0
  1 13  1  0
  2 20  2  0
  2 28  1  0
  2 29  1  0
  3 19  4  0
  3 25  4  0
  4 23  4  0
  4 27  1  0
  4 30  4  0
  5 17  1  0
  6  8  1  0
  6 29  1  0
  7 24  4  0
  7 26  4  0
  8 28  1  0
  9 13  2  0
 10 18  1  0
 10 21  4  0
 10 30  4  0
 11 17  2  0
 12 18  1  0
 13 15  1  0
 14 24  1  0
 15 25  1  0
 16 28  2  0
 17 20  1  0
 19 24  4  0
 20 23  1  0
 21 22  4  0
 22 23  4  0
 25 26  4  0
 27 29  2  0
M  END
$$$$

 Created by Python create_sdf_string function

 30 33  0  0  0  0  0  0  0  0999 V2000
    8.3036    9.8571   18.4133 C   0  0  0  0  0  0  0  0  0  0  0  0
    8.3694    7.6612   22.6703 C   0  0  0  0  0  0  0  0  0  0  0  0
    8.4143    6.6863   16.2273 C   0  0  0  0  0  0  0  0  0  0  0  0
   10.7581    6.5674   21.7636 C   0  0  0  0  0  0  0  0  0  0  0  0
    8.4452    8.7960   19.2958 O   0  0  0  0  0  0  0  0  0  0  0  0
    8.7122    6.7842   24.8569 C   0  0  0  0  0  0  0  0  0  0  0  0
   10.3400    6.1726   14.3081 C   0  0  0  0  0  0  0  0  0  0  0  0
    7.4297    7.5873   24.8962 C   0  0  0  0  0  0  0  0  0  0  0  0
    8.1566   10.0536   16.0516 O   0  0  0  0  0  0  0  0  0  0  0  0
   12.4989    6.2074   20.1776 C   0  0  0  0  0  0  0  0  0  0  0  0
    6.9192    9.1053   20.9073 O   0  0  0  0  0  0  0  0  0  0  0  0
   14.3979    6.0729   18.7784 C   0  0  0  0  0  0  0  0  0  0  0  0
    8.6811    9.5354   16.9998 C   0  0  0  0  0  0  0  0  0  0  0  0
    9.2512    4.2713   13.7653 O   0  0  0  0  0  0  0  0  0  0  0  0
    9.6495    8.6317   16.8332 N   0  0  0  0  0  0  0  0  0  0  0  0
    6.2934    8.6988   23.1988 O   0  0  0  0  0  0  0  0  0  0  0  0
    7.9806    8.6543   20.5437 C   0  0  0  0  0  0  0  0  0  0  0  0
   13.7270    5.7144   19.8610 O   0  0  0  0  0  0  0  0  0  0  0  0
    8.3351    5.5235   15.4478 C   0  0  0  0  0  0  0  0  0  0  0  0
    8.7700    7.8434   21.3915 C   0  0  0  0  0  0  0  0  0  0  0  0
   11.7856    6.8851   19.2401 C   0  0  0  0  0  0  0  0  0  0  0  0
   10.5281    7.4276   19.5649 C   0  0  0  0  0  0  0  0  0  0  0  0
   10.0256    7.2907   20.8484 C   0  0  0  0  0  0  0  0  0  0  0  0
    9.3113    5.3049   14.4911 C   0  0  0  0  0  0  0  0  0  0  0  0
    9.4607    7.5646   16.0139 C   0  0  0  0  0  0  0  0  0  0  0  0
   10.4192    7.3157   15.0955 C   0  0  0  0  0  0  0  0  0  0  0  0
   10.2489    6.4227   23.0218 N   0  0  0  0  0  0  0  0  0  0  0  0
    7.2472    8.0746   23.5050 C   0  0  0  0  0  0  0  0  0  0  0  0
    9.2051    6.9101   23.4604 C   0  0  0  0  0  0  0  0  0  0  0  0
   11.9646    6.0299   21.4251 C   0  0  0  0  0  0  0  0  0  0  0  0
  1  5  1  0
  1 13  1  0
  2 20  2  0
  2 28  1  0
  2 29  1  0
  3 19  4  0
  3 25  4  0
  4 23  4  0
  4 27  1  0
  4 30  4  0
  5 17  1  0
  6  8  1  0
  6 29  1  0
  7 24  4  0
  7 26  4  0
  8 28  1  0
  9 13  2  0
 10 18  1  0
 10 21  4  0
 10 30  4  0
 11 17  2  0
 12 18  1  0
 13 15  1  0
 14 24  1  0
 15 25  1  0
 16 28  2  0
 17 20  1  0
 19 24  4  0
 20 23  1  0
 21 22  4  0
 22 23  4  0
 25 26  4  0
 27 29  2  0
M  END
$$$$

 Created by Python create_sdf_string function

 30 33  0  0  0  0  0  0  0  0999 V2000
    8.3036    9.8571   18.4133 C   0  0  0  0  0  0  0  0  0  0  0  0
    8.3694    7.6612   22.6703 C   0  0  0  0  0  0  0  0  0  0  0  0
    8.4143    6.6863   16.2273 C   0  0  0  0  0  0  0  0  0  0  0  0
   10.7581    6.5674   21.7636 C   0  0  0  0  0  0  0  0  0  0  0  0
    8.4452    8.7960   19.2958 O   0  0  0  0  0  0  0  0  0  0  0  0
    8.7122    6.7842   24.8569 C   0  0  0  0  0  0  0  0  0  0  0  0
   10.3400    6.1726   14.3081 C   0  0  0  0  0  0  0  0  0  0  0  0
    7.4297    7.5873   24.8962 C   0  0  0  0  0  0  0  0  0  0  0  0
    8.1566   10.0536   16.0516 O   0  0  0  0  0  0  0  0  0  0  0  0
   12.4989    6.2074   20.1776 C   0  0  0  0  0  0  0  0  0  0  0  0
    6.9192    9.1053   20.9073 O   0  0  0  0  0  0  0  0  0  0  0  0
   14.3979    6.0729   18.7784 C   0  0  0  0  0  0  0  0  0  0  0  0
    8.6811    9.5354   16.9998 C   0  0  0  0  0  0  0  0  0  0  0  0
    9.2512    4.2713   13.7653 O   0  0  0  0  0  0  0  0  0  0  0  0
    9.6495    8.6317   16.8332 N   0  0  0  0  0  0  0  0  0  0  0  0
    6.2934    8.6988   23.1988 O   0  0  0  0  0  0  0  0  0  0  0  0
    7.9806    8.6543   20.5437 C   0  0  0  0  0  0  0  0  0  0  0  0
   13.7270    5.7144   19.8610 O   0  0  0  0  0  0  0  0  0  0  0  0
    8.3351    5.5235   15.4478 C   0  0  0  0  0  0  0  0  0  0  0  0
    8.7700    7.8434   21.3915 C   0  0  0  0  0  0  0  0  0  0  0  0
   11.7856    6.8851   19.2401 C   0  0  0  0  0  0  0  0  0  0  0  0
   10.5281    7.4276   19.5649 C   0  0  0  0  0  0  0  0  0  0  0  0
   10.0256    7.2907   20.8484 C   0  0  0  0  0  0  0  0  0  0  0  0
    9.3113    5.3049   14.4911 C   0  0  0  0  0  0  0  0  0  0  0  0
    9.4607    7.5646   16.0139 C   0  0  0  0  0  0  0  0  0  0  0  0
   10.4192    7.3157   15.0955 C   0  0  0  0  0  0  0  0  0  0  0  0
   10.2489    6.4227   23.0218 N   0  0  0  0  0  0  0  0  0  0  0  0
    7.2472    8.0746   23.5050 C   0  0  0  0  0  0  0  0  0  0  0  0
    9.2051    6.9101   23.4604 C   0  0  0  0  0  0  0  0  0  0  0  0
   11.9646    6.0299   21.4251 C   0  0  0  0  0  0  0  0  0  0  0  0
  1  5  1  0
  1 13  1  0
  2 20  2  0
  2 28  1  0
  2 29  1  0
  3 19  4  0
  3 25  4  0
  4 23  4  0
  4 27  1  0
  4 30  4  0
  5 17  1  0
  6  8  1  0
  6 29  1  0
  7 24  4  0
  7 26  4  0
  8 28  1  0
  9 13  2  0
 10 18  1  0
 10 21  4  0
 10 30  4  0
 11 17  2  0
 12 18  1  0
 13 15  1  0
 14 24  1  0
 15 25  1  0
 16 28  2  0
 17 20  1  0
 19 24  4  0
 20 23  1  0
 21 22  4  0
 22 23  4  0
 25 26  4  0
 27 29  2  0
M  END
$$$$

 Created by Python create_sdf_string function

 30 33  0  0  0  0  0  0  0  0999 V2000
    8.3036    9.8571   18.4133 C   0  0  0  0  0  0  0  0  0  0  0  0
    8.3694    7.6612   22.6703 C   0  0  0  0  0  0  0  0  0  0  0  0
    8.4143    6.6863   16.2273 C   0  0  0  0  0  0  0  0  0  0  0  0
   10.7581    6.5674   21.7636 C   0  0  0  0  0  0  0  0  0  0  0  0
    8.4452    8.7960   19.2958 O   0  0  0  0  0  0  0  0  0  0  0  0
    8.7122    6.7842   24.8569 C   0  0  0  0  0  0  0  0  0  0  0  0
   10.3400    6.1726   14.3081 C   0  0  0  0  0  0  0  0  0  0  0  0
    7.4297    7.5873   24.8962 C   0  0  0  0  0  0  0  0  0  0  0  0
    8.1566   10.0536   16.0516 O   0  0  0  0  0  0  0  0  0  0  0  0
   12.4989    6.2074   20.1776 C   0  0  0  0  0  0  0  0  0  0  0  0
    6.9192    9.1053   20.9073 O   0  0  0  0  0  0  0  0  0  0  0  0
   14.3979    6.0729   18.7784 C   0  0  0  0  0  0  0  0  0  0  0  0
    8.6811    9.5354   16.9998 C   0  0  0  0  0  0  0  0  0  0  0  0
    9.2512    4.2713   13.7653 O   0  0  0  0  0  0  0  0  0  0  0  0
    9.6495    8.6317   16.8332 N   0  0  0  0  0  0  0  0  0  0  0  0
    6.2934    8.6988   23.1988 O   0  0  0  0  0  0  0  0  0  0  0  0
    7.9806    8.6543   20.5437 C   0  0  0  0  0  0  0  0  0  0  0  0
   13.7270    5.7144   19.8610 O   0  0  0  0  0  0  0  0  0  0  0  0
    8.3351    5.5235   15.4478 C   0  0  0  0  0  0  0  0  0  0  0  0
    8.7700    7.8434   21.3915 C   0  0  0  0  0  0  0  0  0  0  0  0
   11.7856    6.8851   19.2401 C   0  0  0  0  0  0  0  0  0  0  0  0
   10.5281    7.4276   19.5649 C   0  0  0  0  0  0  0  0  0  0  0  0
   10.0256    7.2907   20.8484 C   0  0  0  0  0  0  0  0  0  0  0  0
    9.3113    5.3049   14.4911 C   0  0  0  0  0  0  0  0  0  0  0  0
    9.4607    7.5646   16.0139 C   0  0  0  0  0  0  0  0  0  0  0  0
   10.4192    7.3157   15.0955 C   0  0  0  0  0  0  0  0  0  0  0  0
   10.2489    6.4227   23.0218 N   0  0  0  0  0  0  0  0  0  0  0  0
    7.2472    8.0746   23.5050 C   0  0  0  0  0  0  0  0  0  0  0  0
    9.2051    6.9101   23.4604 C   0  0  0  0  0  0  0  0  0  0  0  0
   11.9646    6.0299   21.4251 C   0  0  0  0  0  0  0  0  0  0  0  0
  1  5  1  0
  1 13  1  0
  2 20  2  0
  2 28  1  0
  2 29  1  0
  3 19  4  0
  3 25  4  0
  4 23  4  0
  4 27  1  0
  4 30  4  0
  5 17  1  0
  6  8  1  0
  6 29  1  0
  7 24  4  0
  7 26  4  0
  8 28  1  0
  9 13  2  0
 10 18  1  0
 10 21  4  0
 10 30  4  0
 11 17  2  0
 12 18  1  0
 13 15  1  0
 14 24  1  0
 15 25  1  0
 16 28  2  0
 17 20  1  0
 19 24  4  0
 20 23  1  0
 21 22  4  0
 22 23  4  0
 25 26  4  0
 27 29  2  0
M  END
$$$$

 Created by Python create_sdf_string function

 30 33  0  0  0  0  0  0  0  0999 V2000
    8.3036    9.8571   18.4133 C   0  0  0  0  0  0  0  0  0  0  0  0
    8.3694    7.6612   22.6703 C   0  0  0  0  0  0  0  0  0  0  0  0
    8.4143    6.6863   16.2273 C   0  0  0  0  0  0  0  0  0  0  0  0
   10.7581    6.5674   21.7636 C   0  0  0  0  0  0  0  0  0  0  0  0
    8.4452    8.7960   19.2958 O   0  0  0  0  0  0  0  0  0  0  0  0
    8.7122    6.7842   24.8569 C   0  0  0  0  0  0  0  0  0  0  0  0
   10.3400    6.1726   14.3081 C   0  0  0  0  0  0  0  0  0  0  0  0
    7.4297    7.5873   24.8962 C   0  0  0  0  0  0  0  0  0  0  0  0
    8.1566   10.0536   16.0516 O   0  0  0  0  0  0  0  0  0  0  0  0
   12.4989    6.2074   20.1776 C   0  0  0  0  0  0  0  0  0  0  0  0
    6.9192    9.1053   20.9073 O   0  0  0  0  0  0  0  0  0  0  0  0
   14.3979    6.0729   18.7784 C   0  0  0  0  0  0  0  0  0  0  0  0
    8.6811    9.5354   16.9998 C   0  0  0  0  0  0  0  0  0  0  0  0
    9.2512    4.2713   13.7653 O   0  0  0  0  0  0  0  0  0  0  0  0
    9.6495    8.6317   16.8332 N   0  0  0  0  0  0  0  0  0  0  0  0
    6.2934    8.6988   23.1988 O   0  0  0  0  0  0  0  0  0  0  0  0
    7.9806    8.6543   20.5437 C   0  0  0  0  0  0  0  0  0  0  0  0
   13.7270    5.7144   19.8610 O   0  0  0  0  0  0  0  0  0  0  0  0
    8.3351    5.5235   15.4478 C   0  0  0  0  0  0  0  0  0  0  0  0
    8.7700    7.8434   21.3915 C   0  0  0  0  0  0  0  0  0  0  0  0
   11.7856    6.8851   19.2401 C   0  0  0  0  0  0  0  0  0  0  0  0
   10.5281    7.4276   19.5649 C   0  0  0  0  0  0  0  0  0  0  0  0
   10.0256    7.2907   20.8484 C   0  0  0  0  0  0  0  0  0  0  0  0
    9.3113    5.3049   14.4911 C   0  0  0  0  0  0  0  0  0  0  0  0
    9.4607    7.5646   16.0139 C   0  0  0  0  0  0  0  0  0  0  0  0
   10.4192    7.3157   15.0955 C   0  0  0  0  0  0  0  0  0  0  0  0
   10.2489    6.4227   23.0218 N   0  0  0  0  0  0  0  0  0  0  0  0
    7.2472    8.0746   23.5050 C   0  0  0  0  0  0  0  0  0  0  0  0
    9.2051    6.9101   23.4604 C   0  0  0  0  0  0  0  0  0  0  0  0
   11.9646    6.0299   21.4251 C   0  0  0  0  0  0  0  0  0  0  0  0
  1  5  1  0
  1 13  1  0
  2 20  2  0
  2 28  1  0
  2 29  1  0
  3 19  4  0
  3 25  4  0
  4 23  4  0
  4 27  1  0
  4 30  4  0
  5 17  1  0
  6  8  1  0
  6 29  1  0
  7 24  4  0
  7 26  4  0
  8 28  1  0
  9 13  2  0
 10 18  1  0
 10 21  4  0
 10 30  4  0
 11 17  2  0
 12 18  1  0
 13 15  1  0
 14 24  1  0
 15 25  1  0
 16 28  2  0
 17 20  1  0
 19 24  4  0
 20 23  1  0
 21 22  4  0
 22 23  4  0
 25 26  4  0
 27 29  2  0
M  END
$$$$

 Created by Python create_sdf_string function

 30 33  0  0  0  0  0  0  0  0999 V2000
    8.3036    9.8571   18.4133 C   0  0  0  0  0  0  0  0  0  0  0  0
    8.3694    7.6612   22.6703 C   0  0  0  0  0  0  0  0  0  0  0  0
    8.4143    6.6863   16.2273 C   0  0  0  0  0  0  0  0  0  0  0  0
   10.7581    6.5674   21.7636 C   0  0  0  0  0  0  0  0  0  0  0  0
    8.4452    8.7960   19.2958 O   0  0  0  0  0  0  0  0  0  0  0  0
    8.7122    6.7842   24.8569 C   0  0  0  0  0  0  0  0  0  0  0  0
   10.3400    6.1726   14.3081 C   0  0  0  0  0  0  0  0  0  0  0  0
    7.4297    7.5873   24.8962 C   0  0  0  0  0  0  0  0  0  0  0  0
    8.1566   10.0536   16.0516 O   0  0  0  0  0  0  0  0  0  0  0  0
   12.4989    6.2074   20.1776 C   0  0  0  0  0  0  0  0  0  0  0  0
    6.9192    9.1053   20.9073 O   0  0  0  0  0  0  0  0  0  0  0  0
   14.3979    6.0729   18.7784 C   0  0  0  0  0  0  0  0  0  0  0  0
    8.6811    9.5354   16.9998 C   0  0  0  0  0  0  0  0  0  0  0  0
    9.2512    4.2713   13.7653 O   0  0  0  0  0  0  0  0  0  0  0  0
    9.6495    8.6317   16.8332 N   0  0  0  0  0  0  0  0  0  0  0  0
    6.2934    8.6988   23.1988 O   0  0  0  0  0  0  0  0  0  0  0  0
    7.9806    8.6543   20.5437 C   0  0  0  0  0  0  0  0  0  0  0  0
   13.7270    5.7144   19.8610 O   0  0  0  0  0  0  0  0  0  0  0  0
    8.3351    5.5235   15.4478 C   0  0  0  0  0  0  0  0  0  0  0  0
    8.7700    7.8434   21.3915 C   0  0  0  0  0  0  0  0  0  0  0  0
   11.7856    6.8851   19.2401 C   0  0  0  0  0  0  0  0  0  0  0  0
   10.5281    7.4276   19.5649 C   0  0  0  0  0  0  0  0  0  0  0  0
   10.0256    7.2907   20.8484 C   0  0  0  0  0  0  0  0  0  0  0  0
    9.3113    5.3049   14.4911 C   0  0  0  0  0  0  0  0  0  0  0  0
    9.4607    7.5646   16.0139 C   0  0  0  0  0  0  0  0  0  0  0  0
   10.4192    7.3157   15.0955 C   0  0  0  0  0  0  0  0  0  0  0  0
   10.2489    6.4227   23.0218 N   0  0  0  0  0  0  0  0  0  0  0  0
    7.2472    8.0746   23.5050 C   0  0  0  0  0  0  0  0  0  0  0  0
    9.2051    6.9101   23.4604 C   0  0  0  0  0  0  0  0  0  0  0  0
   11.9646    6.0299   21.4251 C   0  0  0  0  0  0  0  0  0  0  0  0
  1  5  1  0
  1 13  1  0
  2 20  2  0
  2 28  1  0
  2 29  1  0
  3 19  4  0
  3 25  4  0
  4 23  4  0
  4 27  1  0
  4 30  4  0
  5 17  1  0
  6  8  1  0
  6 29  1  0
  7 24  4  0
  7 26  4  0
  8 28  1  0
  9 13  2  0
 10 18  1  0
 10 21  4  0
 10 30  4  0
 11 17  2  0
 12 18  1  0
 13 15  1  0
 14 24  1  0
 15 25  1  0
 16 28  2  0
 17 20  1  0
 19 24  4  0
 20 23  1  0
 21 22  4  0
 22 23  4  0
 25 26  4  0
 27 29  2  0
M  END
$$$$

 Created by Python create_sdf_string function

 30 33  0  0  0  0  0  0  0  0999 V2000
    8.3036    9.8571   18.4133 C   0  0  0  0  0  0  0  0  0  0  0  0
    8.3694    7.6612   22.6703 C   0  0  0  0  0  0  0  0  0  0  0  0
    8.4143    6.6863   16.2273 C   0  0  0  0  0  0  0  0  0  0  0  0
   10.7581    6.5674   21.7636 C   0  0  0  0  0  0  0  0  0  0  0  0
    8.4452    8.7960   19.2958 O   0  0  0  0  0  0  0  0  0  0  0  0
    8.7122    6.7842   24.8569 C   0  0  0  0  0  0  0  0  0  0  0  0
   10.3400    6.1726   14.3081 C   0  0  0  0  0  0  0  0  0  0  0  0
    7.4297    7.5873   24.8962 C   0  0  0  0  0  0  0  0  0  0  0  0
    8.1566   10.0536   16.0516 O   0  0  0  0  0  0  0  0  0  0  0  0
   12.4989    6.2074   20.1776 C   0  0  0  0  0  0  0  0  0  0  0  0
    6.9192    9.1053   20.9073 O   0  0  0  0  0  0  0  0  0  0  0  0
   14.3979    6.0729   18.7784 C   0  0  0  0  0  0  0  0  0  0  0  0
    8.6811    9.5354   16.9998 C   0  0  0  0  0  0  0  0  0  0  0  0
    9.2512    4.2713   13.7653 O   0  0  0  0  0  0  0  0  0  0  0  0
    9.6495    8.6317   16.8332 N   0  0  0  0  0  0  0  0  0  0  0  0
    6.2934    8.6988   23.1988 O   0  0  0  0  0  0  0  0  0  0  0  0
    7.9806    8.6543   20.5437 C   0  0  0  0  0  0  0  0  0  0  0  0
   13.7270    5.7144   19.8610 O   0  0  0  0  0  0  0  0  0  0  0  0
    8.3351    5.5235   15.4478 C   0  0  0  0  0  0  0  0  0  0  0  0
    8.7700    7.8434   21.3915 C   0  0  0  0  0  0  0  0  0  0  0  0
   11.7856    6.8851   19.2401 C   0  0  0  0  0  0  0  0  0  0  0  0
   10.5281    7.4276   19.5649 C   0  0  0  0  0  0  0  0  0  0  0  0
   10.0256    7.2907   20.8484 C   0  0  0  0  0  0  0  0  0  0  0  0
    9.3113    5.3049   14.4911 C   0  0  0  0  0  0  0  0  0  0  0  0
    9.4607    7.5646   16.0139 C   0  0  0  0  0  0  0  0  0  0  0  0
   10.4192    7.3157   15.0955 C   0  0  0  0  0  0  0  0  0  0  0  0
   10.2489    6.4227   23.0218 N   0  0  0  0  0  0  0  0  0  0  0  0
    7.2472    8.0746   23.5050 C   0  0  0  0  0  0  0  0  0  0  0  0
    9.2051    6.9101   23.4604 C   0  0  0  0  0  0  0  0  0  0  0  0
   11.9646    6.0299   21.4251 C   0  0  0  0  0  0  0  0  0  0  0  0
  1  5  1  0
  1 13  1  0
  2 20  2  0
  2 28  1  0
  2 29  1  0
  3 19  4  0
  3 25  4  0
  4 23  4  0
  4 27  1  0
  4 30  4  0
  5 17  1  0
  6  8  1  0
  6 29  1  0
  7 24  4  0
  7 26  4  0
  8 28  1  0
  9 13  2  0
 10 18  1  0
 10 21  4  0
 10 30  4  0
 11 17  2  0
 12 18  1  0
 13 15  1  0
 14 24  1  0
 15 25  1  0
 16 28  2  0
 17 20  1  0
 19 24  4  0
 20 23  1  0
 21 22  4  0
 22 23  4  0
 25 26  4  0
 27 29  2  0
M  END
$$$$

 Created by Python create_sdf_string function

 30 33  0  0  0  0  0  0  0  0999 V2000
    8.3036    9.8571   18.4133 C   0  0  0  0  0  0  0  0  0  0  0  0
    8.3694    7.6612   22.6703 C   0  0  0  0  0  0  0  0  0  0  0  0
    8.4143    6.6863   16.2273 C   0  0  0  0  0  0  0  0  0  0  0  0
   10.7581    6.5674   21.7636 C   0  0  0  0  0  0  0  0  0  0  0  0
    8.4452    8.7960   19.2958 O   0  0  0  0  0  0  0  0  0  0  0  0
    8.7122    6.7842   24.8569 C   0  0  0  0  0  0  0  0  0  0  0  0
   10.3400    6.1726   14.3081 C   0  0  0  0  0  0  0  0  0  0  0  0
    7.4297    7.5873   24.8962 C   0  0  0  0  0  0  0  0  0  0  0  0
    8.1566   10.0536   16.0516 O   0  0  0  0  0  0  0  0  0  0  0  0
   12.4989    6.2074   20.1776 C   0  0  0  0  0  0  0  0  0  0  0  0
    6.9192    9.1053   20.9073 O   0  0  0  0  0  0  0  0  0  0  0  0
   14.3979    6.0729   18.7784 C   0  0  0  0  0  0  0  0  0  0  0  0
    8.6811    9.5354   16.9998 C   0  0  0  0  0  0  0  0  0  0  0  0
    9.2512    4.2713   13.7653 O   0  0  0  0  0  0  0  0  0  0  0  0
    9.6495    8.6317   16.8332 N   0  0  0  0  0  0  0  0  0  0  0  0
    6.2934    8.6988   23.1988 O   0  0  0  0  0  0  0  0  0  0  0  0
    7.9806    8.6543   20.5437 C   0  0  0  0  0  0  0  0  0  0  0  0
   13.7270    5.7144   19.8610 O   0  0  0  0  0  0  0  0  0  0  0  0
    8.3351    5.5235   15.4478 C   0  0  0  0  0  0  0  0  0  0  0  0
    8.7700    7.8434   21.3915 C   0  0  0  0  0  0  0  0  0  0  0  0
   11.7856    6.8851   19.2401 C   0  0  0  0  0  0  0  0  0  0  0  0
   10.5281    7.4276   19.5649 C   0  0  0  0  0  0  0  0  0  0  0  0
   10.0256    7.2907   20.8484 C   0  0  0  0  0  0  0  0  0  0  0  0
    9.3113    5.3049   14.4911 C   0  0  0  0  0  0  0  0  0  0  0  0
    9.4607    7.5646   16.0139 C   0  0  0  0  0  0  0  0  0  0  0  0
   10.4192    7.3157   15.0955 C   0  0  0  0  0  0  0  0  0  0  0  0
   10.2489    6.4227   23.0218 N   0  0  0  0  0  0  0  0  0  0  0  0
    7.2472    8.0746   23.5050 C   0  0  0  0  0  0  0  0  0  0  0  0
    9.2051    6.9101   23.4604 C   0  0  0  0  0  0  0  0  0  0  0  0
   11.9646    6.0299   21.4251 C   0  0  0  0  0  0  0  0  0  0  0  0
  1  5  1  0
  1 13  1  0
  2 20  2  0
  2 28  1  0
  2 29  1  0
  3 19  4  0
  3 25  4  0
  4 23  4  0
  4 27  1  0
  4 30  4  0
  5 17  1  0
  6  8  1  0
  6 29  1  0
  7 24  4  0
  7 26  4  0
  8 28  1  0
  9 13  2  0
 10 18  1  0
 10 21  4  0
 10 30  4  0
 11 17  2  0
 12 18  1  0
 13 15  1  0
 14 24  1  0
 15 25  1  0
 16 28  2  0
 17 20  1  0
 19 24  4  0
 20 23  1  0
 21 22  4  0
 22 23  4  0
 25 26  4  0
 27 29  2  0
M  END
$$$$

 Created by Python create_sdf_string function

 30 33  0  0  0  0  0  0  0  0999 V2000
    8.3036    9.8571   18.4133 C   0  0  0  0  0  0  0  0  0  0  0  0
    8.3694    7.6612   22.6703 C   0  0  0  0  0  0  0  0  0  0  0  0
    8.4143    6.6863   16.2273 C   0  0  0  0  0  0  0  0  0  0  0  0
   10.7581    6.5674   21.7636 C   0  0  0  0  0  0  0  0  0  0  0  0
    8.4452    8.7960   19.2958 O   0  0  0  0  0  0  0  0  0  0  0  0
    8.7122    6.7842   24.8569 C   0  0  0  0  0  0  0  0  0  0  0  0
   10.3400    6.1726   14.3081 C   0  0  0  0  0  0  0  0  0  0  0  0
    7.4297    7.5873   24.8962 C   0  0  0  0  0  0  0  0  0  0  0  0
    8.1566   10.0536   16.0516 O   0  0  0  0  0  0  0  0  0  0  0  0
   12.4989    6.2074   20.1776 C   0  0  0  0  0  0  0  0  0  0  0  0
    6.9192    9.1053   20.9073 O   0  0  0  0  0  0  0  0  0  0  0  0
   14.3979    6.0729   18.7784 C   0  0  0  0  0  0  0  0  0  0  0  0
    8.6811    9.5354   16.9998 C   0  0  0  0  0  0  0  0  0  0  0  0
    9.2512    4.2713   13.7653 O   0  0  0  0  0  0  0  0  0  0  0  0
    9.6495    8.6317   16.8332 N   0  0  0  0  0  0  0  0  0  0  0  0
    6.2934    8.6988   23.1988 O   0  0  0  0  0  0  0  0  0  0  0  0
    7.9806    8.6543   20.5437 C   0  0  0  0  0  0  0  0  0  0  0  0
   13.7270    5.7144   19.8610 O   0  0  0  0  0  0  0  0  0  0  0  0
    8.3351    5.5235   15.4478 C   0  0  0  0  0  0  0  0  0  0  0  0
    8.7700    7.8434   21.3915 C   0  0  0  0  0  0  0  0  0  0  0  0
   11.7856    6.8851   19.2401 C   0  0  0  0  0  0  0  0  0  0  0  0
   10.5281    7.4276   19.5649 C   0  0  0  0  0  0  0  0  0  0  0  0
   10.0256    7.2907   20.8484 C   0  0  0  0  0  0  0  0  0  0  0  0
    9.3113    5.3049   14.4911 C   0  0  0  0  0  0  0  0  0  0  0  0
    9.4607    7.5646   16.0139 C   0  0  0  0  0  0  0  0  0  0  0  0
   10.4192    7.3157   15.0955 C   0  0  0  0  0  0  0  0  0  0  0  0
   10.2489    6.4227   23.0218 N   0  0  0  0  0  0  0  0  0  0  0  0
    7.2472    8.0746   23.5050 C   0  0  0  0  0  0  0  0  0  0  0  0
    9.2051    6.9101   23.4604 C   0  0  0  0  0  0  0  0  0  0  0  0
   11.9646    6.0299   21.4251 C   0  0  0  0  0  0  0  0  0  0  0  0
  1  5  1  0
  1 13  1  0
  2 20  2  0
  2 28  1  0
  2 29  1  0
  3 19  4  0
  3 25  4  0
  4 23  4  0
  4 27  1  0
  4 30  4  0
  5 17  1  0
  6  8  1  0
  6 29  1  0
  7 24  4  0
  7 26  4  0
  8 28  1  0
  9 13  2  0
 10 18  1  0
 10 21  4  0
 10 30  4  0
 11 17  2  0
 12 18  1  0
 13 15  1  0
 14 24  1  0
 15 25  1  0
 16 28  2  0
 17 20  1  0
 19 24  4  0
 20 23  1  0
 21 22  4  0
 22 23  4  0
 25 26  4  0
 27 29  2  0
M  END
$$$$

 Created by Python create_sdf_string function

 30 33  0  0  0  0  0  0  0  0999 V2000
    8.3036    9.8571   18.4133 C   0  0  0  0  0  0  0  0  0  0  0  0
    8.3694    7.6612   22.6703 C   0  0  0  0  0  0  0  0  0  0  0  0
    8.4143    6.6863   16.2273 C   0  0  0  0  0  0  0  0  0  0  0  0
   10.7581    6.5674   21.7636 C   0  0  0  0  0  0  0  0  0  0  0  0
    8.4452    8.7960   19.2958 O   0  0  0  0  0  0  0  0  0  0  0  0
    8.7122    6.7842   24.8569 C   0  0  0  0  0  0  0  0  0  0  0  0
   10.3400    6.1726   14.3081 C   0  0  0  0  0  0  0  0  0  0  0  0
    7.4297    7.5873   24.8962 C   0  0  0  0  0  0  0  0  0  0  0  0
    8.1566   10.0536   16.0516 O   0  0  0  0  0  0  0  0  0  0  0  0
   12.4989    6.2074   20.1776 C   0  0  0  0  0  0  0  0  0  0  0  0
    6.9192    9.1053   20.9073 O   0  0  0  0  0  0  0  0  0  0  0  0
   14.3979    6.0729   18.7784 C   0  0  0  0  0  0  0  0  0  0  0  0
    8.6811    9.5354   16.9998 C   0  0  0  0  0  0  0  0  0  0  0  0
    9.2512    4.2713   13.7653 O   0  0  0  0  0  0  0  0  0  0  0  0
    9.6495    8.6317   16.8332 N   0  0  0  0  0  0  0  0  0  0  0  0
    6.2934    8.6988   23.1988 O   0  0  0  0  0  0  0  0  0  0  0  0
    7.9806    8.6543   20.5437 C   0  0  0  0  0  0  0  0  0  0  0  0
   13.7270    5.7144   19.8610 O   0  0  0  0  0  0  0  0  0  0  0  0
    8.3351    5.5235   15.4478 C   0  0  0  0  0  0  0  0  0  0  0  0
    8.7700    7.8434   21.3915 C   0  0  0  0  0  0  0  0  0  0  0  0
   11.7856    6.8851   19.2401 C   0  0  0  0  0  0  0  0  0  0  0  0
   10.5281    7.4276   19.5649 C   0  0  0  0  0  0  0  0  0  0  0  0
   10.0256    7.2907   20.8484 C   0  0  0  0  0  0  0  0  0  0  0  0
    9.3113    5.3049   14.4911 C   0  0  0  0  0  0  0  0  0  0  0  0
    9.4607    7.5646   16.0139 C   0  0  0  0  0  0  0  0  0  0  0  0
   10.4192    7.3157   15.0955 C   0  0  0  0  0  0  0  0  0  0  0  0
   10.2489    6.4227   23.0218 N   0  0  0  0  0  0  0  0  0  0  0  0
    7.2472    8.0746   23.5050 C   0  0  0  0  0  0  0  0  0  0  0  0
    9.2051    6.9101   23.4604 C   0  0  0  0  0  0  0  0  0  0  0  0
   11.9646    6.0299   21.4251 C   0  0  0  0  0  0  0  0  0  0  0  0
  1  5  1  0
  1 13  1  0
  2 20  2  0
  2 28  1  0
  2 29  1  0
  3 19  4  0
  3 25  4  0
  4 23  4  0
  4 27  1  0
  4 30  4  0
  5 17  1  0
  6  8  1  0
  6 29  1  0
  7 24  4  0
  7 26  4  0
  8 28  1  0
  9 13  2  0
 10 18  1  0
 10 21  4  0
 10 30  4  0
 11 17  2  0
 12 18  1  0
 13 15  1  0
 14 24  1  0
 15 25  1  0
 16 28  2  0
 17 20  1  0
 19 24  4  0
 20 23  1  0
 21 22  4  0
 22 23  4  0
 25 26  4  0
 27 29  2  0
M  END
$$$$

 Created by Python create_sdf_string function

 30 33  0  0  0  0  0  0  0  0999 V2000
    8.3036    9.8571   18.4133 C   0  0  0  0  0  0  0  0  0  0  0  0
    8.3694    7.6612   22.6703 C   0  0  0  0  0  0  0  0  0  0  0  0
    8.4143    6.6863   16.2273 C   0  0  0  0  0  0  0  0  0  0  0  0
   10.7581    6.5674   21.7636 C   0  0  0  0  0  0  0  0  0  0  0  0
    8.4452    8.7960   19.2958 O   0  0  0  0  0  0  0  0  0  0  0  0
    8.7122    6.7842   24.8569 C   0  0  0  0  0  0  0  0  0  0  0  0
   10.3400    6.1726   14.3081 C   0  0  0  0  0  0  0  0  0  0  0  0
    7.4297    7.5873   24.8962 C   0  0  0  0  0  0  0  0  0  0  0  0
    8.1566   10.0536   16.0516 O   0  0  0  0  0  0  0  0  0  0  0  0
   12.4989    6.2074   20.1776 C   0  0  0  0  0  0  0  0  0  0  0  0
    6.9192    9.1053   20.9073 O   0  0  0  0  0  0  0  0  0  0  0  0
   14.3979    6.0729   18.7784 C   0  0  0  0  0  0  0  0  0  0  0  0
    8.6811    9.5354   16.9998 C   0  0  0  0  0  0  0  0  0  0  0  0
    9.2512    4.2713   13.7653 O   0  0  0  0  0  0  0  0  0  0  0  0
    9.6495    8.6317   16.8332 N   0  0  0  0  0  0  0  0  0  0  0  0
    6.2934    8.6988   23.1988 O   0  0  0  0  0  0  0  0  0  0  0  0
    7.9806    8.6543   20.5437 C   0  0  0  0  0  0  0  0  0  0  0  0
   13.7270    5.7144   19.8610 O   0  0  0  0  0  0  0  0  0  0  0  0
    8.3351    5.5235   15.4478 C   0  0  0  0  0  0  0  0  0  0  0  0
    8.7700    7.8434   21.3915 C   0  0  0  0  0  0  0  0  0  0  0  0
   11.7856    6.8851   19.2401 C   0  0  0  0  0  0  0  0  0  0  0  0
   10.5281    7.4276   19.5649 C   0  0  0  0  0  0  0  0  0  0  0  0
   10.0256    7.2907   20.8484 C   0  0  0  0  0  0  0  0  0  0  0  0
    9.3113    5.3049   14.4911 C   0  0  0  0  0  0  0  0  0  0  0  0
    9.4607    7.5646   16.0139 C   0  0  0  0  0  0  0  0  0  0  0  0
   10.4192    7.3157   15.0955 C   0  0  0  0  0  0  0  0  0  0  0  0
   10.2489    6.4227   23.0218 N   0  0  0  0  0  0  0  0  0  0  0  0
    7.2472    8.0746   23.5050 C   0  0  0  0  0  0  0  0  0  0  0  0
    9.2051    6.9101   23.4604 C   0  0  0  0  0  0  0  0  0  0  0  0
   11.9646    6.0299   21.4251 C   0  0  0  0  0  0  0  0  0  0  0  0
  1  5  1  0
  1 13  1  0
  2 20  2  0
  2 28  1  0
  2 29  1  0
  3 19  4  0
  3 25  4  0
  4 23  4  0
  4 27  1  0
  4 30  4  0
  5 17  1  0
  6  8  1  0
  6 29  1  0
  7 24  4  0
  7 26  4  0
  8 28  1  0
  9 13  2  0
 10 18  1  0
 10 21  4  0
 10 30  4  0
 11 17  2  0
 12 18  1  0
 13 15  1  0
 14 24  1  0
 15 25  1  0
 16 28  2  0
 17 20  1  0
 19 24  4  0
 20 23  1  0
 21 22  4  0
 22 23  4  0
 25 26  4  0
 27 29  2  0
M  END
$$$$

 Created by Python create_sdf_string function

 30 33  0  0  0  0  0  0  0  0999 V2000
    8.3036    9.8571   18.4133 C   0  0  0  0  0  0  0  0  0  0  0  0
    8.3694    7.6612   22.6703 C   0  0  0  0  0  0  0  0  0  0  0  0
    8.4143    6.6863   16.2273 C   0  0  0  0  0  0  0  0  0  0  0  0
   10.7581    6.5674   21.7636 C   0  0  0  0  0  0  0  0  0  0  0  0
    8.4452    8.7960   19.2958 O   0  0  0  0  0  0  0  0  0  0  0  0
    8.7122    6.7842   24.8569 C   0  0  0  0  0  0  0  0  0  0  0  0
   10.3400    6.1726   14.3081 C   0  0  0  0  0  0  0  0  0  0  0  0
    7.4297    7.5873   24.8962 C   0  0  0  0  0  0  0  0  0  0  0  0
    8.1566   10.0536   16.0516 O   0  0  0  0  0  0  0  0  0  0  0  0
   12.4989    6.2074   20.1776 C   0  0  0  0  0  0  0  0  0  0  0  0
    6.9192    9.1053   20.9073 O   0  0  0  0  0  0  0  0  0  0  0  0
   14.3979    6.0729   18.7784 C   0  0  0  0  0  0  0  0  0  0  0  0
    8.6811    9.5354   16.9998 C   0  0  0  0  0  0  0  0  0  0  0  0
    9.2512    4.2713   13.7653 O   0  0  0  0  0  0  0  0  0  0  0  0
    9.6495    8.6317   16.8332 N   0  0  0  0  0  0  0  0  0  0  0  0
    6.2934    8.6988   23.1988 O   0  0  0  0  0  0  0  0  0  0  0  0
    7.9806    8.6543   20.5437 C   0  0  0  0  0  0  0  0  0  0  0  0
   13.7270    5.7144   19.8610 O   0  0  0  0  0  0  0  0  0  0  0  0
    8.3351    5.5235   15.4478 C   0  0  0  0  0  0  0  0  0  0  0  0
    8.7700    7.8434   21.3915 C   0  0  0  0  0  0  0  0  0  0  0  0
   11.7856    6.8851   19.2401 C   0  0  0  0  0  0  0  0  0  0  0  0
   10.5281    7.4276   19.5649 C   0  0  0  0  0  0  0  0  0  0  0  0
   10.0256    7.2907   20.8484 C   0  0  0  0  0  0  0  0  0  0  0  0
    9.3113    5.3049   14.4911 C   0  0  0  0  0  0  0  0  0  0  0  0
    9.4607    7.5646   16.0139 C   0  0  0  0  0  0  0  0  0  0  0  0
   10.4192    7.3157   15.0955 C   0  0  0  0  0  0  0  0  0  0  0  0
   10.2489    6.4227   23.0218 N   0  0  0  0  0  0  0  0  0  0  0  0
    7.2472    8.0746   23.5050 C   0  0  0  0  0  0  0  0  0  0  0  0
    9.2051    6.9101   23.4604 C   0  0  0  0  0  0  0  0  0  0  0  0
   11.9646    6.0299   21.4251 C   0  0  0  0  0  0  0  0  0  0  0  0
  1  5  1  0
  1 13  1  0
  2 20  2  0
  2 28  1  0
  2 29  1  0
  3 19  4  0
  3 25  4  0
  4 23  4  0
  4 27  1  0
  4 30  4  0
  5 17  1  0
  6  8  1  0
  6 29  1  0
  7 24  4  0
  7 26  4  0
  8 28  1  0
  9 13  2  0
 10 18  1  0
 10 21  4  0
 10 30  4  0
 11 17  2  0
 12 18  1  0
 13 15  1  0
 14 24  1  0
 15 25  1  0
 16 28  2  0
 17 20  1  0
 19 24  4  0
 20 23  1  0
 21 22  4  0
 22 23  4  0
 25 26  4  0
 27 29  2  0
M  END
$$$$

 Created by Python create_sdf_string function

 30 33  0  0  0  0  0  0  0  0999 V2000
    8.3036    9.8571   18.4133 C   0  0  0  0  0  0  0  0  0  0  0  0
    8.3694    7.6612   22.6703 C   0  0  0  0  0  0  0  0  0  0  0  0
    8.4143    6.6863   16.2273 C   0  0  0  0  0  0  0  0  0  0  0  0
   10.7581    6.5674   21.7636 C   0  0  0  0  0  0  0  0  0  0  0  0
    8.4452    8.7960   19.2958 O   0  0  0  0  0  0  0  0  0  0  0  0
    8.7122    6.7842   24.8569 C   0  0  0  0  0  0  0  0  0  0  0  0
   10.3400    6.1726   14.3081 C   0  0  0  0  0  0  0  0  0  0  0  0
    7.4297    7.5873   24.8962 C   0  0  0  0  0  0  0  0  0  0  0  0
    8.1566   10.0536   16.0516 O   0  0  0  0  0  0  0  0  0  0  0  0
   12.4989    6.2074   20.1776 C   0  0  0  0  0  0  0  0  0  0  0  0
    6.9192    9.1053   20.9073 O   0  0  0  0  0  0  0  0  0  0  0  0
   14.3979    6.0729   18.7784 C   0  0  0  0  0  0  0  0  0  0  0  0
    8.6811    9.5354   16.9998 C   0  0  0  0  0  0  0  0  0  0  0  0
    9.2512    4.2713   13.7653 O   0  0  0  0  0  0  0  0  0  0  0  0
    9.6495    8.6317   16.8332 N   0  0  0  0  0  0  0  0  0  0  0  0
    6.2934    8.6988   23.1988 O   0  0  0  0  0  0  0  0  0  0  0  0
    7.9806    8.6543   20.5437 C   0  0  0  0  0  0  0  0  0  0  0  0
   13.7270    5.7144   19.8610 O   0  0  0  0  0  0  0  0  0  0  0  0
    8.3351    5.5235   15.4478 C   0  0  0  0  0  0  0  0  0  0  0  0
    8.7700    7.8434   21.3915 C   0  0  0  0  0  0  0  0  0  0  0  0
   11.7856    6.8851   19.2401 C   0  0  0  0  0  0  0  0  0  0  0  0
   10.5281    7.4276   19.5649 C   0  0  0  0  0  0  0  0  0  0  0  0
   10.0256    7.2907   20.8484 C   0  0  0  0  0  0  0  0  0  0  0  0
    9.3113    5.3049   14.4911 C   0  0  0  0  0  0  0  0  0  0  0  0
    9.4607    7.5646   16.0139 C   0  0  0  0  0  0  0  0  0  0  0  0
   10.4192    7.3157   15.0955 C   0  0  0  0  0  0  0  0  0  0  0  0
   10.2489    6.4227   23.0218 N   0  0  0  0  0  0  0  0  0  0  0  0
    7.2472    8.0746   23.5050 C   0  0  0  0  0  0  0  0  0  0  0  0
    9.2051    6.9101   23.4604 C   0  0  0  0  0  0  0  0  0  0  0  0
   11.9646    6.0299   21.4251 C   0  0  0  0  0  0  0  0  0  0  0  0
  1  5  1  0
  1 13  1  0
  2 20  2  0
  2 28  1  0
  2 29  1  0
  3 19  4  0
  3 25  4  0
  4 23  4  0
  4 27  1  0
  4 30  4  0
  5 17  1  0
  6  8  1  0
  6 29  1  0
  7 24  4  0
  7 26  4  0
  8 28  1  0
  9 13  2  0
 10 18  1  0
 10 21  4  0
 10 30  4  0
 11 17  2  0
 12 18  1  0
 13 15  1  0
 14 24  1  0
 15 25  1  0
 16 28  2  0
 17 20  1  0
 19 24  4  0
 20 23  1  0
 21 22  4  0
 22 23  4  0
 25 26  4  0
 27 29  2  0
M  END
$$$$

 Created by Python create_sdf_string function

 30 33  0  0  0  0  0  0  0  0999 V2000
    8.3036    9.8571   18.4133 C   0  0  0  0  0  0  0  0  0  0  0  0
    8.3694    7.6612   22.6703 C   0  0  0  0  0  0  0  0  0  0  0  0
    8.4143    6.6863   16.2273 C   0  0  0  0  0  0  0  0  0  0  0  0
   10.7581    6.5674   21.7636 C   0  0  0  0  0  0  0  0  0  0  0  0
    8.4452    8.7960   19.2958 O   0  0  0  0  0  0  0  0  0  0  0  0
    8.7122    6.7842   24.8569 C   0  0  0  0  0  0  0  0  0  0  0  0
   10.3400    6.1726   14.3081 C   0  0  0  0  0  0  0  0  0  0  0  0
    7.4297    7.5873   24.8962 C   0  0  0  0  0  0  0  0  0  0  0  0
    8.1566   10.0536   16.0516 O   0  0  0  0  0  0  0  0  0  0  0  0
   12.4989    6.2074   20.1776 C   0  0  0  0  0  0  0  0  0  0  0  0
    6.9192    9.1053   20.9073 O   0  0  0  0  0  0  0  0  0  0  0  0
   14.3979    6.0729   18.7784 C   0  0  0  0  0  0  0  0  0  0  0  0
    8.6811    9.5354   16.9998 C   0  0  0  0  0  0  0  0  0  0  0  0
    9.2512    4.2713   13.7653 O   0  0  0  0  0  0  0  0  0  0  0  0
    9.6495    8.6317   16.8332 N   0  0  0  0  0  0  0  0  0  0  0  0
    6.2934    8.6988   23.1988 O   0  0  0  0  0  0  0  0  0  0  0  0
    7.9806    8.6543   20.5437 C   0  0  0  0  0  0  0  0  0  0  0  0
   13.7270    5.7144   19.8610 O   0  0  0  0  0  0  0  0  0  0  0  0
    8.3351    5.5235   15.4478 C   0  0  0  0  0  0  0  0  0  0  0  0
    8.7700    7.8434   21.3915 C   0  0  0  0  0  0  0  0  0  0  0  0
   11.7856    6.8851   19.2401 C   0  0  0  0  0  0  0  0  0  0  0  0
   10.5281    7.4276   19.5649 C   0  0  0  0  0  0  0  0  0  0  0  0
   10.0256    7.2907   20.8484 C   0  0  0  0  0  0  0  0  0  0  0  0
    9.3113    5.3049   14.4911 C   0  0  0  0  0  0  0  0  0  0  0  0
    9.4607    7.5646   16.0139 C   0  0  0  0  0  0  0  0  0  0  0  0
   10.4192    7.3157   15.0955 C   0  0  0  0  0  0  0  0  0  0  0  0
   10.2489    6.4227   23.0218 N   0  0  0  0  0  0  0  0  0  0  0  0
    7.2472    8.0746   23.5050 C   0  0  0  0  0  0  0  0  0  0  0  0
    9.2051    6.9101   23.4604 C   0  0  0  0  0  0  0  0  0  0  0  0
   11.9646    6.0299   21.4251 C   0  0  0  0  0  0  0  0  0  0  0  0
  1  5  1  0
  1 13  1  0
  2 20  2  0
  2 28  1  0
  2 29  1  0
  3 19  4  0
  3 25  4  0
  4 23  4  0
  4 27  1  0
  4 30  4  0
  5 17  1  0
  6  8  1  0
  6 29  1  0
  7 24  4  0
  7 26  4  0
  8 28  1  0
  9 13  2  0
 10 18  1  0
 10 21  4  0
 10 30  4  0
 11 17  2  0
 12 18  1  0
 13 15  1  0
 14 24  1  0
 15 25  1  0
 16 28  2  0
 17 20  1  0
 19 24  4  0
 20 23  1  0
 21 22  4  0
 22 23  4  0
 25 26  4  0
 27 29  2  0
M  END
$$$$

 Created by Python create_sdf_string function

 30 33  0  0  0  0  0  0  0  0999 V2000
    8.3036    9.8571   18.4133 C   0  0  0  0  0  0  0  0  0  0  0  0
    8.3694    7.6612   22.6703 C   0  0  0  0  0  0  0  0  0  0  0  0
    8.4143    6.6863   16.2273 C   0  0  0  0  0  0  0  0  0  0  0  0
   10.7581    6.5674   21.7636 C   0  0  0  0  0  0  0  0  0  0  0  0
    8.4452    8.7960   19.2958 O   0  0  0  0  0  0  0  0  0  0  0  0
    8.7122    6.7842   24.8569 C   0  0  0  0  0  0  0  0  0  0  0  0
   10.3400    6.1726   14.3081 C   0  0  0  0  0  0  0  0  0  0  0  0
    7.4297    7.5873   24.8962 C   0  0  0  0  0  0  0  0  0  0  0  0
    8.1566   10.0536   16.0516 O   0  0  0  0  0  0  0  0  0  0  0  0
   12.4989    6.2074   20.1776 C   0  0  0  0  0  0  0  0  0  0  0  0
    6.9192    9.1053   20.9073 O   0  0  0  0  0  0  0  0  0  0  0  0
   14.3979    6.0729   18.7784 C   0  0  0  0  0  0  0  0  0  0  0  0
    8.6811    9.5354   16.9998 C   0  0  0  0  0  0  0  0  0  0  0  0
    9.2512    4.2713   13.7653 O   0  0  0  0  0  0  0  0  0  0  0  0
    9.6495    8.6317   16.8332 N   0  0  0  0  0  0  0  0  0  0  0  0
    6.2934    8.6988   23.1988 O   0  0  0  0  0  0  0  0  0  0  0  0
    7.9806    8.6543   20.5437 C   0  0  0  0  0  0  0  0  0  0  0  0
   13.7270    5.7144   19.8610 O   0  0  0  0  0  0  0  0  0  0  0  0
    8.3351    5.5235   15.4478 C   0  0  0  0  0  0  0  0  0  0  0  0
    8.7700    7.8434   21.3915 C   0  0  0  0  0  0  0  0  0  0  0  0
   11.7856    6.8851   19.2401 C   0  0  0  0  0  0  0  0  0  0  0  0
   10.5281    7.4276   19.5649 C   0  0  0  0  0  0  0  0  0  0  0  0
   10.0256    7.2907   20.8484 C   0  0  0  0  0  0  0  0  0  0  0  0
    9.3113    5.3049   14.4911 C   0  0  0  0  0  0  0  0  0  0  0  0
    9.4607    7.5646   16.0139 C   0  0  0  0  0  0  0  0  0  0  0  0
   10.4192    7.3157   15.0955 C   0  0  0  0  0  0  0  0  0  0  0  0
   10.2489    6.4227   23.0218 N   0  0  0  0  0  0  0  0  0  0  0  0
    7.2472    8.0746   23.5050 C   0  0  0  0  0  0  0  0  0  0  0  0
    9.2051    6.9101   23.4604 C   0  0  0  0  0  0  0  0  0  0  0  0
   11.9646    6.0299   21.4251 C   0  0  0  0  0  0  0  0  0  0  0  0
  1  5  1  0
  1 13  1  0
  2 20  2  0
  2 28  1  0
  2 29  1  0
  3 19  4  0
  3 25  4  0
  4 23  4  0
  4 27  1  0
  4 30  4  0
  5 17  1  0
  6  8  1  0
  6 29  1  0
  7 24  4  0
  7 26  4  0
  8 28  1  0
  9 13  2  0
 10 18  1  0
 10 21  4  0
 10 30  4  0
 11 17  2  0
 12 18  1  0
 13 15  1  0
 14 24  1  0
 15 25  1  0
 16 28  2  0
 17 20  1  0
 19 24  4  0
 20 23  1  0
 21 22  4  0
 22 23  4  0
 25 26  4  0
 27 29  2  0
M  END
$$$$

 Created by Python create_sdf_string function

 30 33  0  0  0  0  0  0  0  0999 V2000
    8.3036    9.8571   18.4133 C   0  0  0  0  0  0  0  0  0  0  0  0
    8.3694    7.6612   22.6703 C   0  0  0  0  0  0  0  0  0  0  0  0
    8.4143    6.6863   16.2273 C   0  0  0  0  0  0  0  0  0  0  0  0
   10.7581    6.5674   21.7636 C   0  0  0  0  0  0  0  0  0  0  0  0
    8.4452    8.7960   19.2958 O   0  0  0  0  0  0  0  0  0  0  0  0
    8.7122    6.7842   24.8569 C   0  0  0  0  0  0  0  0  0  0  0  0
   10.3400    6.1726   14.3081 C   0  0  0  0  0  0  0  0  0  0  0  0
    7.4297    7.5873   24.8962 C   0  0  0  0  0  0  0  0  0  0  0  0
    8.1566   10.0536   16.0516 O   0  0  0  0  0  0  0  0  0  0  0  0
   12.4989    6.2074   20.1776 C   0  0  0  0  0  0  0  0  0  0  0  0
    6.9192    9.1053   20.9073 O   0  0  0  0  0  0  0  0  0  0  0  0
   14.3979    6.0729   18.7784 C   0  0  0  0  0  0  0  0  0  0  0  0
    8.6811    9.5354   16.9998 C   0  0  0  0  0  0  0  0  0  0  0  0
    9.2512    4.2713   13.7653 O   0  0  0  0  0  0  0  0  0  0  0  0
    9.6495    8.6317   16.8332 N   0  0  0  0  0  0  0  0  0  0  0  0
    6.2934    8.6988   23.1988 O   0  0  0  0  0  0  0  0  0  0  0  0
    7.9806    8.6543   20.5437 C   0  0  0  0  0  0  0  0  0  0  0  0
   13.7270    5.7144   19.8610 O   0  0  0  0  0  0  0  0  0  0  0  0
    8.3351    5.5235   15.4478 C   0  0  0  0  0  0  0  0  0  0  0  0
    8.7700    7.8434   21.3915 C   0  0  0  0  0  0  0  0  0  0  0  0
   11.7856    6.8851   19.2401 C   0  0  0  0  0  0  0  0  0  0  0  0
   10.5281    7.4276   19.5649 C   0  0  0  0  0  0  0  0  0  0  0  0
   10.0256    7.2907   20.8484 C   0  0  0  0  0  0  0  0  0  0  0  0
    9.3113    5.3049   14.4911 C   0  0  0  0  0  0  0  0  0  0  0  0
    9.4607    7.5646   16.0139 C   0  0  0  0  0  0  0  0  0  0  0  0
   10.4192    7.3157   15.0955 C   0  0  0  0  0  0  0  0  0  0  0  0
   10.2489    6.4227   23.0218 N   0  0  0  0  0  0  0  0  0  0  0  0
    7.2472    8.0746   23.5050 C   0  0  0  0  0  0  0  0  0  0  0  0
    9.2051    6.9101   23.4604 C   0  0  0  0  0  0  0  0  0  0  0  0
   11.9646    6.0299   21.4251 C   0  0  0  0  0  0  0  0  0  0  0  0
  1  5  1  0
  1 13  1  0
  2 20  2  0
  2 28  1  0
  2 29  1  0
  3 19  4  0
  3 25  4  0
  4 23  4  0
  4 27  1  0
  4 30  4  0
  5 17  1  0
  6  8  1  0
  6 29  1  0
  7 24  4  0
  7 26  4  0
  8 28  1  0
  9 13  2  0
 10 18  1  0
 10 21  4  0
 10 30  4  0
 11 17  2  0
 12 18  1  0
 13 15  1  0
 14 24  1  0
 15 25  1  0
 16 28  2  0
 17 20  1  0
 19 24  4  0
 20 23  1  0
 21 22  4  0
 22 23  4  0
 25 26  4  0
 27 29  2  0
M  END
$$$$

 Created by Python create_sdf_string function

 30 33  0  0  0  0  0  0  0  0999 V2000
    8.3036    9.8571   18.4133 C   0  0  0  0  0  0  0  0  0  0  0  0
    8.3694    7.6612   22.6703 C   0  0  0  0  0  0  0  0  0  0  0  0
    8.4143    6.6863   16.2273 C   0  0  0  0  0  0  0  0  0  0  0  0
   10.7581    6.5674   21.7636 C   0  0  0  0  0  0  0  0  0  0  0  0
    8.4452    8.7960   19.2958 O   0  0  0  0  0  0  0  0  0  0  0  0
    8.7122    6.7842   24.8569 C   0  0  0  0  0  0  0  0  0  0  0  0
   10.3400    6.1726   14.3081 C   0  0  0  0  0  0  0  0  0  0  0  0
    7.4297    7.5873   24.8962 C   0  0  0  0  0  0  0  0  0  0  0  0
    8.1566   10.0536   16.0516 O   0  0  0  0  0  0  0  0  0  0  0  0
   12.4989    6.2074   20.1776 C   0  0  0  0  0  0  0  0  0  0  0  0
    6.9192    9.1053   20.9073 O   0  0  0  0  0  0  0  0  0  0  0  0
   14.3979    6.0729   18.7784 C   0  0  0  0  0  0  0  0  0  0  0  0
    8.6811    9.5354   16.9998 C   0  0  0  0  0  0  0  0  0  0  0  0
    9.2512    4.2713   13.7653 O   0  0  0  0  0  0  0  0  0  0  0  0
    9.6495    8.6317   16.8332 N   0  0  0  0  0  0  0  0  0  0  0  0
    6.2934    8.6988   23.1988 O   0  0  0  0  0  0  0  0  0  0  0  0
    7.9806    8.6543   20.5437 C   0  0  0  0  0  0  0  0  0  0  0  0
   13.7270    5.7144   19.8610 O   0  0  0  0  0  0  0  0  0  0  0  0
    8.3351    5.5235   15.4478 C   0  0  0  0  0  0  0  0  0  0  0  0
    8.7700    7.8434   21.3915 C   0  0  0  0  0  0  0  0  0  0  0  0
   11.7856    6.8851   19.2401 C   0  0  0  0  0  0  0  0  0  0  0  0
   10.5281    7.4276   19.5649 C   0  0  0  0  0  0  0  0  0  0  0  0
   10.0256    7.2907   20.8484 C   0  0  0  0  0  0  0  0  0  0  0  0
    9.3113    5.3049   14.4911 C   0  0  0  0  0  0  0  0  0  0  0  0
    9.4607    7.5646   16.0139 C   0  0  0  0  0  0  0  0  0  0  0  0
   10.4192    7.3157   15.0955 C   0  0  0  0  0  0  0  0  0  0  0  0
   10.2489    6.4227   23.0218 N   0  0  0  0  0  0  0  0  0  0  0  0
    7.2472    8.0746   23.5050 C   0  0  0  0  0  0  0  0  0  0  0  0
    9.2051    6.9101   23.4604 C   0  0  0  0  0  0  0  0  0  0  0  0
   11.9646    6.0299   21.4251 C   0  0  0  0  0  0  0  0  0  0  0  0
  1  5  1  0
  1 13  1  0
  2 20  2  0
  2 28  1  0
  2 29  1  0
  3 19  4  0
  3 25  4  0
  4 23  4  0
  4 27  1  0
  4 30  4  0
  5 17  1  0
  6  8  1  0
  6 29  1  0
  7 24  4  0
  7 26  4  0
  8 28  1  0
  9 13  2  0
 10 18  1  0
 10 21  4  0
 10 30  4  0
 11 17  2  0
 12 18  1  0
 13 15  1  0
 14 24  1  0
 15 25  1  0
 16 28  2  0
 17 20  1  0
 19 24  4  0
 20 23  1  0
 21 22  4  0
 22 23  4  0
 25 26  4  0
 27 29  2  0
M  END
$$$$

 Created by Python create_sdf_string function

 30 33  0  0  0  0  0  0  0  0999 V2000
    8.3036    9.8571   18.4133 C   0  0  0  0  0  0  0  0  0  0  0  0
    8.3694    7.6612   22.6703 C   0  0  0  0  0  0  0  0  0  0  0  0
    8.4143    6.6863   16.2273 C   0  0  0  0  0  0  0  0  0  0  0  0
   10.7581    6.5674   21.7636 C   0  0  0  0  0  0  0  0  0  0  0  0
    8.4452    8.7960   19.2958 O   0  0  0  0  0  0  0  0  0  0  0  0
    8.7122    6.7842   24.8569 C   0  0  0  0  0  0  0  0  0  0  0  0
   10.3400    6.1726   14.3081 C   0  0  0  0  0  0  0  0  0  0  0  0
    7.4297    7.5873   24.8962 C   0  0  0  0  0  0  0  0  0  0  0  0
    8.1566   10.0536   16.0516 O   0  0  0  0  0  0  0  0  0  0  0  0
   12.4989    6.2074   20.1776 C   0  0  0  0  0  0  0  0  0  0  0  0
    6.9192    9.1053   20.9073 O   0  0  0  0  0  0  0  0  0  0  0  0
   14.3979    6.0729   18.7784 C   0  0  0  0  0  0  0  0  0  0  0  0
    8.6811    9.5354   16.9998 C   0  0  0  0  0  0  0  0  0  0  0  0
    9.2512    4.2713   13.7653 O   0  0  0  0  0  0  0  0  0  0  0  0
    9.6495    8.6317   16.8332 N   0  0  0  0  0  0  0  0  0  0  0  0
    6.2934    8.6988   23.1988 O   0  0  0  0  0  0  0  0  0  0  0  0
    7.9806    8.6543   20.5437 C   0  0  0  0  0  0  0  0  0  0  0  0
   13.7270    5.7144   19.8610 O   0  0  0  0  0  0  0  0  0  0  0  0
    8.3351    5.5235   15.4478 C   0  0  0  0  0  0  0  0  0  0  0  0
    8.7700    7.8434   21.3915 C   0  0  0  0  0  0  0  0  0  0  0  0
   11.7856    6.8851   19.2401 C   0  0  0  0  0  0  0  0  0  0  0  0
   10.5281    7.4276   19.5649 C   0  0  0  0  0  0  0  0  0  0  0  0
   10.0256    7.2907   20.8484 C   0  0  0  0  0  0  0  0  0  0  0  0
    9.3113    5.3049   14.4911 C   0  0  0  0  0  0  0  0  0  0  0  0
    9.4607    7.5646   16.0139 C   0  0  0  0  0  0  0  0  0  0  0  0
   10.4192    7.3157   15.0955 C   0  0  0  0  0  0  0  0  0  0  0  0
   10.2489    6.4227   23.0218 N   0  0  0  0  0  0  0  0  0  0  0  0
    7.2472    8.0746   23.5050 C   0  0  0  0  0  0  0  0  0  0  0  0
    9.2051    6.9101   23.4604 C   0  0  0  0  0  0  0  0  0  0  0  0
   11.9646    6.0299   21.4251 C   0  0  0  0  0  0  0  0  0  0  0  0
  1  5  1  0
  1 13  1  0
  2 20  2  0
  2 28  1  0
  2 29  1  0
  3 19  4  0
  3 25  4  0
  4 23  4  0
  4 27  1  0
  4 30  4  0
  5 17  1  0
  6  8  1  0
  6 29  1  0
  7 24  4  0
  7 26  4  0
  8 28  1  0
  9 13  2  0
 10 18  1  0
 10 21  4  0
 10 30  4  0
 11 17  2  0
 12 18  1  0
 13 15  1  0
 14 24  1  0
 15 25  1  0
 16 28  2  0
 17 20  1  0
 19 24  4  0
 20 23  1  0
 21 22  4  0
 22 23  4  0
 25 26  4  0
 27 29  2  0
M  END
$$$$

 Created by Python create_sdf_string function

 30 33  0  0  0  0  0  0  0  0999 V2000
    8.3036    9.8571   18.4133 C   0  0  0  0  0  0  0  0  0  0  0  0
    8.3694    7.6612   22.6703 C   0  0  0  0  0  0  0  0  0  0  0  0
    8.4143    6.6863   16.2273 C   0  0  0  0  0  0  0  0  0  0  0  0
   10.7581    6.5674   21.7636 C   0  0  0  0  0  0  0  0  0  0  0  0
    8.4452    8.7960   19.2958 O   0  0  0  0  0  0  0  0  0  0  0  0
    8.7122    6.7842   24.8569 C   0  0  0  0  0  0  0  0  0  0  0  0
   10.3400    6.1726   14.3081 C   0  0  0  0  0  0  0  0  0  0  0  0
    7.4297    7.5873   24.8962 C   0  0  0  0  0  0  0  0  0  0  0  0
    8.1566   10.0536   16.0516 O   0  0  0  0  0  0  0  0  0  0  0  0
   12.4989    6.2074   20.1776 C   0  0  0  0  0  0  0  0  0  0  0  0
    6.9192    9.1053   20.9073 O   0  0  0  0  0  0  0  0  0  0  0  0
   14.3979    6.0729   18.7784 C   0  0  0  0  0  0  0  0  0  0  0  0
    8.6811    9.5354   16.9998 C   0  0  0  0  0  0  0  0  0  0  0  0
    9.2512    4.2713   13.7653 O   0  0  0  0  0  0  0  0  0  0  0  0
    9.6495    8.6317   16.8332 N   0  0  0  0  0  0  0  0  0  0  0  0
    6.2934    8.6988   23.1988 O   0  0  0  0  0  0  0  0  0  0  0  0
    7.9806    8.6543   20.5437 C   0  0  0  0  0  0  0  0  0  0  0  0
   13.7270    5.7144   19.8610 O   0  0  0  0  0  0  0  0  0  0  0  0
    8.3351    5.5235   15.4478 C   0  0  0  0  0  0  0  0  0  0  0  0
    8.7700    7.8434   21.3915 C   0  0  0  0  0  0  0  0  0  0  0  0
   11.7856    6.8851   19.2401 C   0  0  0  0  0  0  0  0  0  0  0  0
   10.5281    7.4276   19.5649 C   0  0  0  0  0  0  0  0  0  0  0  0
   10.0256    7.2907   20.8484 C   0  0  0  0  0  0  0  0  0  0  0  0
    9.3113    5.3049   14.4911 C   0  0  0  0  0  0  0  0  0  0  0  0
    9.4607    7.5646   16.0139 C   0  0  0  0  0  0  0  0  0  0  0  0
   10.4192    7.3157   15.0955 C   0  0  0  0  0  0  0  0  0  0  0  0
   10.2489    6.4227   23.0218 N   0  0  0  0  0  0  0  0  0  0  0  0
    7.2472    8.0746   23.5050 C   0  0  0  0  0  0  0  0  0  0  0  0
    9.2051    6.9101   23.4604 C   0  0  0  0  0  0  0  0  0  0  0  0
   11.9646    6.0299   21.4251 C   0  0  0  0  0  0  0  0  0  0  0  0
  1  5  1  0
  1 13  1  0
  2 20  2  0
  2 28  1  0
  2 29  1  0
  3 19  4  0
  3 25  4  0
  4 23  4  0
  4 27  1  0
  4 30  4  0
  5 17  1  0
  6  8  1  0
  6 29  1  0
  7 24  4  0
  7 26  4  0
  8 28  1  0
  9 13  2  0
 10 18  1  0
 10 21  4  0
 10 30  4  0
 11 17  2  0
 12 18  1  0
 13 15  1  0
 14 24  1  0
 15 25  1  0
 16 28  2  0
 17 20  1  0
 19 24  4  0
 20 23  1  0
 21 22  4  0
 22 23  4  0
 25 26  4  0
 27 29  2  0
M  END
$$$$

 Created by Python create_sdf_string function

 30 33  0  0  0  0  0  0  0  0999 V2000
    8.3036    9.8571   18.4133 C   0  0  0  0  0  0  0  0  0  0  0  0
    8.3694    7.6612   22.6703 C   0  0  0  0  0  0  0  0  0  0  0  0
    8.4143    6.6863   16.2273 C   0  0  0  0  0  0  0  0  0  0  0  0
   10.7581    6.5674   21.7636 C   0  0  0  0  0  0  0  0  0  0  0  0
    8.4452    8.7960   19.2958 O   0  0  0  0  0  0  0  0  0  0  0  0
    8.7122    6.7842   24.8569 C   0  0  0  0  0  0  0  0  0  0  0  0
   10.3400    6.1726   14.3081 C   0  0  0  0  0  0  0  0  0  0  0  0
    7.4297    7.5873   24.8962 C   0  0  0  0  0  0  0  0  0  0  0  0
    8.1566   10.0536   16.0516 O   0  0  0  0  0  0  0  0  0  0  0  0
   12.4989    6.2074   20.1776 C   0  0  0  0  0  0  0  0  0  0  0  0
    6.9192    9.1053   20.9073 O   0  0  0  0  0  0  0  0  0  0  0  0
   14.3979    6.0729   18.7784 C   0  0  0  0  0  0  0  0  0  0  0  0
    8.6811    9.5354   16.9998 C   0  0  0  0  0  0  0  0  0  0  0  0
    9.2512    4.2713   13.7653 O   0  0  0  0  0  0  0  0  0  0  0  0
    9.6495    8.6317   16.8332 N   0  0  0  0  0  0  0  0  0  0  0  0
    6.2934    8.6988   23.1988 O   0  0  0  0  0  0  0  0  0  0  0  0
    7.9806    8.6543   20.5437 C   0  0  0  0  0  0  0  0  0  0  0  0
   13.7270    5.7144   19.8610 O   0  0  0  0  0  0  0  0  0  0  0  0
    8.3351    5.5235   15.4478 C   0  0  0  0  0  0  0  0  0  0  0  0
    8.7700    7.8434   21.3915 C   0  0  0  0  0  0  0  0  0  0  0  0
   11.7856    6.8851   19.2401 C   0  0  0  0  0  0  0  0  0  0  0  0
   10.5281    7.4276   19.5649 C   0  0  0  0  0  0  0  0  0  0  0  0
   10.0256    7.2907   20.8484 C   0  0  0  0  0  0  0  0  0  0  0  0
    9.3113    5.3049   14.4911 C   0  0  0  0  0  0  0  0  0  0  0  0
    9.4607    7.5646   16.0139 C   0  0  0  0  0  0  0  0  0  0  0  0
   10.4192    7.3157   15.0955 C   0  0  0  0  0  0  0  0  0  0  0  0
   10.2489    6.4227   23.0218 N   0  0  0  0  0  0  0  0  0  0  0  0
    7.2472    8.0746   23.5050 C   0  0  0  0  0  0  0  0  0  0  0  0
    9.2051    6.9101   23.4604 C   0  0  0  0  0  0  0  0  0  0  0  0
   11.9646    6.0299   21.4251 C   0  0  0  0  0  0  0  0  0  0  0  0
  1  5  1  0
  1 13  1  0
  2 20  2  0
  2 28  1  0
  2 29  1  0
  3 19  4  0
  3 25  4  0
  4 23  4  0
  4 27  1  0
  4 30  4  0
  5 17  1  0
  6  8  1  0
  6 29  1  0
  7 24  4  0
  7 26  4  0
  8 28  1  0
  9 13  2  0
 10 18  1  0
 10 21  4  0
 10 30  4  0
 11 17  2  0
 12 18  1  0
 13 15  1  0
 14 24  1  0
 15 25  1  0
 16 28  2  0
 17 20  1  0
 19 24  4  0
 20 23  1  0
 21 22  4  0
 22 23  4  0
 25 26  4  0
 27 29  2  0
M  END
$$$$

 Created by Python create_sdf_string function

 30 33  0  0  0  0  0  0  0  0999 V2000
    8.3036    9.8571   18.4133 C   0  0  0  0  0  0  0  0  0  0  0  0
    8.3694    7.6612   22.6703 C   0  0  0  0  0  0  0  0  0  0  0  0
    8.4143    6.6863   16.2273 C   0  0  0  0  0  0  0  0  0  0  0  0
   10.7581    6.5674   21.7636 C   0  0  0  0  0  0  0  0  0  0  0  0
    8.4452    8.7960   19.2958 O   0  0  0  0  0  0  0  0  0  0  0  0
    8.7122    6.7842   24.8569 C   0  0  0  0  0  0  0  0  0  0  0  0
   10.3400    6.1726   14.3081 C   0  0  0  0  0  0  0  0  0  0  0  0
    7.4297    7.5873   24.8962 C   0  0  0  0  0  0  0  0  0  0  0  0
    8.1566   10.0536   16.0516 O   0  0  0  0  0  0  0  0  0  0  0  0
   12.4989    6.2074   20.1776 C   0  0  0  0  0  0  0  0  0  0  0  0
    6.9192    9.1053   20.9073 O   0  0  0  0  0  0  0  0  0  0  0  0
   14.3979    6.0729   18.7784 C   0  0  0  0  0  0  0  0  0  0  0  0
    8.6811    9.5354   16.9998 C   0  0  0  0  0  0  0  0  0  0  0  0
    9.2512    4.2713   13.7653 O   0  0  0  0  0  0  0  0  0  0  0  0
    9.6495    8.6317   16.8332 N   0  0  0  0  0  0  0  0  0  0  0  0
    6.2934    8.6988   23.1988 O   0  0  0  0  0  0  0  0  0  0  0  0
    7.9806    8.6543   20.5437 C   0  0  0  0  0  0  0  0  0  0  0  0
   13.7270    5.7144   19.8610 O   0  0  0  0  0  0  0  0  0  0  0  0
    8.3351    5.5235   15.4478 C   0  0  0  0  0  0  0  0  0  0  0  0
    8.7700    7.8434   21.3915 C   0  0  0  0  0  0  0  0  0  0  0  0
   11.7856    6.8851   19.2401 C   0  0  0  0  0  0  0  0  0  0  0  0
   10.5281    7.4276   19.5649 C   0  0  0  0  0  0  0  0  0  0  0  0
   10.0256    7.2907   20.8484 C   0  0  0  0  0  0  0  0  0  0  0  0
    9.3113    5.3049   14.4911 C   0  0  0  0  0  0  0  0  0  0  0  0
    9.4607    7.5646   16.0139 C   0  0  0  0  0  0  0  0  0  0  0  0
   10.4192    7.3157   15.0955 C   0  0  0  0  0  0  0  0  0  0  0  0
   10.2489    6.4227   23.0218 N   0  0  0  0  0  0  0  0  0  0  0  0
    7.2472    8.0746   23.5050 C   0  0  0  0  0  0  0  0  0  0  0  0
    9.2051    6.9101   23.4604 C   0  0  0  0  0  0  0  0  0  0  0  0
   11.9646    6.0299   21.4251 C   0  0  0  0  0  0  0  0  0  0  0  0
  1  5  1  0
  1 13  1  0
  2 20  2  0
  2 28  1  0
  2 29  1  0
  3 19  4  0
  3 25  4  0
  4 23  4  0
  4 27  1  0
  4 30  4  0
  5 17  1  0
  6  8  1  0
  6 29  1  0
  7 24  4  0
  7 26  4  0
  8 28  1  0
  9 13  2  0
 10 18  1  0
 10 21  4  0
 10 30  4  0
 11 17  2  0
 12 18  1  0
 13 15  1  0
 14 24  1  0
 15 25  1  0
 16 28  2  0
 17 20  1  0
 19 24  4  0
 20 23  1  0
 21 22  4  0
 22 23  4  0
 25 26  4  0
 27 29  2  0
M  END
$$$$

 Created by Python create_sdf_string function

 30 33  0  0  0  0  0  0  0  0999 V2000
    8.3036    9.8571   18.4133 C   0  0  0  0  0  0  0  0  0  0  0  0
    8.3694    7.6612   22.6703 C   0  0  0  0  0  0  0  0  0  0  0  0
    8.4143    6.6863   16.2273 C   0  0  0  0  0  0  0  0  0  0  0  0
   10.7581    6.5674   21.7636 C   0  0  0  0  0  0  0  0  0  0  0  0
    8.4452    8.7960   19.2958 O   0  0  0  0  0  0  0  0  0  0  0  0
    8.7122    6.7842   24.8569 C   0  0  0  0  0  0  0  0  0  0  0  0
   10.3400    6.1726   14.3081 C   0  0  0  0  0  0  0  0  0  0  0  0
    7.4297    7.5873   24.8962 C   0  0  0  0  0  0  0  0  0  0  0  0
    8.1566   10.0536   16.0516 O   0  0  0  0  0  0  0  0  0  0  0  0
   12.4989    6.2074   20.1776 C   0  0  0  0  0  0  0  0  0  0  0  0
    6.9192    9.1053   20.9073 O   0  0  0  0  0  0  0  0  0  0  0  0
   14.3979    6.0729   18.7784 C   0  0  0  0  0  0  0  0  0  0  0  0
    8.6811    9.5354   16.9998 C   0  0  0  0  0  0  0  0  0  0  0  0
    9.2512    4.2713   13.7653 O   0  0  0  0  0  0  0  0  0  0  0  0
    9.6495    8.6317   16.8332 N   0  0  0  0  0  0  0  0  0  0  0  0
    6.2934    8.6988   23.1988 O   0  0  0  0  0  0  0  0  0  0  0  0
    7.9806    8.6543   20.5437 C   0  0  0  0  0  0  0  0  0  0  0  0
   13.7270    5.7144   19.8610 O   0  0  0  0  0  0  0  0  0  0  0  0
    8.3351    5.5235   15.4478 C   0  0  0  0  0  0  0  0  0  0  0  0
    8.7700    7.8434   21.3915 C   0  0  0  0  0  0  0  0  0  0  0  0
   11.7856    6.8851   19.2401 C   0  0  0  0  0  0  0  0  0  0  0  0
   10.5281    7.4276   19.5649 C   0  0  0  0  0  0  0  0  0  0  0  0
   10.0256    7.2907   20.8484 C   0  0  0  0  0  0  0  0  0  0  0  0
    9.3113    5.3049   14.4911 C   0  0  0  0  0  0  0  0  0  0  0  0
    9.4607    7.5646   16.0139 C   0  0  0  0  0  0  0  0  0  0  0  0
   10.4192    7.3157   15.0955 C   0  0  0  0  0  0  0  0  0  0  0  0
   10.2489    6.4227   23.0218 N   0  0  0  0  0  0  0  0  0  0  0  0
    7.2472    8.0746   23.5050 C   0  0  0  0  0  0  0  0  0  0  0  0
    9.2051    6.9101   23.4604 C   0  0  0  0  0  0  0  0  0  0  0  0
   11.9646    6.0299   21.4251 C   0  0  0  0  0  0  0  0  0  0  0  0
  1  5  1  0
  1 13  1  0
  2 20  2  0
  2 28  1  0
  2 29  1  0
  3 19  4  0
  3 25  4  0
  4 23  4  0
  4 27  1  0
  4 30  4  0
  5 17  1  0
  6  8  1  0
  6 29  1  0
  7 24  4  0
  7 26  4  0
  8 28  1  0
  9 13  2  0
 10 18  1  0
 10 21  4  0
 10 30  4  0
 11 17  2  0
 12 18  1  0
 13 15  1  0
 14 24  1  0
 15 25  1  0
 16 28  2  0
 17 20  1  0
 19 24  4  0
 20 23  1  0
 21 22  4  0
 22 23  4  0
 25 26  4  0
 27 29  2  0
M  END
$$$$

 Created by Python create_sdf_string function

 30 33  0  0  0  0  0  0  0  0999 V2000
    8.3036    9.8571   18.4133 C   0  0  0  0  0  0  0  0  0  0  0  0
    8.3694    7.6612   22.6703 C   0  0  0  0  0  0  0  0  0  0  0  0
    8.4143    6.6863   16.2273 C   0  0  0  0  0  0  0  0  0  0  0  0
   10.7581    6.5674   21.7636 C   0  0  0  0  0  0  0  0  0  0  0  0
    8.4452    8.7960   19.2958 O   0  0  0  0  0  0  0  0  0  0  0  0
    8.7122    6.7842   24.8569 C   0  0  0  0  0  0  0  0  0  0  0  0
   10.3400    6.1726   14.3081 C   0  0  0  0  0  0  0  0  0  0  0  0
    7.4297    7.5873   24.8962 C   0  0  0  0  0  0  0  0  0  0  0  0
    8.1566   10.0536   16.0516 O   0  0  0  0  0  0  0  0  0  0  0  0
   12.4989    6.2074   20.1776 C   0  0  0  0  0  0  0  0  0  0  0  0
    6.9192    9.1053   20.9073 O   0  0  0  0  0  0  0  0  0  0  0  0
   14.3979    6.0729   18.7784 C   0  0  0  0  0  0  0  0  0  0  0  0
    8.6811    9.5354   16.9998 C   0  0  0  0  0  0  0  0  0  0  0  0
    9.2512    4.2713   13.7653 O   0  0  0  0  0  0  0  0  0  0  0  0
    9.6495    8.6317   16.8332 N   0  0  0  0  0  0  0  0  0  0  0  0
    6.2934    8.6988   23.1988 O   0  0  0  0  0  0  0  0  0  0  0  0
    7.9806    8.6543   20.5437 C   0  0  0  0  0  0  0  0  0  0  0  0
   13.7270    5.7144   19.8610 O   0  0  0  0  0  0  0  0  0  0  0  0
    8.3351    5.5235   15.4478 C   0  0  0  0  0  0  0  0  0  0  0  0
    8.7700    7.8434   21.3915 C   0  0  0  0  0  0  0  0  0  0  0  0
   11.7856    6.8851   19.2401 C   0  0  0  0  0  0  0  0  0  0  0  0
   10.5281    7.4276   19.5649 C   0  0  0  0  0  0  0  0  0  0  0  0
   10.0256    7.2907   20.8484 C   0  0  0  0  0  0  0  0  0  0  0  0
    9.3113    5.3049   14.4911 C   0  0  0  0  0  0  0  0  0  0  0  0
    9.4607    7.5646   16.0139 C   0  0  0  0  0  0  0  0  0  0  0  0
   10.4192    7.3157   15.0955 C   0  0  0  0  0  0  0  0  0  0  0  0
   10.2489    6.4227   23.0218 N   0  0  0  0  0  0  0  0  0  0  0  0
    7.2472    8.0746   23.5050 C   0  0  0  0  0  0  0  0  0  0  0  0
    9.2051    6.9101   23.4604 C   0  0  0  0  0  0  0  0  0  0  0  0
   11.9646    6.0299   21.4251 C   0  0  0  0  0  0  0  0  0  0  0  0
  1  5  1  0
  1 13  1  0
  2 20  2  0
  2 28  1  0
  2 29  1  0
  3 19  4  0
  3 25  4  0
  4 23  4  0
  4 27  1  0
  4 30  4  0
  5 17  1  0
  6  8  1  0
  6 29  1  0
  7 24  4  0
  7 26  4  0
  8 28  1  0
  9 13  2  0
 10 18  1  0
 10 21  4  0
 10 30  4  0
 11 17  2  0
 12 18  1  0
 13 15  1  0
 14 24  1  0
 15 25  1  0
 16 28  2  0
 17 20  1  0
 19 24  4  0
 20 23  1  0
 21 22  4  0
 22 23  4  0
 25 26  4  0
 27 29  2  0
M  END
$$$$

 Created by Python create_sdf_string function

 30 33  0  0  0  0  0  0  0  0999 V2000
    8.3036    9.8571   18.4133 C   0  0  0  0  0  0  0  0  0  0  0  0
    8.3694    7.6612   22.6703 C   0  0  0  0  0  0  0  0  0  0  0  0
    8.4143    6.6863   16.2273 C   0  0  0  0  0  0  0  0  0  0  0  0
   10.7581    6.5674   21.7636 C   0  0  0  0  0  0  0  0  0  0  0  0
    8.4452    8.7960   19.2958 O   0  0  0  0  0  0  0  0  0  0  0  0
    8.7122    6.7842   24.8569 C   0  0  0  0  0  0  0  0  0  0  0  0
   10.3400    6.1726   14.3081 C   0  0  0  0  0  0  0  0  0  0  0  0
    7.4297    7.5873   24.8962 C   0  0  0  0  0  0  0  0  0  0  0  0
    8.1566   10.0536   16.0516 O   0  0  0  0  0  0  0  0  0  0  0  0
   12.4989    6.2074   20.1776 C   0  0  0  0  0  0  0  0  0  0  0  0
    6.9192    9.1053   20.9073 O   0  0  0  0  0  0  0  0  0  0  0  0
   14.3979    6.0729   18.7784 C   0  0  0  0  0  0  0  0  0  0  0  0
    8.6811    9.5354   16.9998 C   0  0  0  0  0  0  0  0  0  0  0  0
    9.2512    4.2713   13.7653 O   0  0  0  0  0  0  0  0  0  0  0  0
    9.6495    8.6317   16.8332 N   0  0  0  0  0  0  0  0  0  0  0  0
    6.2934    8.6988   23.1988 O   0  0  0  0  0  0  0  0  0  0  0  0
    7.9806    8.6543   20.5437 C   0  0  0  0  0  0  0  0  0  0  0  0
   13.7270    5.7144   19.8610 O   0  0  0  0  0  0  0  0  0  0  0  0
    8.3351    5.5235   15.4478 C   0  0  0  0  0  0  0  0  0  0  0  0
    8.7700    7.8434   21.3915 C   0  0  0  0  0  0  0  0  0  0  0  0
   11.7856    6.8851   19.2401 C   0  0  0  0  0  0  0  0  0  0  0  0
   10.5281    7.4276   19.5649 C   0  0  0  0  0  0  0  0  0  0  0  0
   10.0256    7.2907   20.8484 C   0  0  0  0  0  0  0  0  0  0  0  0
    9.3113    5.3049   14.4911 C   0  0  0  0  0  0  0  0  0  0  0  0
    9.4607    7.5646   16.0139 C   0  0  0  0  0  0  0  0  0  0  0  0
   10.4192    7.3157   15.0955 C   0  0  0  0  0  0  0  0  0  0  0  0
   10.2489    6.4227   23.0218 N   0  0  0  0  0  0  0  0  0  0  0  0
    7.2472    8.0746   23.5050 C   0  0  0  0  0  0  0  0  0  0  0  0
    9.2051    6.9101   23.4604 C   0  0  0  0  0  0  0  0  0  0  0  0
   11.9646    6.0299   21.4251 C   0  0  0  0  0  0  0  0  0  0  0  0
  1  5  1  0
  1 13  1  0
  2 20  2  0
  2 28  1  0
  2 29  1  0
  3 19  4  0
  3 25  4  0
  4 23  4  0
  4 27  1  0
  4 30  4  0
  5 17  1  0
  6  8  1  0
  6 29  1  0
  7 24  4  0
  7 26  4  0
  8 28  1  0
  9 13  2  0
 10 18  1  0
 10 21  4  0
 10 30  4  0
 11 17  2  0
 12 18  1  0
 13 15  1  0
 14 24  1  0
 15 25  1  0
 16 28  2  0
 17 20  1  0
 19 24  4  0
 20 23  1  0
 21 22  4  0
 22 23  4  0
 25 26  4  0
 27 29  2  0
M  END
$$$$

 Created by Python create_sdf_string function

 30 33  0  0  0  0  0  0  0  0999 V2000
    8.3036    9.8571   18.4133 C   0  0  0  0  0  0  0  0  0  0  0  0
    8.3694    7.6612   22.6703 C   0  0  0  0  0  0  0  0  0  0  0  0
    8.4143    6.6863   16.2273 C   0  0  0  0  0  0  0  0  0  0  0  0
   10.7581    6.5674   21.7636 C   0  0  0  0  0  0  0  0  0  0  0  0
    8.4452    8.7960   19.2958 O   0  0  0  0  0  0  0  0  0  0  0  0
    8.7122    6.7842   24.8569 C   0  0  0  0  0  0  0  0  0  0  0  0
   10.3400    6.1726   14.3081 C   0  0  0  0  0  0  0  0  0  0  0  0
    7.4297    7.5873   24.8962 C   0  0  0  0  0  0  0  0  0  0  0  0
    8.1566   10.0536   16.0516 O   0  0  0  0  0  0  0  0  0  0  0  0
   12.4989    6.2074   20.1776 C   0  0  0  0  0  0  0  0  0  0  0  0
    6.9192    9.1053   20.9073 O   0  0  0  0  0  0  0  0  0  0  0  0
   14.3979    6.0729   18.7784 C   0  0  0  0  0  0  0  0  0  0  0  0
    8.6811    9.5354   16.9998 C   0  0  0  0  0  0  0  0  0  0  0  0
    9.2512    4.2713   13.7653 O   0  0  0  0  0  0  0  0  0  0  0  0
    9.6495    8.6317   16.8332 N   0  0  0  0  0  0  0  0  0  0  0  0
    6.2934    8.6988   23.1988 O   0  0  0  0  0  0  0  0  0  0  0  0
    7.9806    8.6543   20.5437 C   0  0  0  0  0  0  0  0  0  0  0  0
   13.7270    5.7144   19.8610 O   0  0  0  0  0  0  0  0  0  0  0  0
    8.3351    5.5235   15.4478 C   0  0  0  0  0  0  0  0  0  0  0  0
    8.7700    7.8434   21.3915 C   0  0  0  0  0  0  0  0  0  0  0  0
   11.7856    6.8851   19.2401 C   0  0  0  0  0  0  0  0  0  0  0  0
   10.5281    7.4276   19.5649 C   0  0  0  0  0  0  0  0  0  0  0  0
   10.0256    7.2907   20.8484 C   0  0  0  0  0  0  0  0  0  0  0  0
    9.3113    5.3049   14.4911 C   0  0  0  0  0  0  0  0  0  0  0  0
    9.4607    7.5646   16.0139 C   0  0  0  0  0  0  0  0  0  0  0  0
   10.4192    7.3157   15.0955 C   0  0  0  0  0  0  0  0  0  0  0  0
   10.2489    6.4227   23.0218 N   0  0  0  0  0  0  0  0  0  0  0  0
    7.2472    8.0746   23.5050 C   0  0  0  0  0  0  0  0  0  0  0  0
    9.2051    6.9101   23.4604 C   0  0  0  0  0  0  0  0  0  0  0  0
   11.9646    6.0299   21.4251 C   0  0  0  0  0  0  0  0  0  0  0  0
  1  5  1  0
  1 13  1  0
  2 20  2  0
  2 28  1  0
  2 29  1  0
  3 19  4  0
  3 25  4  0
  4 23  4  0
  4 27  1  0
  4 30  4  0
  5 17  1  0
  6  8  1  0
  6 29  1  0
  7 24  4  0
  7 26  4  0
  8 28  1  0
  9 13  2  0
 10 18  1  0
 10 21  4  0
 10 30  4  0
 11 17  2  0
 12 18  1  0
 13 15  1  0
 14 24  1  0
 15 25  1  0
 16 28  2  0
 17 20  1  0
 19 24  4  0
 20 23  1  0
 21 22  4  0
 22 23  4  0
 25 26  4  0
 27 29  2  0
M  END
$$$$

 Created by Python create_sdf_string function

 30 33  0  0  0  0  0  0  0  0999 V2000
    8.3036    9.8571   18.4133 C   0  0  0  0  0  0  0  0  0  0  0  0
    8.3694    7.6612   22.6703 C   0  0  0  0  0  0  0  0  0  0  0  0
    8.4143    6.6863   16.2273 C   0  0  0  0  0  0  0  0  0  0  0  0
   10.7581    6.5674   21.7636 C   0  0  0  0  0  0  0  0  0  0  0  0
    8.4452    8.7960   19.2958 O   0  0  0  0  0  0  0  0  0  0  0  0
    8.7122    6.7842   24.8569 C   0  0  0  0  0  0  0  0  0  0  0  0
   10.3400    6.1726   14.3081 C   0  0  0  0  0  0  0  0  0  0  0  0
    7.4297    7.5873   24.8962 C   0  0  0  0  0  0  0  0  0  0  0  0
    8.1566   10.0536   16.0516 O   0  0  0  0  0  0  0  0  0  0  0  0
   12.4989    6.2074   20.1776 C   0  0  0  0  0  0  0  0  0  0  0  0
    6.9192    9.1053   20.9073 O   0  0  0  0  0  0  0  0  0  0  0  0
   14.3979    6.0729   18.7784 C   0  0  0  0  0  0  0  0  0  0  0  0
    8.6811    9.5354   16.9998 C   0  0  0  0  0  0  0  0  0  0  0  0
    9.2512    4.2713   13.7653 O   0  0  0  0  0  0  0  0  0  0  0  0
    9.6495    8.6317   16.8332 N   0  0  0  0  0  0  0  0  0  0  0  0
    6.2934    8.6988   23.1988 O   0  0  0  0  0  0  0  0  0  0  0  0
    7.9806    8.6543   20.5437 C   0  0  0  0  0  0  0  0  0  0  0  0
   13.7270    5.7144   19.8610 O   0  0  0  0  0  0  0  0  0  0  0  0
    8.3351    5.5235   15.4478 C   0  0  0  0  0  0  0  0  0  0  0  0
    8.7700    7.8434   21.3915 C   0  0  0  0  0  0  0  0  0  0  0  0
   11.7856    6.8851   19.2401 C   0  0  0  0  0  0  0  0  0  0  0  0
   10.5281    7.4276   19.5649 C   0  0  0  0  0  0  0  0  0  0  0  0
   10.0256    7.2907   20.8484 C   0  0  0  0  0  0  0  0  0  0  0  0
    9.3113    5.3049   14.4911 C   0  0  0  0  0  0  0  0  0  0  0  0
    9.4607    7.5646   16.0139 C   0  0  0  0  0  0  0  0  0  0  0  0
   10.4192    7.3157   15.0955 C   0  0  0  0  0  0  0  0  0  0  0  0
   10.2489    6.4227   23.0218 N   0  0  0  0  0  0  0  0  0  0  0  0
    7.2472    8.0746   23.5050 C   0  0  0  0  0  0  0  0  0  0  0  0
    9.2051    6.9101   23.4604 C   0  0  0  0  0  0  0  0  0  0  0  0
   11.9646    6.0299   21.4251 C   0  0  0  0  0  0  0  0  0  0  0  0
  1  5  1  0
  1 13  1  0
  2 20  2  0
  2 28  1  0
  2 29  1  0
  3 19  4  0
  3 25  4  0
  4 23  4  0
  4 27  1  0
  4 30  4  0
  5 17  1  0
  6  8  1  0
  6 29  1  0
  7 24  4  0
  7 26  4  0
  8 28  1  0
  9 13  2  0
 10 18  1  0
 10 21  4  0
 10 30  4  0
 11 17  2  0
 12 18  1  0
 13 15  1  0
 14 24  1  0
 15 25  1  0
 16 28  2  0
 17 20  1  0
 19 24  4  0
 20 23  1  0
 21 22  4  0
 22 23  4  0
 25 26  4  0
 27 29  2  0
M  END
$$$$

 Created by Python create_sdf_string function

 30 33  0  0  0  0  0  0  0  0999 V2000
    8.3036    9.8571   18.4133 C   0  0  0  0  0  0  0  0  0  0  0  0
    8.3694    7.6612   22.6703 C   0  0  0  0  0  0  0  0  0  0  0  0
    8.4143    6.6863   16.2273 C   0  0  0  0  0  0  0  0  0  0  0  0
   10.7581    6.5674   21.7636 C   0  0  0  0  0  0  0  0  0  0  0  0
    8.4452    8.7960   19.2958 O   0  0  0  0  0  0  0  0  0  0  0  0
    8.7122    6.7842   24.8569 C   0  0  0  0  0  0  0  0  0  0  0  0
   10.3400    6.1726   14.3081 C   0  0  0  0  0  0  0  0  0  0  0  0
    7.4297    7.5873   24.8962 C   0  0  0  0  0  0  0  0  0  0  0  0
    8.1566   10.0536   16.0516 O   0  0  0  0  0  0  0  0  0  0  0  0
   12.4989    6.2074   20.1776 C   0  0  0  0  0  0  0  0  0  0  0  0
    6.9192    9.1053   20.9073 O   0  0  0  0  0  0  0  0  0  0  0  0
   14.3979    6.0729   18.7784 C   0  0  0  0  0  0  0  0  0  0  0  0
    8.6811    9.5354   16.9998 C   0  0  0  0  0  0  0  0  0  0  0  0
    9.2512    4.2713   13.7653 O   0  0  0  0  0  0  0  0  0  0  0  0
    9.6495    8.6317   16.8332 N   0  0  0  0  0  0  0  0  0  0  0  0
    6.2934    8.6988   23.1988 O   0  0  0  0  0  0  0  0  0  0  0  0
    7.9806    8.6543   20.5437 C   0  0  0  0  0  0  0  0  0  0  0  0
   13.7270    5.7144   19.8610 O   0  0  0  0  0  0  0  0  0  0  0  0
    8.3351    5.5235   15.4478 C   0  0  0  0  0  0  0  0  0  0  0  0
    8.7700    7.8434   21.3915 C   0  0  0  0  0  0  0  0  0  0  0  0
   11.7856    6.8851   19.2401 C   0  0  0  0  0  0  0  0  0  0  0  0
   10.5281    7.4276   19.5649 C   0  0  0  0  0  0  0  0  0  0  0  0
   10.0256    7.2907   20.8484 C   0  0  0  0  0  0  0  0  0  0  0  0
    9.3113    5.3049   14.4911 C   0  0  0  0  0  0  0  0  0  0  0  0
    9.4607    7.5646   16.0139 C   0  0  0  0  0  0  0  0  0  0  0  0
   10.4192    7.3157   15.0955 C   0  0  0  0  0  0  0  0  0  0  0  0
   10.2489    6.4227   23.0218 N   0  0  0  0  0  0  0  0  0  0  0  0
    7.2472    8.0746   23.5050 C   0  0  0  0  0  0  0  0  0  0  0  0
    9.2051    6.9101   23.4604 C   0  0  0  0  0  0  0  0  0  0  0  0
   11.9646    6.0299   21.4251 C   0  0  0  0  0  0  0  0  0  0  0  0
  1  5  1  0
  1 13  1  0
  2 20  2  0
  2 28  1  0
  2 29  1  0
  3 19  4  0
  3 25  4  0
  4 23  4  0
  4 27  1  0
  4 30  4  0
  5 17  1  0
  6  8  1  0
  6 29  1  0
  7 24  4  0
  7 26  4  0
  8 28  1  0
  9 13  2  0
 10 18  1  0
 10 21  4  0
 10 30  4  0
 11 17  2  0
 12 18  1  0
 13 15  1  0
 14 24  1  0
 15 25  1  0
 16 28  2  0
 17 20  1  0
 19 24  4  0
 20 23  1  0
 21 22  4  0
 22 23  4  0
 25 26  4  0
 27 29  2  0
M  END
$$$$

 Created by Python create_sdf_string function

 30 33  0  0  0  0  0  0  0  0999 V2000
    8.3036    9.8571   18.4133 C   0  0  0  0  0  0  0  0  0  0  0  0
    8.3694    7.6612   22.6703 C   0  0  0  0  0  0  0  0  0  0  0  0
    8.4143    6.6863   16.2273 C   0  0  0  0  0  0  0  0  0  0  0  0
   10.7581    6.5674   21.7636 C   0  0  0  0  0  0  0  0  0  0  0  0
    8.4452    8.7960   19.2958 O   0  0  0  0  0  0  0  0  0  0  0  0
    8.7122    6.7842   24.8569 C   0  0  0  0  0  0  0  0  0  0  0  0
   10.3400    6.1726   14.3081 C   0  0  0  0  0  0  0  0  0  0  0  0
    7.4297    7.5873   24.8962 C   0  0  0  0  0  0  0  0  0  0  0  0
    8.1566   10.0536   16.0516 O   0  0  0  0  0  0  0  0  0  0  0  0
   12.4989    6.2074   20.1776 C   0  0  0  0  0  0  0  0  0  0  0  0
    6.9192    9.1053   20.9073 O   0  0  0  0  0  0  0  0  0  0  0  0
   14.3979    6.0729   18.7784 C   0  0  0  0  0  0  0  0  0  0  0  0
    8.6811    9.5354   16.9998 C   0  0  0  0  0  0  0  0  0  0  0  0
    9.2512    4.2713   13.7653 O   0  0  0  0  0  0  0  0  0  0  0  0
    9.6495    8.6317   16.8332 N   0  0  0  0  0  0  0  0  0  0  0  0
    6.2934    8.6988   23.1988 O   0  0  0  0  0  0  0  0  0  0  0  0
    7.9806    8.6543   20.5437 C   0  0  0  0  0  0  0  0  0  0  0  0
   13.7270    5.7144   19.8610 O   0  0  0  0  0  0  0  0  0  0  0  0
    8.3351    5.5235   15.4478 C   0  0  0  0  0  0  0  0  0  0  0  0
    8.7700    7.8434   21.3915 C   0  0  0  0  0  0  0  0  0  0  0  0
   11.7856    6.8851   19.2401 C   0  0  0  0  0  0  0  0  0  0  0  0
   10.5281    7.4276   19.5649 C   0  0  0  0  0  0  0  0  0  0  0  0
   10.0256    7.2907   20.8484 C   0  0  0  0  0  0  0  0  0  0  0  0
    9.3113    5.3049   14.4911 C   0  0  0  0  0  0  0  0  0  0  0  0
    9.4607    7.5646   16.0139 C   0  0  0  0  0  0  0  0  0  0  0  0
   10.4192    7.3157   15.0955 C   0  0  0  0  0  0  0  0  0  0  0  0
   10.2489    6.4227   23.0218 N   0  0  0  0  0  0  0  0  0  0  0  0
    7.2472    8.0746   23.5050 C   0  0  0  0  0  0  0  0  0  0  0  0
    9.2051    6.9101   23.4604 C   0  0  0  0  0  0  0  0  0  0  0  0
   11.9646    6.0299   21.4251 C   0  0  0  0  0  0  0  0  0  0  0  0
  1  5  1  0
  1 13  1  0
  2 20  2  0
  2 28  1  0
  2 29  1  0
  3 19  4  0
  3 25  4  0
  4 23  4  0
  4 27  1  0
  4 30  4  0
  5 17  1  0
  6  8  1  0
  6 29  1  0
  7 24  4  0
  7 26  4  0
  8 28  1  0
  9 13  2  0
 10 18  1  0
 10 21  4  0
 10 30  4  0
 11 17  2  0
 12 18  1  0
 13 15  1  0
 14 24  1  0
 15 25  1  0
 16 28  2  0
 17 20  1  0
 19 24  4  0
 20 23  1  0
 21 22  4  0
 22 23  4  0
 25 26  4  0
 27 29  2  0
M  END
$$$$

 Created by Python create_sdf_string function

 30 33  0  0  0  0  0  0  0  0999 V2000
    8.3036    9.8571   18.4133 C   0  0  0  0  0  0  0  0  0  0  0  0
    8.3694    7.6612   22.6703 C   0  0  0  0  0  0  0  0  0  0  0  0
    8.4143    6.6863   16.2273 C   0  0  0  0  0  0  0  0  0  0  0  0
   10.7581    6.5674   21.7636 C   0  0  0  0  0  0  0  0  0  0  0  0
    8.4452    8.7960   19.2958 O   0  0  0  0  0  0  0  0  0  0  0  0
    8.7122    6.7842   24.8569 C   0  0  0  0  0  0  0  0  0  0  0  0
   10.3400    6.1726   14.3081 C   0  0  0  0  0  0  0  0  0  0  0  0
    7.4297    7.5873   24.8962 C   0  0  0  0  0  0  0  0  0  0  0  0
    8.1566   10.0536   16.0516 O   0  0  0  0  0  0  0  0  0  0  0  0
   12.4989    6.2074   20.1776 C   0  0  0  0  0  0  0  0  0  0  0  0
    6.9192    9.1053   20.9073 O   0  0  0  0  0  0  0  0  0  0  0  0
   14.3979    6.0729   18.7784 C   0  0  0  0  0  0  0  0  0  0  0  0
    8.6811    9.5354   16.9998 C   0  0  0  0  0  0  0  0  0  0  0  0
    9.2512    4.2713   13.7653 O   0  0  0  0  0  0  0  0  0  0  0  0
    9.6495    8.6317   16.8332 N   0  0  0  0  0  0  0  0  0  0  0  0
    6.2934    8.6988   23.1988 O   0  0  0  0  0  0  0  0  0  0  0  0
    7.9806    8.6543   20.5437 C   0  0  0  0  0  0  0  0  0  0  0  0
   13.7270    5.7144   19.8610 O   0  0  0  0  0  0  0  0  0  0  0  0
    8.3351    5.5235   15.4478 C   0  0  0  0  0  0  0  0  0  0  0  0
    8.7700    7.8434   21.3915 C   0  0  0  0  0  0  0  0  0  0  0  0
   11.7856    6.8851   19.2401 C   0  0  0  0  0  0  0  0  0  0  0  0
   10.5281    7.4276   19.5649 C   0  0  0  0  0  0  0  0  0  0  0  0
   10.0256    7.2907   20.8484 C   0  0  0  0  0  0  0  0  0  0  0  0
    9.3113    5.3049   14.4911 C   0  0  0  0  0  0  0  0  0  0  0  0
    9.4607    7.5646   16.0139 C   0  0  0  0  0  0  0  0  0  0  0  0
   10.4192    7.3157   15.0955 C   0  0  0  0  0  0  0  0  0  0  0  0
   10.2489    6.4227   23.0218 N   0  0  0  0  0  0  0  0  0  0  0  0
    7.2472    8.0746   23.5050 C   0  0  0  0  0  0  0  0  0  0  0  0
    9.2051    6.9101   23.4604 C   0  0  0  0  0  0  0  0  0  0  0  0
   11.9646    6.0299   21.4251 C   0  0  0  0  0  0  0  0  0  0  0  0
  1  5  1  0
  1 13  1  0
  2 20  2  0
  2 28  1  0
  2 29  1  0
  3 19  4  0
  3 25  4  0
  4 23  4  0
  4 27  1  0
  4 30  4  0
  5 17  1  0
  6  8  1  0
  6 29  1  0
  7 24  4  0
  7 26  4  0
  8 28  1  0
  9 13  2  0
 10 18  1  0
 10 21  4  0
 10 30  4  0
 11 17  2  0
 12 18  1  0
 13 15  1  0
 14 24  1  0
 15 25  1  0
 16 28  2  0
 17 20  1  0
 19 24  4  0
 20 23  1  0
 21 22  4  0
 22 23  4  0
 25 26  4  0
 27 29  2  0
M  END
$$$$

 Created by Python create_sdf_string function

 30 33  0  0  0  0  0  0  0  0999 V2000
    8.3036    9.8571   18.4133 C   0  0  0  0  0  0  0  0  0  0  0  0
    8.3694    7.6612   22.6703 C   0  0  0  0  0  0  0  0  0  0  0  0
    8.4143    6.6863   16.2273 C   0  0  0  0  0  0  0  0  0  0  0  0
   10.7581    6.5674   21.7636 C   0  0  0  0  0  0  0  0  0  0  0  0
    8.4452    8.7960   19.2958 O   0  0  0  0  0  0  0  0  0  0  0  0
    8.7122    6.7842   24.8569 C   0  0  0  0  0  0  0  0  0  0  0  0
   10.3400    6.1726   14.3081 C   0  0  0  0  0  0  0  0  0  0  0  0
    7.4297    7.5873   24.8962 C   0  0  0  0  0  0  0  0  0  0  0  0
    8.1566   10.0536   16.0516 O   0  0  0  0  0  0  0  0  0  0  0  0
   12.4989    6.2074   20.1776 C   0  0  0  0  0  0  0  0  0  0  0  0
    6.9192    9.1053   20.9073 O   0  0  0  0  0  0  0  0  0  0  0  0
   14.3979    6.0729   18.7784 C   0  0  0  0  0  0  0  0  0  0  0  0
    8.6811    9.5354   16.9998 C   0  0  0  0  0  0  0  0  0  0  0  0
    9.2512    4.2713   13.7653 O   0  0  0  0  0  0  0  0  0  0  0  0
    9.6495    8.6317   16.8332 N   0  0  0  0  0  0  0  0  0  0  0  0
    6.2934    8.6988   23.1988 O   0  0  0  0  0  0  0  0  0  0  0  0
    7.9806    8.6543   20.5437 C   0  0  0  0  0  0  0  0  0  0  0  0
   13.7270    5.7144   19.8610 O   0  0  0  0  0  0  0  0  0  0  0  0
    8.3351    5.5235   15.4478 C   0  0  0  0  0  0  0  0  0  0  0  0
    8.7700    7.8434   21.3915 C   0  0  0  0  0  0  0  0  0  0  0  0
   11.7856    6.8851   19.2401 C   0  0  0  0  0  0  0  0  0  0  0  0
   10.5281    7.4276   19.5649 C   0  0  0  0  0  0  0  0  0  0  0  0
   10.0256    7.2907   20.8484 C   0  0  0  0  0  0  0  0  0  0  0  0
    9.3113    5.3049   14.4911 C   0  0  0  0  0  0  0  0  0  0  0  0
    9.4607    7.5646   16.0139 C   0  0  0  0  0  0  0  0  0  0  0  0
   10.4192    7.3157   15.0955 C   0  0  0  0  0  0  0  0  0  0  0  0
   10.2489    6.4227   23.0218 N   0  0  0  0  0  0  0  0  0  0  0  0
    7.2472    8.0746   23.5050 C   0  0  0  0  0  0  0  0  0  0  0  0
    9.2051    6.9101   23.4604 C   0  0  0  0  0  0  0  0  0  0  0  0
   11.9646    6.0299   21.4251 C   0  0  0  0  0  0  0  0  0  0  0  0
  1  5  1  0
  1 13  1  0
  2 20  2  0
  2 28  1  0
  2 29  1  0
  3 19  4  0
  3 25  4  0
  4 23  4  0
  4 27  1  0
  4 30  4  0
  5 17  1  0
  6  8  1  0
  6 29  1  0
  7 24  4  0
  7 26  4  0
  8 28  1  0
  9 13  2  0
 10 18  1  0
 10 21  4  0
 10 30  4  0
 11 17  2  0
 12 18  1  0
 13 15  1  0
 14 24  1  0
 15 25  1  0
 16 28  2  0
 17 20  1  0
 19 24  4  0
 20 23  1  0
 21 22  4  0
 22 23  4  0
 25 26  4  0
 27 29  2  0
M  END
$$$$

 Created by Python create_sdf_string function

 30 33  0  0  0  0  0  0  0  0999 V2000
    8.3036    9.8571   18.4133 C   0  0  0  0  0  0  0  0  0  0  0  0
    8.3694    7.6612   22.6703 C   0  0  0  0  0  0  0  0  0  0  0  0
    8.4143    6.6863   16.2273 C   0  0  0  0  0  0  0  0  0  0  0  0
   10.7581    6.5674   21.7636 C   0  0  0  0  0  0  0  0  0  0  0  0
    8.4452    8.7960   19.2958 O   0  0  0  0  0  0  0  0  0  0  0  0
    8.7122    6.7842   24.8569 C   0  0  0  0  0  0  0  0  0  0  0  0
   10.3400    6.1726   14.3081 C   0  0  0  0  0  0  0  0  0  0  0  0
    7.4297    7.5873   24.8962 C   0  0  0  0  0  0  0  0  0  0  0  0
    8.1566   10.0536   16.0516 O   0  0  0  0  0  0  0  0  0  0  0  0
   12.4989    6.2074   20.1776 C   0  0  0  0  0  0  0  0  0  0  0  0
    6.9192    9.1053   20.9073 O   0  0  0  0  0  0  0  0  0  0  0  0
   14.3979    6.0729   18.7784 C   0  0  0  0  0  0  0  0  0  0  0  0
    8.6811    9.5354   16.9998 C   0  0  0  0  0  0  0  0  0  0  0  0
    9.2512    4.2713   13.7653 O   0  0  0  0  0  0  0  0  0  0  0  0
    9.6495    8.6317   16.8332 N   0  0  0  0  0  0  0  0  0  0  0  0
    6.2934    8.6988   23.1988 O   0  0  0  0  0  0  0  0  0  0  0  0
    7.9806    8.6543   20.5437 C   0  0  0  0  0  0  0  0  0  0  0  0
   13.7270    5.7144   19.8610 O   0  0  0  0  0  0  0  0  0  0  0  0
    8.3351    5.5235   15.4478 C   0  0  0  0  0  0  0  0  0  0  0  0
    8.7700    7.8434   21.3915 C   0  0  0  0  0  0  0  0  0  0  0  0
   11.7856    6.8851   19.2401 C   0  0  0  0  0  0  0  0  0  0  0  0
   10.5281    7.4276   19.5649 C   0  0  0  0  0  0  0  0  0  0  0  0
   10.0256    7.2907   20.8484 C   0  0  0  0  0  0  0  0  0  0  0  0
    9.3113    5.3049   14.4911 C   0  0  0  0  0  0  0  0  0  0  0  0
    9.4607    7.5646   16.0139 C   0  0  0  0  0  0  0  0  0  0  0  0
   10.4192    7.3157   15.0955 C   0  0  0  0  0  0  0  0  0  0  0  0
   10.2489    6.4227   23.0218 N   0  0  0  0  0  0  0  0  0  0  0  0
    7.2472    8.0746   23.5050 C   0  0  0  0  0  0  0  0  0  0  0  0
    9.2051    6.9101   23.4604 C   0  0  0  0  0  0  0  0  0  0  0  0
   11.9646    6.0299   21.4251 C   0  0  0  0  0  0  0  0  0  0  0  0
  1  5  1  0
  1 13  1  0
  2 20  2  0
  2 28  1  0
  2 29  1  0
  3 19  4  0
  3 25  4  0
  4 23  4  0
  4 27  1  0
  4 30  4  0
  5 17  1  0
  6  8  1  0
  6 29  1  0
  7 24  4  0
  7 26  4  0
  8 28  1  0
  9 13  2  0
 10 18  1  0
 10 21  4  0
 10 30  4  0
 11 17  2  0
 12 18  1  0
 13 15  1  0
 14 24  1  0
 15 25  1  0
 16 28  2  0
 17 20  1  0
 19 24  4  0
 20 23  1  0
 21 22  4  0
 22 23  4  0
 25 26  4  0
 27 29  2  0
M  END
$$$$

 Created by Python create_sdf_string function

 30 33  0  0  0  0  0  0  0  0999 V2000
    8.3036    9.8571   18.4133 C   0  0  0  0  0  0  0  0  0  0  0  0
    8.3694    7.6612   22.6703 C   0  0  0  0  0  0  0  0  0  0  0  0
    8.4143    6.6863   16.2273 C   0  0  0  0  0  0  0  0  0  0  0  0
   10.7581    6.5674   21.7636 C   0  0  0  0  0  0  0  0  0  0  0  0
    8.4452    8.7960   19.2958 O   0  0  0  0  0  0  0  0  0  0  0  0
    8.7122    6.7842   24.8569 C   0  0  0  0  0  0  0  0  0  0  0  0
   10.3400    6.1726   14.3081 C   0  0  0  0  0  0  0  0  0  0  0  0
    7.4297    7.5873   24.8962 C   0  0  0  0  0  0  0  0  0  0  0  0
    8.1566   10.0536   16.0516 O   0  0  0  0  0  0  0  0  0  0  0  0
   12.4989    6.2074   20.1776 C   0  0  0  0  0  0  0  0  0  0  0  0
    6.9192    9.1053   20.9073 O   0  0  0  0  0  0  0  0  0  0  0  0
   14.3979    6.0729   18.7784 C   0  0  0  0  0  0  0  0  0  0  0  0
    8.6811    9.5354   16.9998 C   0  0  0  0  0  0  0  0  0  0  0  0
    9.2512    4.2713   13.7653 O   0  0  0  0  0  0  0  0  0  0  0  0
    9.6495    8.6317   16.8332 N   0  0  0  0  0  0  0  0  0  0  0  0
    6.2934    8.6988   23.1988 O   0  0  0  0  0  0  0  0  0  0  0  0
    7.9806    8.6543   20.5437 C   0  0  0  0  0  0  0  0  0  0  0  0
   13.7270    5.7144   19.8610 O   0  0  0  0  0  0  0  0  0  0  0  0
    8.3351    5.5235   15.4478 C   0  0  0  0  0  0  0  0  0  0  0  0
    8.7700    7.8434   21.3915 C   0  0  0  0  0  0  0  0  0  0  0  0
   11.7856    6.8851   19.2401 C   0  0  0  0  0  0  0  0  0  0  0  0
   10.5281    7.4276   19.5649 C   0  0  0  0  0  0  0  0  0  0  0  0
   10.0256    7.2907   20.8484 C   0  0  0  0  0  0  0  0  0  0  0  0
    9.3113    5.3049   14.4911 C   0  0  0  0  0  0  0  0  0  0  0  0
    9.4607    7.5646   16.0139 C   0  0  0  0  0  0  0  0  0  0  0  0
   10.4192    7.3157   15.0955 C   0  0  0  0  0  0  0  0  0  0  0  0
   10.2489    6.4227   23.0218 N   0  0  0  0  0  0  0  0  0  0  0  0
    7.2472    8.0746   23.5050 C   0  0  0  0  0  0  0  0  0  0  0  0
    9.2051    6.9101   23.4604 C   0  0  0  0  0  0  0  0  0  0  0  0
   11.9646    6.0299   21.4251 C   0  0  0  0  0  0  0  0  0  0  0  0
  1  5  1  0
  1 13  1  0
  2 20  2  0
  2 28  1  0
  2 29  1  0
  3 19  4  0
  3 25  4  0
  4 23  4  0
  4 27  1  0
  4 30  4  0
  5 17  1  0
  6  8  1  0
  6 29  1  0
  7 24  4  0
  7 26  4  0
  8 28  1  0
  9 13  2  0
 10 18  1  0
 10 21  4  0
 10 30  4  0
 11 17  2  0
 12 18  1  0
 13 15  1  0
 14 24  1  0
 15 25  1  0
 16 28  2  0
 17 20  1  0
 19 24  4  0
 20 23  1  0
 21 22  4  0
 22 23  4  0
 25 26  4  0
 27 29  2  0
M  END
$$$$

 Created by Python create_sdf_string function

 30 33  0  0  0  0  0  0  0  0999 V2000
    8.3036    9.8571   18.4133 C   0  0  0  0  0  0  0  0  0  0  0  0
    8.3694    7.6612   22.6703 C   0  0  0  0  0  0  0  0  0  0  0  0
    8.4143    6.6863   16.2273 C   0  0  0  0  0  0  0  0  0  0  0  0
   10.7581    6.5674   21.7636 C   0  0  0  0  0  0  0  0  0  0  0  0
    8.4452    8.7960   19.2958 O   0  0  0  0  0  0  0  0  0  0  0  0
    8.7122    6.7842   24.8569 C   0  0  0  0  0  0  0  0  0  0  0  0
   10.3400    6.1726   14.3081 C   0  0  0  0  0  0  0  0  0  0  0  0
    7.4297    7.5873   24.8962 C   0  0  0  0  0  0  0  0  0  0  0  0
    8.1566   10.0536   16.0516 O   0  0  0  0  0  0  0  0  0  0  0  0
   12.4989    6.2074   20.1776 C   0  0  0  0  0  0  0  0  0  0  0  0
    6.9192    9.1053   20.9073 O   0  0  0  0  0  0  0  0  0  0  0  0
   14.3979    6.0729   18.7784 C   0  0  0  0  0  0  0  0  0  0  0  0
    8.6811    9.5354   16.9998 C   0  0  0  0  0  0  0  0  0  0  0  0
    9.2512    4.2713   13.7653 O   0  0  0  0  0  0  0  0  0  0  0  0
    9.6495    8.6317   16.8332 N   0  0  0  0  0  0  0  0  0  0  0  0
    6.2934    8.6988   23.1988 O   0  0  0  0  0  0  0  0  0  0  0  0
    7.9806    8.6543   20.5437 C   0  0  0  0  0  0  0  0  0  0  0  0
   13.7270    5.7144   19.8610 O   0  0  0  0  0  0  0  0  0  0  0  0
    8.3351    5.5235   15.4478 C   0  0  0  0  0  0  0  0  0  0  0  0
    8.7700    7.8434   21.3915 C   0  0  0  0  0  0  0  0  0  0  0  0
   11.7856    6.8851   19.2401 C   0  0  0  0  0  0  0  0  0  0  0  0
   10.5281    7.4276   19.5649 C   0  0  0  0  0  0  0  0  0  0  0  0
   10.0256    7.2907   20.8484 C   0  0  0  0  0  0  0  0  0  0  0  0
    9.3113    5.3049   14.4911 C   0  0  0  0  0  0  0  0  0  0  0  0
    9.4607    7.5646   16.0139 C   0  0  0  0  0  0  0  0  0  0  0  0
   10.4192    7.3157   15.0955 C   0  0  0  0  0  0  0  0  0  0  0  0
   10.2489    6.4227   23.0218 N   0  0  0  0  0  0  0  0  0  0  0  0
    7.2472    8.0746   23.5050 C   0  0  0  0  0  0  0  0  0  0  0  0
    9.2051    6.9101   23.4604 C   0  0  0  0  0  0  0  0  0  0  0  0
   11.9646    6.0299   21.4251 C   0  0  0  0  0  0  0  0  0  0  0  0
  1  5  1  0
  1 13  1  0
  2 20  2  0
  2 28  1  0
  2 29  1  0
  3 19  4  0
  3 25  4  0
  4 23  4  0
  4 27  1  0
  4 30  4  0
  5 17  1  0
  6  8  1  0
  6 29  1  0
  7 24  4  0
  7 26  4  0
  8 28  1  0
  9 13  2  0
 10 18  1  0
 10 21  4  0
 10 30  4  0
 11 17  2  0
 12 18  1  0
 13 15  1  0
 14 24  1  0
 15 25  1  0
 16 28  2  0
 17 20  1  0
 19 24  4  0
 20 23  1  0
 21 22  4  0
 22 23  4  0
 25 26  4  0
 27 29  2  0
M  END
$$$$

 Created by Python create_sdf_string function

 30 33  0  0  0  0  0  0  0  0999 V2000
    8.3036    9.8571   18.4133 C   0  0  0  0  0  0  0  0  0  0  0  0
    8.3694    7.6612   22.6703 C   0  0  0  0  0  0  0  0  0  0  0  0
    8.4143    6.6863   16.2273 C   0  0  0  0  0  0  0  0  0  0  0  0
   10.7581    6.5674   21.7636 C   0  0  0  0  0  0  0  0  0  0  0  0
    8.4452    8.7960   19.2958 O   0  0  0  0  0  0  0  0  0  0  0  0
    8.7122    6.7842   24.8569 C   0  0  0  0  0  0  0  0  0  0  0  0
   10.3400    6.1726   14.3081 C   0  0  0  0  0  0  0  0  0  0  0  0
    7.4297    7.5873   24.8962 C   0  0  0  0  0  0  0  0  0  0  0  0
    8.1566   10.0536   16.0516 O   0  0  0  0  0  0  0  0  0  0  0  0
   12.4989    6.2074   20.1776 C   0  0  0  0  0  0  0  0  0  0  0  0
    6.9192    9.1053   20.9073 O   0  0  0  0  0  0  0  0  0  0  0  0
   14.3979    6.0729   18.7784 C   0  0  0  0  0  0  0  0  0  0  0  0
    8.6811    9.5354   16.9998 C   0  0  0  0  0  0  0  0  0  0  0  0
    9.2512    4.2713   13.7653 O   0  0  0  0  0  0  0  0  0  0  0  0
    9.6495    8.6317   16.8332 N   0  0  0  0  0  0  0  0  0  0  0  0
    6.2934    8.6988   23.1988 O   0  0  0  0  0  0  0  0  0  0  0  0
    7.9806    8.6543   20.5437 C   0  0  0  0  0  0  0  0  0  0  0  0
   13.7270    5.7144   19.8610 O   0  0  0  0  0  0  0  0  0  0  0  0
    8.3351    5.5235   15.4478 C   0  0  0  0  0  0  0  0  0  0  0  0
    8.7700    7.8434   21.3915 C   0  0  0  0  0  0  0  0  0  0  0  0
   11.7856    6.8851   19.2401 C   0  0  0  0  0  0  0  0  0  0  0  0
   10.5281    7.4276   19.5649 C   0  0  0  0  0  0  0  0  0  0  0  0
   10.0256    7.2907   20.8484 C   0  0  0  0  0  0  0  0  0  0  0  0
    9.3113    5.3049   14.4911 C   0  0  0  0  0  0  0  0  0  0  0  0
    9.4607    7.5646   16.0139 C   0  0  0  0  0  0  0  0  0  0  0  0
   10.4192    7.3157   15.0955 C   0  0  0  0  0  0  0  0  0  0  0  0
   10.2489    6.4227   23.0218 N   0  0  0  0  0  0  0  0  0  0  0  0
    7.2472    8.0746   23.5050 C   0  0  0  0  0  0  0  0  0  0  0  0
    9.2051    6.9101   23.4604 C   0  0  0  0  0  0  0  0  0  0  0  0
   11.9646    6.0299   21.4251 C   0  0  0  0  0  0  0  0  0  0  0  0
  1  5  1  0
  1 13  1  0
  2 20  2  0
  2 28  1  0
  2 29  1  0
  3 19  4  0
  3 25  4  0
  4 23  4  0
  4 27  1  0
  4 30  4  0
  5 17  1  0
  6  8  1  0
  6 29  1  0
  7 24  4  0
  7 26  4  0
  8 28  1  0
  9 13  2  0
 10 18  1  0
 10 21  4  0
 10 30  4  0
 11 17  2  0
 12 18  1  0
 13 15  1  0
 14 24  1  0
 15 25  1  0
 16 28  2  0
 17 20  1  0
 19 24  4  0
 20 23  1  0
 21 22  4  0
 22 23  4  0
 25 26  4  0
 27 29  2  0
M  END
$$$$

 Created by Python create_sdf_string function

 30 33  0  0  0  0  0  0  0  0999 V2000
    8.3036    9.8571   18.4133 C   0  0  0  0  0  0  0  0  0  0  0  0
    8.3694    7.6612   22.6703 C   0  0  0  0  0  0  0  0  0  0  0  0
    8.4143    6.6863   16.2273 C   0  0  0  0  0  0  0  0  0  0  0  0
   10.7581    6.5674   21.7636 C   0  0  0  0  0  0  0  0  0  0  0  0
    8.4452    8.7960   19.2958 O   0  0  0  0  0  0  0  0  0  0  0  0
    8.7122    6.7842   24.8569 C   0  0  0  0  0  0  0  0  0  0  0  0
   10.3400    6.1726   14.3081 C   0  0  0  0  0  0  0  0  0  0  0  0
    7.4297    7.5873   24.8962 C   0  0  0  0  0  0  0  0  0  0  0  0
    8.1566   10.0536   16.0516 O   0  0  0  0  0  0  0  0  0  0  0  0
   12.4989    6.2074   20.1776 C   0  0  0  0  0  0  0  0  0  0  0  0
    6.9192    9.1053   20.9073 O   0  0  0  0  0  0  0  0  0  0  0  0
   14.3979    6.0729   18.7784 C   0  0  0  0  0  0  0  0  0  0  0  0
    8.6811    9.5354   16.9998 C   0  0  0  0  0  0  0  0  0  0  0  0
    9.2512    4.2713   13.7653 O   0  0  0  0  0  0  0  0  0  0  0  0
    9.6495    8.6317   16.8332 N   0  0  0  0  0  0  0  0  0  0  0  0
    6.2934    8.6988   23.1988 O   0  0  0  0  0  0  0  0  0  0  0  0
    7.9806    8.6543   20.5437 C   0  0  0  0  0  0  0  0  0  0  0  0
   13.7270    5.7144   19.8610 O   0  0  0  0  0  0  0  0  0  0  0  0
    8.3351    5.5235   15.4478 C   0  0  0  0  0  0  0  0  0  0  0  0
    8.7700    7.8434   21.3915 C   0  0  0  0  0  0  0  0  0  0  0  0
   11.7856    6.8851   19.2401 C   0  0  0  0  0  0  0  0  0  0  0  0
   10.5281    7.4276   19.5649 C   0  0  0  0  0  0  0  0  0  0  0  0
   10.0256    7.2907   20.8484 C   0  0  0  0  0  0  0  0  0  0  0  0
    9.3113    5.3049   14.4911 C   0  0  0  0  0  0  0  0  0  0  0  0
    9.4607    7.5646   16.0139 C   0  0  0  0  0  0  0  0  0  0  0  0
   10.4192    7.3157   15.0955 C   0  0  0  0  0  0  0  0  0  0  0  0
   10.2489    6.4227   23.0218 N   0  0  0  0  0  0  0  0  0  0  0  0
    7.2472    8.0746   23.5050 C   0  0  0  0  0  0  0  0  0  0  0  0
    9.2051    6.9101   23.4604 C   0  0  0  0  0  0  0  0  0  0  0  0
   11.9646    6.0299   21.4251 C   0  0  0  0  0  0  0  0  0  0  0  0
  1  5  1  0
  1 13  1  0
  2 20  2  0
  2 28  1  0
  2 29  1  0
  3 19  4  0
  3 25  4  0
  4 23  4  0
  4 27  1  0
  4 30  4  0
  5 17  1  0
  6  8  1  0
  6 29  1  0
  7 24  4  0
  7 26  4  0
  8 28  1  0
  9 13  2  0
 10 18  1  0
 10 21  4  0
 10 30  4  0
 11 17  2  0
 12 18  1  0
 13 15  1  0
 14 24  1  0
 15 25  1  0
 16 28  2  0
 17 20  1  0
 19 24  4  0
 20 23  1  0
 21 22  4  0
 22 23  4  0
 25 26  4  0
 27 29  2  0
M  END
$$$$

 Created by Python create_sdf_string function

 30 33  0  0  0  0  0  0  0  0999 V2000
    8.3036    9.8571   18.4133 C   0  0  0  0  0  0  0  0  0  0  0  0
    8.3694    7.6612   22.6703 C   0  0  0  0  0  0  0  0  0  0  0  0
    8.4143    6.6863   16.2273 C   0  0  0  0  0  0  0  0  0  0  0  0
   10.7581    6.5674   21.7636 C   0  0  0  0  0  0  0  0  0  0  0  0
    8.4452    8.7960   19.2958 O   0  0  0  0  0  0  0  0  0  0  0  0
    8.7122    6.7842   24.8569 C   0  0  0  0  0  0  0  0  0  0  0  0
   10.3400    6.1726   14.3081 C   0  0  0  0  0  0  0  0  0  0  0  0
    7.4297    7.5873   24.8962 C   0  0  0  0  0  0  0  0  0  0  0  0
    8.1566   10.0536   16.0516 O   0  0  0  0  0  0  0  0  0  0  0  0
   12.4989    6.2074   20.1776 C   0  0  0  0  0  0  0  0  0  0  0  0
    6.9192    9.1053   20.9073 O   0  0  0  0  0  0  0  0  0  0  0  0
   14.3979    6.0729   18.7784 C   0  0  0  0  0  0  0  0  0  0  0  0
    8.6811    9.5354   16.9998 C   0  0  0  0  0  0  0  0  0  0  0  0
    9.2512    4.2713   13.7653 O   0  0  0  0  0  0  0  0  0  0  0  0
    9.6495    8.6317   16.8332 N   0  0  0  0  0  0  0  0  0  0  0  0
    6.2934    8.6988   23.1988 O   0  0  0  0  0  0  0  0  0  0  0  0
    7.9806    8.6543   20.5437 C   0  0  0  0  0  0  0  0  0  0  0  0
   13.7270    5.7144   19.8610 O   0  0  0  0  0  0  0  0  0  0  0  0
    8.3351    5.5235   15.4478 C   0  0  0  0  0  0  0  0  0  0  0  0
    8.7700    7.8434   21.3915 C   0  0  0  0  0  0  0  0  0  0  0  0
   11.7856    6.8851   19.2401 C   0  0  0  0  0  0  0  0  0  0  0  0
   10.5281    7.4276   19.5649 C   0  0  0  0  0  0  0  0  0  0  0  0
   10.0256    7.2907   20.8484 C   0  0  0  0  0  0  0  0  0  0  0  0
    9.3113    5.3049   14.4911 C   0  0  0  0  0  0  0  0  0  0  0  0
    9.4607    7.5646   16.0139 C   0  0  0  0  0  0  0  0  0  0  0  0
   10.4192    7.3157   15.0955 C   0  0  0  0  0  0  0  0  0  0  0  0
   10.2489    6.4227   23.0218 N   0  0  0  0  0  0  0  0  0  0  0  0
    7.2472    8.0746   23.5050 C   0  0  0  0  0  0  0  0  0  0  0  0
    9.2051    6.9101   23.4604 C   0  0  0  0  0  0  0  0  0  0  0  0
   11.9646    6.0299   21.4251 C   0  0  0  0  0  0  0  0  0  0  0  0
  1  5  1  0
  1 13  1  0
  2 20  2  0
  2 28  1  0
  2 29  1  0
  3 19  4  0
  3 25  4  0
  4 23  4  0
  4 27  1  0
  4 30  4  0
  5 17  1  0
  6  8  1  0
  6 29  1  0
  7 24  4  0
  7 26  4  0
  8 28  1  0
  9 13  2  0
 10 18  1  0
 10 21  4  0
 10 30  4  0
 11 17  2  0
 12 18  1  0
 13 15  1  0
 14 24  1  0
 15 25  1  0
 16 28  2  0
 17 20  1  0
 19 24  4  0
 20 23  1  0
 21 22  4  0
 22 23  4  0
 25 26  4  0
 27 29  2  0
M  END
$$$$

 Created by Python create_sdf_string function

 30 33  0  0  0  0  0  0  0  0999 V2000
    8.3036    9.8571   18.4133 C   0  0  0  0  0  0  0  0  0  0  0  0
    8.3694    7.6612   22.6703 C   0  0  0  0  0  0  0  0  0  0  0  0
    8.4143    6.6863   16.2273 C   0  0  0  0  0  0  0  0  0  0  0  0
   10.7581    6.5674   21.7636 C   0  0  0  0  0  0  0  0  0  0  0  0
    8.4452    8.7960   19.2958 O   0  0  0  0  0  0  0  0  0  0  0  0
    8.7122    6.7842   24.8569 C   0  0  0  0  0  0  0  0  0  0  0  0
   10.3400    6.1726   14.3081 C   0  0  0  0  0  0  0  0  0  0  0  0
    7.4297    7.5873   24.8962 C   0  0  0  0  0  0  0  0  0  0  0  0
    8.1566   10.0536   16.0516 O   0  0  0  0  0  0  0  0  0  0  0  0
   12.4989    6.2074   20.1776 C   0  0  0  0  0  0  0  0  0  0  0  0
    6.9192    9.1053   20.9073 O   0  0  0  0  0  0  0  0  0  0  0  0
   14.3979    6.0729   18.7784 C   0  0  0  0  0  0  0  0  0  0  0  0
    8.6811    9.5354   16.9998 C   0  0  0  0  0  0  0  0  0  0  0  0
    9.2512    4.2713   13.7653 O   0  0  0  0  0  0  0  0  0  0  0  0
    9.6495    8.6317   16.8332 N   0  0  0  0  0  0  0  0  0  0  0  0
    6.2934    8.6988   23.1988 O   0  0  0  0  0  0  0  0  0  0  0  0
    7.9806    8.6543   20.5437 C   0  0  0  0  0  0  0  0  0  0  0  0
   13.7270    5.7144   19.8610 O   0  0  0  0  0  0  0  0  0  0  0  0
    8.3351    5.5235   15.4478 C   0  0  0  0  0  0  0  0  0  0  0  0
    8.7700    7.8434   21.3915 C   0  0  0  0  0  0  0  0  0  0  0  0
   11.7856    6.8851   19.2401 C   0  0  0  0  0  0  0  0  0  0  0  0
   10.5281    7.4276   19.5649 C   0  0  0  0  0  0  0  0  0  0  0  0
   10.0256    7.2907   20.8484 C   0  0  0  0  0  0  0  0  0  0  0  0
    9.3113    5.3049   14.4911 C   0  0  0  0  0  0  0  0  0  0  0  0
    9.4607    7.5646   16.0139 C   0  0  0  0  0  0  0  0  0  0  0  0
   10.4192    7.3157   15.0955 C   0  0  0  0  0  0  0  0  0  0  0  0
   10.2489    6.4227   23.0218 N   0  0  0  0  0  0  0  0  0  0  0  0
    7.2472    8.0746   23.5050 C   0  0  0  0  0  0  0  0  0  0  0  0
    9.2051    6.9101   23.4604 C   0  0  0  0  0  0  0  0  0  0  0  0
   11.9646    6.0299   21.4251 C   0  0  0  0  0  0  0  0  0  0  0  0
  1  5  1  0
  1 13  1  0
  2 20  2  0
  2 28  1  0
  2 29  1  0
  3 19  4  0
  3 25  4  0
  4 23  4  0
  4 27  1  0
  4 30  4  0
  5 17  1  0
  6  8  1  0
  6 29  1  0
  7 24  4  0
  7 26  4  0
  8 28  1  0
  9 13  2  0
 10 18  1  0
 10 21  4  0
 10 30  4  0
 11 17  2  0
 12 18  1  0
 13 15  1  0
 14 24  1  0
 15 25  1  0
 16 28  2  0
 17 20  1  0
 19 24  4  0
 20 23  1  0
 21 22  4  0
 22 23  4  0
 25 26  4  0
 27 29  2  0
M  END
$$$$

 Created by Python create_sdf_string function

 30 33  0  0  0  0  0  0  0  0999 V2000
    8.3036    9.8571   18.4133 C   0  0  0  0  0  0  0  0  0  0  0  0
    8.3694    7.6612   22.6703 C   0  0  0  0  0  0  0  0  0  0  0  0
    8.4143    6.6863   16.2273 C   0  0  0  0  0  0  0  0  0  0  0  0
   10.7581    6.5674   21.7636 C   0  0  0  0  0  0  0  0  0  0  0  0
    8.4452    8.7960   19.2958 O   0  0  0  0  0  0  0  0  0  0  0  0
    8.7122    6.7842   24.8569 C   0  0  0  0  0  0  0  0  0  0  0  0
   10.3400    6.1726   14.3081 C   0  0  0  0  0  0  0  0  0  0  0  0
    7.4297    7.5873   24.8962 C   0  0  0  0  0  0  0  0  0  0  0  0
    8.1566   10.0536   16.0516 O   0  0  0  0  0  0  0  0  0  0  0  0
   12.4989    6.2074   20.1776 C   0  0  0  0  0  0  0  0  0  0  0  0
    6.9192    9.1053   20.9073 O   0  0  0  0  0  0  0  0  0  0  0  0
   14.3979    6.0729   18.7784 C   0  0  0  0  0  0  0  0  0  0  0  0
    8.6811    9.5354   16.9998 C   0  0  0  0  0  0  0  0  0  0  0  0
    9.2512    4.2713   13.7653 O   0  0  0  0  0  0  0  0  0  0  0  0
    9.6495    8.6317   16.8332 N   0  0  0  0  0  0  0  0  0  0  0  0
    6.2934    8.6988   23.1988 O   0  0  0  0  0  0  0  0  0  0  0  0
    7.9806    8.6543   20.5437 C   0  0  0  0  0  0  0  0  0  0  0  0
   13.7270    5.7144   19.8610 O   0  0  0  0  0  0  0  0  0  0  0  0
    8.3351    5.5235   15.4478 C   0  0  0  0  0  0  0  0  0  0  0  0
    8.7700    7.8434   21.3915 C   0  0  0  0  0  0  0  0  0  0  0  0
   11.7856    6.8851   19.2401 C   0  0  0  0  0  0  0  0  0  0  0  0
   10.5281    7.4276   19.5649 C   0  0  0  0  0  0  0  0  0  0  0  0
   10.0256    7.2907   20.8484 C   0  0  0  0  0  0  0  0  0  0  0  0
    9.3113    5.3049   14.4911 C   0  0  0  0  0  0  0  0  0  0  0  0
    9.4607    7.5646   16.0139 C   0  0  0  0  0  0  0  0  0  0  0  0
   10.4192    7.3157   15.0955 C   0  0  0  0  0  0  0  0  0  0  0  0
   10.2489    6.4227   23.0218 N   0  0  0  0  0  0  0  0  0  0  0  0
    7.2472    8.0746   23.5050 C   0  0  0  0  0  0  0  0  0  0  0  0
    9.2051    6.9101   23.4604 C   0  0  0  0  0  0  0  0  0  0  0  0
   11.9646    6.0299   21.4251 C   0  0  0  0  0  0  0  0  0  0  0  0
  1  5  1  0
  1 13  1  0
  2 20  2  0
  2 28  1  0
  2 29  1  0
  3 19  4  0
  3 25  4  0
  4 23  4  0
  4 27  1  0
  4 30  4  0
  5 17  1  0
  6  8  1  0
  6 29  1  0
  7 24  4  0
  7 26  4  0
  8 28  1  0
  9 13  2  0
 10 18  1  0
 10 21  4  0
 10 30  4  0
 11 17  2  0
 12 18  1  0
 13 15  1  0
 14 24  1  0
 15 25  1  0
 16 28  2  0
 17 20  1  0
 19 24  4  0
 20 23  1  0
 21 22  4  0
 22 23  4  0
 25 26  4  0
 27 29  2  0
M  END
$$$$

 Created by Python create_sdf_string function

 30 33  0  0  0  0  0  0  0  0999 V2000
    8.3036    9.8571   18.4133 C   0  0  0  0  0  0  0  0  0  0  0  0
    8.3694    7.6612   22.6703 C   0  0  0  0  0  0  0  0  0  0  0  0
    8.4143    6.6863   16.2273 C   0  0  0  0  0  0  0  0  0  0  0  0
   10.7581    6.5674   21.7636 C   0  0  0  0  0  0  0  0  0  0  0  0
    8.4452    8.7960   19.2958 O   0  0  0  0  0  0  0  0  0  0  0  0
    8.7122    6.7842   24.8569 C   0  0  0  0  0  0  0  0  0  0  0  0
   10.3400    6.1726   14.3081 C   0  0  0  0  0  0  0  0  0  0  0  0
    7.4297    7.5873   24.8962 C   0  0  0  0  0  0  0  0  0  0  0  0
    8.1566   10.0536   16.0516 O   0  0  0  0  0  0  0  0  0  0  0  0
   12.4989    6.2074   20.1776 C   0  0  0  0  0  0  0  0  0  0  0  0
    6.9192    9.1053   20.9073 O   0  0  0  0  0  0  0  0  0  0  0  0
   14.3979    6.0729   18.7784 C   0  0  0  0  0  0  0  0  0  0  0  0
    8.6811    9.5354   16.9998 C   0  0  0  0  0  0  0  0  0  0  0  0
    9.2512    4.2713   13.7653 O   0  0  0  0  0  0  0  0  0  0  0  0
    9.6495    8.6317   16.8332 N   0  0  0  0  0  0  0  0  0  0  0  0
    6.2934    8.6988   23.1988 O   0  0  0  0  0  0  0  0  0  0  0  0
    7.9806    8.6543   20.5437 C   0  0  0  0  0  0  0  0  0  0  0  0
   13.7270    5.7144   19.8610 O   0  0  0  0  0  0  0  0  0  0  0  0
    8.3351    5.5235   15.4478 C   0  0  0  0  0  0  0  0  0  0  0  0
    8.7700    7.8434   21.3915 C   0  0  0  0  0  0  0  0  0  0  0  0
   11.7856    6.8851   19.2401 C   0  0  0  0  0  0  0  0  0  0  0  0
   10.5281    7.4276   19.5649 C   0  0  0  0  0  0  0  0  0  0  0  0
   10.0256    7.2907   20.8484 C   0  0  0  0  0  0  0  0  0  0  0  0
    9.3113    5.3049   14.4911 C   0  0  0  0  0  0  0  0  0  0  0  0
    9.4607    7.5646   16.0139 C   0  0  0  0  0  0  0  0  0  0  0  0
   10.4192    7.3157   15.0955 C   0  0  0  0  0  0  0  0  0  0  0  0
   10.2489    6.4227   23.0218 N   0  0  0  0  0  0  0  0  0  0  0  0
    7.2472    8.0746   23.5050 C   0  0  0  0  0  0  0  0  0  0  0  0
    9.2051    6.9101   23.4604 C   0  0  0  0  0  0  0  0  0  0  0  0
   11.9646    6.0299   21.4251 C   0  0  0  0  0  0  0  0  0  0  0  0
  1  5  1  0
  1 13  1  0
  2 20  2  0
  2 28  1  0
  2 29  1  0
  3 19  4  0
  3 25  4  0
  4 23  4  0
  4 27  1  0
  4 30  4  0
  5 17  1  0
  6  8  1  0
  6 29  1  0
  7 24  4  0
  7 26  4  0
  8 28  1  0
  9 13  2  0
 10 18  1  0
 10 21  4  0
 10 30  4  0
 11 17  2  0
 12 18  1  0
 13 15  1  0
 14 24  1  0
 15 25  1  0
 16 28  2  0
 17 20  1  0
 19 24  4  0
 20 23  1  0
 21 22  4  0
 22 23  4  0
 25 26  4  0
 27 29  2  0
M  END
$$$$

 Created by Python create_sdf_string function

 30 33  0  0  0  0  0  0  0  0999 V2000
    8.3036    9.8571   18.4133 C   0  0  0  0  0  0  0  0  0  0  0  0
    8.3694    7.6612   22.6703 C   0  0  0  0  0  0  0  0  0  0  0  0
    8.4143    6.6863   16.2273 C   0  0  0  0  0  0  0  0  0  0  0  0
   10.7581    6.5674   21.7636 C   0  0  0  0  0  0  0  0  0  0  0  0
    8.4452    8.7960   19.2958 O   0  0  0  0  0  0  0  0  0  0  0  0
    8.7122    6.7842   24.8569 C   0  0  0  0  0  0  0  0  0  0  0  0
   10.3400    6.1726   14.3081 C   0  0  0  0  0  0  0  0  0  0  0  0
    7.4297    7.5873   24.8962 C   0  0  0  0  0  0  0  0  0  0  0  0
    8.1566   10.0536   16.0516 O   0  0  0  0  0  0  0  0  0  0  0  0
   12.4989    6.2074   20.1776 C   0  0  0  0  0  0  0  0  0  0  0  0
    6.9192    9.1053   20.9073 O   0  0  0  0  0  0  0  0  0  0  0  0
   14.3979    6.0729   18.7784 C   0  0  0  0  0  0  0  0  0  0  0  0
    8.6811    9.5354   16.9998 C   0  0  0  0  0  0  0  0  0  0  0  0
    9.2512    4.2713   13.7653 O   0  0  0  0  0  0  0  0  0  0  0  0
    9.6495    8.6317   16.8332 N   0  0  0  0  0  0  0  0  0  0  0  0
    6.2934    8.6988   23.1988 O   0  0  0  0  0  0  0  0  0  0  0  0
    7.9806    8.6543   20.5437 C   0  0  0  0  0  0  0  0  0  0  0  0
   13.7270    5.7144   19.8610 O   0  0  0  0  0  0  0  0  0  0  0  0
    8.3351    5.5235   15.4478 C   0  0  0  0  0  0  0  0  0  0  0  0
    8.7700    7.8434   21.3915 C   0  0  0  0  0  0  0  0  0  0  0  0
   11.7856    6.8851   19.2401 C   0  0  0  0  0  0  0  0  0  0  0  0
   10.5281    7.4276   19.5649 C   0  0  0  0  0  0  0  0  0  0  0  0
   10.0256    7.2907   20.8484 C   0  0  0  0  0  0  0  0  0  0  0  0
    9.3113    5.3049   14.4911 C   0  0  0  0  0  0  0  0  0  0  0  0
    9.4607    7.5646   16.0139 C   0  0  0  0  0  0  0  0  0  0  0  0
   10.4192    7.3157   15.0955 C   0  0  0  0  0  0  0  0  0  0  0  0
   10.2489    6.4227   23.0218 N   0  0  0  0  0  0  0  0  0  0  0  0
    7.2472    8.0746   23.5050 C   0  0  0  0  0  0  0  0  0  0  0  0
    9.2051    6.9101   23.4604 C   0  0  0  0  0  0  0  0  0  0  0  0
   11.9646    6.0299   21.4251 C   0  0  0  0  0  0  0  0  0  0  0  0
  1  5  1  0
  1 13  1  0
  2 20  2  0
  2 28  1  0
  2 29  1  0
  3 19  4  0
  3 25  4  0
  4 23  4  0
  4 27  1  0
  4 30  4  0
  5 17  1  0
  6  8  1  0
  6 29  1  0
  7 24  4  0
  7 26  4  0
  8 28  1  0
  9 13  2  0
 10 18  1  0
 10 21  4  0
 10 30  4  0
 11 17  2  0
 12 18  1  0
 13 15  1  0
 14 24  1  0
 15 25  1  0
 16 28  2  0
 17 20  1  0
 19 24  4  0
 20 23  1  0
 21 22  4  0
 22 23  4  0
 25 26  4  0
 27 29  2  0
M  END
$$$$

 Created by Python create_sdf_string function

 30 33  0  0  0  0  0  0  0  0999 V2000
    8.3036    9.8571   18.4133 C   0  0  0  0  0  0  0  0  0  0  0  0
    8.3694    7.6612   22.6703 C   0  0  0  0  0  0  0  0  0  0  0  0
    8.4143    6.6863   16.2273 C   0  0  0  0  0  0  0  0  0  0  0  0
   10.7581    6.5674   21.7636 C   0  0  0  0  0  0  0  0  0  0  0  0
    8.4452    8.7960   19.2958 O   0  0  0  0  0  0  0  0  0  0  0  0
    8.7122    6.7842   24.8569 C   0  0  0  0  0  0  0  0  0  0  0  0
   10.3400    6.1726   14.3081 C   0  0  0  0  0  0  0  0  0  0  0  0
    7.4297    7.5873   24.8962 C   0  0  0  0  0  0  0  0  0  0  0  0
    8.1566   10.0536   16.0516 O   0  0  0  0  0  0  0  0  0  0  0  0
   12.4989    6.2074   20.1776 C   0  0  0  0  0  0  0  0  0  0  0  0
    6.9192    9.1053   20.9073 O   0  0  0  0  0  0  0  0  0  0  0  0
   14.3979    6.0729   18.7784 C   0  0  0  0  0  0  0  0  0  0  0  0
    8.6811    9.5354   16.9998 C   0  0  0  0  0  0  0  0  0  0  0  0
    9.2512    4.2713   13.7653 O   0  0  0  0  0  0  0  0  0  0  0  0
    9.6495    8.6317   16.8332 N   0  0  0  0  0  0  0  0  0  0  0  0
    6.2934    8.6988   23.1988 O   0  0  0  0  0  0  0  0  0  0  0  0
    7.9806    8.6543   20.5437 C   0  0  0  0  0  0  0  0  0  0  0  0
   13.7270    5.7144   19.8610 O   0  0  0  0  0  0  0  0  0  0  0  0
    8.3351    5.5235   15.4478 C   0  0  0  0  0  0  0  0  0  0  0  0
    8.7700    7.8434   21.3915 C   0  0  0  0  0  0  0  0  0  0  0  0
   11.7856    6.8851   19.2401 C   0  0  0  0  0  0  0  0  0  0  0  0
   10.5281    7.4276   19.5649 C   0  0  0  0  0  0  0  0  0  0  0  0
   10.0256    7.2907   20.8484 C   0  0  0  0  0  0  0  0  0  0  0  0
    9.3113    5.3049   14.4911 C   0  0  0  0  0  0  0  0  0  0  0  0
    9.4607    7.5646   16.0139 C   0  0  0  0  0  0  0  0  0  0  0  0
   10.4192    7.3157   15.0955 C   0  0  0  0  0  0  0  0  0  0  0  0
   10.2489    6.4227   23.0218 N   0  0  0  0  0  0  0  0  0  0  0  0
    7.2472    8.0746   23.5050 C   0  0  0  0  0  0  0  0  0  0  0  0
    9.2051    6.9101   23.4604 C   0  0  0  0  0  0  0  0  0  0  0  0
   11.9646    6.0299   21.4251 C   0  0  0  0  0  0  0  0  0  0  0  0
  1  5  1  0
  1 13  1  0
  2 20  2  0
  2 28  1  0
  2 29  1  0
  3 19  4  0
  3 25  4  0
  4 23  4  0
  4 27  1  0
  4 30  4  0
  5 17  1  0
  6  8  1  0
  6 29  1  0
  7 24  4  0
  7 26  4  0
  8 28  1  0
  9 13  2  0
 10 18  1  0
 10 21  4  0
 10 30  4  0
 11 17  2  0
 12 18  1  0
 13 15  1  0
 14 24  1  0
 15 25  1  0
 16 28  2  0
 17 20  1  0
 19 24  4  0
 20 23  1  0
 21 22  4  0
 22 23  4  0
 25 26  4  0
 27 29  2  0
M  END
$$$$

 Created by Python create_sdf_string function

 30 33  0  0  0  0  0  0  0  0999 V2000
    8.3036    9.8571   18.4133 C   0  0  0  0  0  0  0  0  0  0  0  0
    8.3694    7.6612   22.6703 C   0  0  0  0  0  0  0  0  0  0  0  0
    8.4143    6.6863   16.2273 C   0  0  0  0  0  0  0  0  0  0  0  0
   10.7581    6.5674   21.7636 C   0  0  0  0  0  0  0  0  0  0  0  0
    8.4452    8.7960   19.2958 O   0  0  0  0  0  0  0  0  0  0  0  0
    8.7122    6.7842   24.8569 C   0  0  0  0  0  0  0  0  0  0  0  0
   10.3400    6.1726   14.3081 C   0  0  0  0  0  0  0  0  0  0  0  0
    7.4297    7.5873   24.8962 C   0  0  0  0  0  0  0  0  0  0  0  0
    8.1566   10.0536   16.0516 O   0  0  0  0  0  0  0  0  0  0  0  0
   12.4989    6.2074   20.1776 C   0  0  0  0  0  0  0  0  0  0  0  0
    6.9192    9.1053   20.9073 O   0  0  0  0  0  0  0  0  0  0  0  0
   14.3979    6.0729   18.7784 C   0  0  0  0  0  0  0  0  0  0  0  0
    8.6811    9.5354   16.9998 C   0  0  0  0  0  0  0  0  0  0  0  0
    9.2512    4.2713   13.7653 O   0  0  0  0  0  0  0  0  0  0  0  0
    9.6495    8.6317   16.8332 N   0  0  0  0  0  0  0  0  0  0  0  0
    6.2934    8.6988   23.1988 O   0  0  0  0  0  0  0  0  0  0  0  0
    7.9806    8.6543   20.5437 C   0  0  0  0  0  0  0  0  0  0  0  0
   13.7270    5.7144   19.8610 O   0  0  0  0  0  0  0  0  0  0  0  0
    8.3351    5.5235   15.4478 C   0  0  0  0  0  0  0  0  0  0  0  0
    8.7700    7.8434   21.3915 C   0  0  0  0  0  0  0  0  0  0  0  0
   11.7856    6.8851   19.2401 C   0  0  0  0  0  0  0  0  0  0  0  0
   10.5281    7.4276   19.5649 C   0  0  0  0  0  0  0  0  0  0  0  0
   10.0256    7.2907   20.8484 C   0  0  0  0  0  0  0  0  0  0  0  0
    9.3113    5.3049   14.4911 C   0  0  0  0  0  0  0  0  0  0  0  0
    9.4607    7.5646   16.0139 C   0  0  0  0  0  0  0  0  0  0  0  0
   10.4192    7.3157   15.0955 C   0  0  0  0  0  0  0  0  0  0  0  0
   10.2489    6.4227   23.0218 N   0  0  0  0  0  0  0  0  0  0  0  0
    7.2472    8.0746   23.5050 C   0  0  0  0  0  0  0  0  0  0  0  0
    9.2051    6.9101   23.4604 C   0  0  0  0  0  0  0  0  0  0  0  0
   11.9646    6.0299   21.4251 C   0  0  0  0  0  0  0  0  0  0  0  0
  1  5  1  0
  1 13  1  0
  2 20  2  0
  2 28  1  0
  2 29  1  0
  3 19  4  0
  3 25  4  0
  4 23  4  0
  4 27  1  0
  4 30  4  0
  5 17  1  0
  6  8  1  0
  6 29  1  0
  7 24  4  0
  7 26  4  0
  8 28  1  0
  9 13  2  0
 10 18  1  0
 10 21  4  0
 10 30  4  0
 11 17  2  0
 12 18  1  0
 13 15  1  0
 14 24  1  0
 15 25  1  0
 16 28  2  0
 17 20  1  0
 19 24  4  0
 20 23  1  0
 21 22  4  0
 22 23  4  0
 25 26  4  0
 27 29  2  0
M  END
$$$$

 Created by Python create_sdf_string function

 30 33  0  0  0  0  0  0  0  0999 V2000
    8.3036    9.8571   18.4133 C   0  0  0  0  0  0  0  0  0  0  0  0
    8.3694    7.6612   22.6703 C   0  0  0  0  0  0  0  0  0  0  0  0
    8.4143    6.6863   16.2273 C   0  0  0  0  0  0  0  0  0  0  0  0
   10.7581    6.5674   21.7636 C   0  0  0  0  0  0  0  0  0  0  0  0
    8.4452    8.7960   19.2958 O   0  0  0  0  0  0  0  0  0  0  0  0
    8.7122    6.7842   24.8569 C   0  0  0  0  0  0  0  0  0  0  0  0
   10.3400    6.1726   14.3081 C   0  0  0  0  0  0  0  0  0  0  0  0
    7.4297    7.5873   24.8962 C   0  0  0  0  0  0  0  0  0  0  0  0
    8.1566   10.0536   16.0516 O   0  0  0  0  0  0  0  0  0  0  0  0
   12.4989    6.2074   20.1776 C   0  0  0  0  0  0  0  0  0  0  0  0
    6.9192    9.1053   20.9073 O   0  0  0  0  0  0  0  0  0  0  0  0
   14.3979    6.0729   18.7784 C   0  0  0  0  0  0  0  0  0  0  0  0
    8.6811    9.5354   16.9998 C   0  0  0  0  0  0  0  0  0  0  0  0
    9.2512    4.2713   13.7653 O   0  0  0  0  0  0  0  0  0  0  0  0
    9.6495    8.6317   16.8332 N   0  0  0  0  0  0  0  0  0  0  0  0
    6.2934    8.6988   23.1988 O   0  0  0  0  0  0  0  0  0  0  0  0
    7.9806    8.6543   20.5437 C   0  0  0  0  0  0  0  0  0  0  0  0
   13.7270    5.7144   19.8610 O   0  0  0  0  0  0  0  0  0  0  0  0
    8.3351    5.5235   15.4478 C   0  0  0  0  0  0  0  0  0  0  0  0
    8.7700    7.8434   21.3915 C   0  0  0  0  0  0  0  0  0  0  0  0
   11.7856    6.8851   19.2401 C   0  0  0  0  0  0  0  0  0  0  0  0
   10.5281    7.4276   19.5649 C   0  0  0  0  0  0  0  0  0  0  0  0
   10.0256    7.2907   20.8484 C   0  0  0  0  0  0  0  0  0  0  0  0
    9.3113    5.3049   14.4911 C   0  0  0  0  0  0  0  0  0  0  0  0
    9.4607    7.5646   16.0139 C   0  0  0  0  0  0  0  0  0  0  0  0
   10.4192    7.3157   15.0955 C   0  0  0  0  0  0  0  0  0  0  0  0
   10.2489    6.4227   23.0218 N   0  0  0  0  0  0  0  0  0  0  0  0
    7.2472    8.0746   23.5050 C   0  0  0  0  0  0  0  0  0  0  0  0
    9.2051    6.9101   23.4604 C   0  0  0  0  0  0  0  0  0  0  0  0
   11.9646    6.0299   21.4251 C   0  0  0  0  0  0  0  0  0  0  0  0
  1  5  1  0
  1 13  1  0
  2 20  2  0
  2 28  1  0
  2 29  1  0
  3 19  4  0
  3 25  4  0
  4 23  4  0
  4 27  1  0
  4 30  4  0
  5 17  1  0
  6  8  1  0
  6 29  1  0
  7 24  4  0
  7 26  4  0
  8 28  1  0
  9 13  2  0
 10 18  1  0
 10 21  4  0
 10 30  4  0
 11 17  2  0
 12 18  1  0
 13 15  1  0
 14 24  1  0
 15 25  1  0
 16 28  2  0
 17 20  1  0
 19 24  4  0
 20 23  1  0
 21 22  4  0
 22 23  4  0
 25 26  4  0
 27 29  2  0
M  END
$$$$

 Created by Python create_sdf_string function

 30 33  0  0  0  0  0  0  0  0999 V2000
    8.3036    9.8571   18.4133 C   0  0  0  0  0  0  0  0  0  0  0  0
    8.3694    7.6612   22.6703 C   0  0  0  0  0  0  0  0  0  0  0  0
    8.4143    6.6863   16.2273 C   0  0  0  0  0  0  0  0  0  0  0  0
   10.7581    6.5674   21.7636 C   0  0  0  0  0  0  0  0  0  0  0  0
    8.4452    8.7960   19.2958 O   0  0  0  0  0  0  0  0  0  0  0  0
    8.7122    6.7842   24.8569 C   0  0  0  0  0  0  0  0  0  0  0  0
   10.3400    6.1726   14.3081 C   0  0  0  0  0  0  0  0  0  0  0  0
    7.4297    7.5873   24.8962 C   0  0  0  0  0  0  0  0  0  0  0  0
    8.1566   10.0536   16.0516 O   0  0  0  0  0  0  0  0  0  0  0  0
   12.4989    6.2074   20.1776 C   0  0  0  0  0  0  0  0  0  0  0  0
    6.9192    9.1053   20.9073 O   0  0  0  0  0  0  0  0  0  0  0  0
   14.3979    6.0729   18.7784 C   0  0  0  0  0  0  0  0  0  0  0  0
    8.6811    9.5354   16.9998 C   0  0  0  0  0  0  0  0  0  0  0  0
    9.2512    4.2713   13.7653 O   0  0  0  0  0  0  0  0  0  0  0  0
    9.6495    8.6317   16.8332 N   0  0  0  0  0  0  0  0  0  0  0  0
    6.2934    8.6988   23.1988 O   0  0  0  0  0  0  0  0  0  0  0  0
    7.9806    8.6543   20.5437 C   0  0  0  0  0  0  0  0  0  0  0  0
   13.7270    5.7144   19.8610 O   0  0  0  0  0  0  0  0  0  0  0  0
    8.3351    5.5235   15.4478 C   0  0  0  0  0  0  0  0  0  0  0  0
    8.7700    7.8434   21.3915 C   0  0  0  0  0  0  0  0  0  0  0  0
   11.7856    6.8851   19.2401 C   0  0  0  0  0  0  0  0  0  0  0  0
   10.5281    7.4276   19.5649 C   0  0  0  0  0  0  0  0  0  0  0  0
   10.0256    7.2907   20.8484 C   0  0  0  0  0  0  0  0  0  0  0  0
    9.3113    5.3049   14.4911 C   0  0  0  0  0  0  0  0  0  0  0  0
    9.4607    7.5646   16.0139 C   0  0  0  0  0  0  0  0  0  0  0  0
   10.4192    7.3157   15.0955 C   0  0  0  0  0  0  0  0  0  0  0  0
   10.2489    6.4227   23.0218 N   0  0  0  0  0  0  0  0  0  0  0  0
    7.2472    8.0746   23.5050 C   0  0  0  0  0  0  0  0  0  0  0  0
    9.2051    6.9101   23.4604 C   0  0  0  0  0  0  0  0  0  0  0  0
   11.9646    6.0299   21.4251 C   0  0  0  0  0  0  0  0  0  0  0  0
  1  5  1  0
  1 13  1  0
  2 20  2  0
  2 28  1  0
  2 29  1  0
  3 19  4  0
  3 25  4  0
  4 23  4  0
  4 27  1  0
  4 30  4  0
  5 17  1  0
  6  8  1  0
  6 29  1  0
  7 24  4  0
  7 26  4  0
  8 28  1  0
  9 13  2  0
 10 18  1  0
 10 21  4  0
 10 30  4  0
 11 17  2  0
 12 18  1  0
 13 15  1  0
 14 24  1  0
 15 25  1  0
 16 28  2  0
 17 20  1  0
 19 24  4  0
 20 23  1  0
 21 22  4  0
 22 23  4  0
 25 26  4  0
 27 29  2  0
M  END
$$$$

 Created by Python create_sdf_string function

 30 33  0  0  0  0  0  0  0  0999 V2000
    8.3036    9.8571   18.4133 C   0  0  0  0  0  0  0  0  0  0  0  0
    8.3694    7.6612   22.6703 C   0  0  0  0  0  0  0  0  0  0  0  0
    8.4143    6.6863   16.2273 C   0  0  0  0  0  0  0  0  0  0  0  0
   10.7581    6.5674   21.7636 C   0  0  0  0  0  0  0  0  0  0  0  0
    8.4452    8.7960   19.2958 O   0  0  0  0  0  0  0  0  0  0  0  0
    8.7122    6.7842   24.8569 C   0  0  0  0  0  0  0  0  0  0  0  0
   10.3400    6.1726   14.3081 C   0  0  0  0  0  0  0  0  0  0  0  0
    7.4297    7.5873   24.8962 C   0  0  0  0  0  0  0  0  0  0  0  0
    8.1566   10.0536   16.0516 O   0  0  0  0  0  0  0  0  0  0  0  0
   12.4989    6.2074   20.1776 C   0  0  0  0  0  0  0  0  0  0  0  0
    6.9192    9.1053   20.9073 O   0  0  0  0  0  0  0  0  0  0  0  0
   14.3979    6.0729   18.7784 C   0  0  0  0  0  0  0  0  0  0  0  0
    8.6811    9.5354   16.9998 C   0  0  0  0  0  0  0  0  0  0  0  0
    9.2512    4.2713   13.7653 O   0  0  0  0  0  0  0  0  0  0  0  0
    9.6495    8.6317   16.8332 N   0  0  0  0  0  0  0  0  0  0  0  0
    6.2934    8.6988   23.1988 O   0  0  0  0  0  0  0  0  0  0  0  0
    7.9806    8.6543   20.5437 C   0  0  0  0  0  0  0  0  0  0  0  0
   13.7270    5.7144   19.8610 O   0  0  0  0  0  0  0  0  0  0  0  0
    8.3351    5.5235   15.4478 C   0  0  0  0  0  0  0  0  0  0  0  0
    8.7700    7.8434   21.3915 C   0  0  0  0  0  0  0  0  0  0  0  0
   11.7856    6.8851   19.2401 C   0  0  0  0  0  0  0  0  0  0  0  0
   10.5281    7.4276   19.5649 C   0  0  0  0  0  0  0  0  0  0  0  0
   10.0256    7.2907   20.8484 C   0  0  0  0  0  0  0  0  0  0  0  0
    9.3113    5.3049   14.4911 C   0  0  0  0  0  0  0  0  0  0  0  0
    9.4607    7.5646   16.0139 C   0  0  0  0  0  0  0  0  0  0  0  0
   10.4192    7.3157   15.0955 C   0  0  0  0  0  0  0  0  0  0  0  0
   10.2489    6.4227   23.0218 N   0  0  0  0  0  0  0  0  0  0  0  0
    7.2472    8.0746   23.5050 C   0  0  0  0  0  0  0  0  0  0  0  0
    9.2051    6.9101   23.4604 C   0  0  0  0  0  0  0  0  0  0  0  0
   11.9646    6.0299   21.4251 C   0  0  0  0  0  0  0  0  0  0  0  0
  1  5  1  0
  1 13  1  0
  2 20  2  0
  2 28  1  0
  2 29  1  0
  3 19  4  0
  3 25  4  0
  4 23  4  0
  4 27  1  0
  4 30  4  0
  5 17  1  0
  6  8  1  0
  6 29  1  0
  7 24  4  0
  7 26  4  0
  8 28  1  0
  9 13  2  0
 10 18  1  0
 10 21  4  0
 10 30  4  0
 11 17  2  0
 12 18  1  0
 13 15  1  0
 14 24  1  0
 15 25  1  0
 16 28  2  0
 17 20  1  0
 19 24  4  0
 20 23  1  0
 21 22  4  0
 22 23  4  0
 25 26  4  0
 27 29  2  0
M  END
$$$$

 Created by Python create_sdf_string function

 30 33  0  0  0  0  0  0  0  0999 V2000
    8.3036    9.8571   18.4133 C   0  0  0  0  0  0  0  0  0  0  0  0
    8.3694    7.6612   22.6703 C   0  0  0  0  0  0  0  0  0  0  0  0
    8.4143    6.6863   16.2273 C   0  0  0  0  0  0  0  0  0  0  0  0
   10.7581    6.5674   21.7636 C   0  0  0  0  0  0  0  0  0  0  0  0
    8.4452    8.7960   19.2958 O   0  0  0  0  0  0  0  0  0  0  0  0
    8.7122    6.7842   24.8569 C   0  0  0  0  0  0  0  0  0  0  0  0
   10.3400    6.1726   14.3081 C   0  0  0  0  0  0  0  0  0  0  0  0
    7.4297    7.5873   24.8962 C   0  0  0  0  0  0  0  0  0  0  0  0
    8.1566   10.0536   16.0516 O   0  0  0  0  0  0  0  0  0  0  0  0
   12.4989    6.2074   20.1776 C   0  0  0  0  0  0  0  0  0  0  0  0
    6.9192    9.1053   20.9073 O   0  0  0  0  0  0  0  0  0  0  0  0
   14.3979    6.0729   18.7784 C   0  0  0  0  0  0  0  0  0  0  0  0
    8.6811    9.5354   16.9998 C   0  0  0  0  0  0  0  0  0  0  0  0
    9.2512    4.2713   13.7653 O   0  0  0  0  0  0  0  0  0  0  0  0
    9.6495    8.6317   16.8332 N   0  0  0  0  0  0  0  0  0  0  0  0
    6.2934    8.6988   23.1988 O   0  0  0  0  0  0  0  0  0  0  0  0
    7.9806    8.6543   20.5437 C   0  0  0  0  0  0  0  0  0  0  0  0
   13.7270    5.7144   19.8610 O   0  0  0  0  0  0  0  0  0  0  0  0
    8.3351    5.5235   15.4478 C   0  0  0  0  0  0  0  0  0  0  0  0
    8.7700    7.8434   21.3915 C   0  0  0  0  0  0  0  0  0  0  0  0
   11.7856    6.8851   19.2401 C   0  0  0  0  0  0  0  0  0  0  0  0
   10.5281    7.4276   19.5649 C   0  0  0  0  0  0  0  0  0  0  0  0
   10.0256    7.2907   20.8484 C   0  0  0  0  0  0  0  0  0  0  0  0
    9.3113    5.3049   14.4911 C   0  0  0  0  0  0  0  0  0  0  0  0
    9.4607    7.5646   16.0139 C   0  0  0  0  0  0  0  0  0  0  0  0
   10.4192    7.3157   15.0955 C   0  0  0  0  0  0  0  0  0  0  0  0
   10.2489    6.4227   23.0218 N   0  0  0  0  0  0  0  0  0  0  0  0
    7.2472    8.0746   23.5050 C   0  0  0  0  0  0  0  0  0  0  0  0
    9.2051    6.9101   23.4604 C   0  0  0  0  0  0  0  0  0  0  0  0
   11.9646    6.0299   21.4251 C   0  0  0  0  0  0  0  0  0  0  0  0
  1  5  1  0
  1 13  1  0
  2 20  2  0
  2 28  1  0
  2 29  1  0
  3 19  4  0
  3 25  4  0
  4 23  4  0
  4 27  1  0
  4 30  4  0
  5 17  1  0
  6  8  1  0
  6 29  1  0
  7 24  4  0
  7 26  4  0
  8 28  1  0
  9 13  2  0
 10 18  1  0
 10 21  4  0
 10 30  4  0
 11 17  2  0
 12 18  1  0
 13 15  1  0
 14 24  1  0
 15 25  1  0
 16 28  2  0
 17 20  1  0
 19 24  4  0
 20 23  1  0
 21 22  4  0
 22 23  4  0
 25 26  4  0
 27 29  2  0
M  END
$$$$

 Created by Python create_sdf_string function

 30 33  0  0  0  0  0  0  0  0999 V2000
    8.3036    9.8571   18.4133 C   0  0  0  0  0  0  0  0  0  0  0  0
    8.3694    7.6612   22.6703 C   0  0  0  0  0  0  0  0  0  0  0  0
    8.4143    6.6863   16.2273 C   0  0  0  0  0  0  0  0  0  0  0  0
   10.7581    6.5674   21.7636 C   0  0  0  0  0  0  0  0  0  0  0  0
    8.4452    8.7960   19.2958 O   0  0  0  0  0  0  0  0  0  0  0  0
    8.7122    6.7842   24.8569 C   0  0  0  0  0  0  0  0  0  0  0  0
   10.3400    6.1726   14.3081 C   0  0  0  0  0  0  0  0  0  0  0  0
    7.4297    7.5873   24.8962 C   0  0  0  0  0  0  0  0  0  0  0  0
    8.1566   10.0536   16.0516 O   0  0  0  0  0  0  0  0  0  0  0  0
   12.4989    6.2074   20.1776 C   0  0  0  0  0  0  0  0  0  0  0  0
    6.9192    9.1053   20.9073 O   0  0  0  0  0  0  0  0  0  0  0  0
   14.3979    6.0729   18.7784 C   0  0  0  0  0  0  0  0  0  0  0  0
    8.6811    9.5354   16.9998 C   0  0  0  0  0  0  0  0  0  0  0  0
    9.2512    4.2713   13.7653 O   0  0  0  0  0  0  0  0  0  0  0  0
    9.6495    8.6317   16.8332 N   0  0  0  0  0  0  0  0  0  0  0  0
    6.2934    8.6988   23.1988 O   0  0  0  0  0  0  0  0  0  0  0  0
    7.9806    8.6543   20.5437 C   0  0  0  0  0  0  0  0  0  0  0  0
   13.7270    5.7144   19.8610 O   0  0  0  0  0  0  0  0  0  0  0  0
    8.3351    5.5235   15.4478 C   0  0  0  0  0  0  0  0  0  0  0  0
    8.7700    7.8434   21.3915 C   0  0  0  0  0  0  0  0  0  0  0  0
   11.7856    6.8851   19.2401 C   0  0  0  0  0  0  0  0  0  0  0  0
   10.5281    7.4276   19.5649 C   0  0  0  0  0  0  0  0  0  0  0  0
   10.0256    7.2907   20.8484 C   0  0  0  0  0  0  0  0  0  0  0  0
    9.3113    5.3049   14.4911 C   0  0  0  0  0  0  0  0  0  0  0  0
    9.4607    7.5646   16.0139 C   0  0  0  0  0  0  0  0  0  0  0  0
   10.4192    7.3157   15.0955 C   0  0  0  0  0  0  0  0  0  0  0  0
   10.2489    6.4227   23.0218 N   0  0  0  0  0  0  0  0  0  0  0  0
    7.2472    8.0746   23.5050 C   0  0  0  0  0  0  0  0  0  0  0  0
    9.2051    6.9101   23.4604 C   0  0  0  0  0  0  0  0  0  0  0  0
   11.9646    6.0299   21.4251 C   0  0  0  0  0  0  0  0  0  0  0  0
  1  5  1  0
  1 13  1  0
  2 20  2  0
  2 28  1  0
  2 29  1  0
  3 19  4  0
  3 25  4  0
  4 23  4  0
  4 27  1  0
  4 30  4  0
  5 17  1  0
  6  8  1  0
  6 29  1  0
  7 24  4  0
  7 26  4  0
  8 28  1  0
  9 13  2  0
 10 18  1  0
 10 21  4  0
 10 30  4  0
 11 17  2  0
 12 18  1  0
 13 15  1  0
 14 24  1  0
 15 25  1  0
 16 28  2  0
 17 20  1  0
 19 24  4  0
 20 23  1  0
 21 22  4  0
 22 23  4  0
 25 26  4  0
 27 29  2  0
M  END
$$$$

 Created by Python create_sdf_string function

 30 33  0  0  0  0  0  0  0  0999 V2000
    8.3036    9.8571   18.4133 C   0  0  0  0  0  0  0  0  0  0  0  0
    8.3694    7.6612   22.6703 C   0  0  0  0  0  0  0  0  0  0  0  0
    8.4143    6.6863   16.2273 C   0  0  0  0  0  0  0  0  0  0  0  0
   10.7581    6.5674   21.7636 C   0  0  0  0  0  0  0  0  0  0  0  0
    8.4452    8.7960   19.2958 O   0  0  0  0  0  0  0  0  0  0  0  0
    8.7122    6.7842   24.8569 C   0  0  0  0  0  0  0  0  0  0  0  0
   10.3400    6.1726   14.3081 C   0  0  0  0  0  0  0  0  0  0  0  0
    7.4297    7.5873   24.8962 C   0  0  0  0  0  0  0  0  0  0  0  0
    8.1566   10.0536   16.0516 O   0  0  0  0  0  0  0  0  0  0  0  0
   12.4989    6.2074   20.1776 C   0  0  0  0  0  0  0  0  0  0  0  0
    6.9192    9.1053   20.9073 O   0  0  0  0  0  0  0  0  0  0  0  0
   14.3979    6.0729   18.7784 C   0  0  0  0  0  0  0  0  0  0  0  0
    8.6811    9.5354   16.9998 C   0  0  0  0  0  0  0  0  0  0  0  0
    9.2512    4.2713   13.7653 O   0  0  0  0  0  0  0  0  0  0  0  0
    9.6495    8.6317   16.8332 N   0  0  0  0  0  0  0  0  0  0  0  0
    6.2934    8.6988   23.1988 O   0  0  0  0  0  0  0  0  0  0  0  0
    7.9806    8.6543   20.5437 C   0  0  0  0  0  0  0  0  0  0  0  0
   13.7270    5.7144   19.8610 O   0  0  0  0  0  0  0  0  0  0  0  0
    8.3351    5.5235   15.4478 C   0  0  0  0  0  0  0  0  0  0  0  0
    8.7700    7.8434   21.3915 C   0  0  0  0  0  0  0  0  0  0  0  0
   11.7856    6.8851   19.2401 C   0  0  0  0  0  0  0  0  0  0  0  0
   10.5281    7.4276   19.5649 C   0  0  0  0  0  0  0  0  0  0  0  0
   10.0256    7.2907   20.8484 C   0  0  0  0  0  0  0  0  0  0  0  0
    9.3113    5.3049   14.4911 C   0  0  0  0  0  0  0  0  0  0  0  0
    9.4607    7.5646   16.0139 C   0  0  0  0  0  0  0  0  0  0  0  0
   10.4192    7.3157   15.0955 C   0  0  0  0  0  0  0  0  0  0  0  0
   10.2489    6.4227   23.0218 N   0  0  0  0  0  0  0  0  0  0  0  0
    7.2472    8.0746   23.5050 C   0  0  0  0  0  0  0  0  0  0  0  0
    9.2051    6.9101   23.4604 C   0  0  0  0  0  0  0  0  0  0  0  0
   11.9646    6.0299   21.4251 C   0  0  0  0  0  0  0  0  0  0  0  0
  1  5  1  0
  1 13  1  0
  2 20  2  0
  2 28  1  0
  2 29  1  0
  3 19  4  0
  3 25  4  0
  4 23  4  0
  4 27  1  0
  4 30  4  0
  5 17  1  0
  6  8  1  0
  6 29  1  0
  7 24  4  0
  7 26  4  0
  8 28  1  0
  9 13  2  0
 10 18  1  0
 10 21  4  0
 10 30  4  0
 11 17  2  0
 12 18  1  0
 13 15  1  0
 14 24  1  0
 15 25  1  0
 16 28  2  0
 17 20  1  0
 19 24  4  0
 20 23  1  0
 21 22  4  0
 22 23  4  0
 25 26  4  0
 27 29  2  0
M  END
$$$$

 Created by Python create_sdf_string function

 30 33  0  0  0  0  0  0  0  0999 V2000
    8.3036    9.8571   18.4133 C   0  0  0  0  0  0  0  0  0  0  0  0
    8.3694    7.6612   22.6703 C   0  0  0  0  0  0  0  0  0  0  0  0
    8.4143    6.6863   16.2273 C   0  0  0  0  0  0  0  0  0  0  0  0
   10.7581    6.5674   21.7636 C   0  0  0  0  0  0  0  0  0  0  0  0
    8.4452    8.7960   19.2958 O   0  0  0  0  0  0  0  0  0  0  0  0
    8.7122    6.7842   24.8569 C   0  0  0  0  0  0  0  0  0  0  0  0
   10.3400    6.1726   14.3081 C   0  0  0  0  0  0  0  0  0  0  0  0
    7.4297    7.5873   24.8962 C   0  0  0  0  0  0  0  0  0  0  0  0
    8.1566   10.0536   16.0516 O   0  0  0  0  0  0  0  0  0  0  0  0
   12.4989    6.2074   20.1776 C   0  0  0  0  0  0  0  0  0  0  0  0
    6.9192    9.1053   20.9073 O   0  0  0  0  0  0  0  0  0  0  0  0
   14.3979    6.0729   18.7784 C   0  0  0  0  0  0  0  0  0  0  0  0
    8.6811    9.5354   16.9998 C   0  0  0  0  0  0  0  0  0  0  0  0
    9.2512    4.2713   13.7653 O   0  0  0  0  0  0  0  0  0  0  0  0
    9.6495    8.6317   16.8332 N   0  0  0  0  0  0  0  0  0  0  0  0
    6.2934    8.6988   23.1988 O   0  0  0  0  0  0  0  0  0  0  0  0
    7.9806    8.6543   20.5437 C   0  0  0  0  0  0  0  0  0  0  0  0
   13.7270    5.7144   19.8610 O   0  0  0  0  0  0  0  0  0  0  0  0
    8.3351    5.5235   15.4478 C   0  0  0  0  0  0  0  0  0  0  0  0
    8.7700    7.8434   21.3915 C   0  0  0  0  0  0  0  0  0  0  0  0
   11.7856    6.8851   19.2401 C   0  0  0  0  0  0  0  0  0  0  0  0
   10.5281    7.4276   19.5649 C   0  0  0  0  0  0  0  0  0  0  0  0
   10.0256    7.2907   20.8484 C   0  0  0  0  0  0  0  0  0  0  0  0
    9.3113    5.3049   14.4911 C   0  0  0  0  0  0  0  0  0  0  0  0
    9.4607    7.5646   16.0139 C   0  0  0  0  0  0  0  0  0  0  0  0
   10.4192    7.3157   15.0955 C   0  0  0  0  0  0  0  0  0  0  0  0
   10.2489    6.4227   23.0218 N   0  0  0  0  0  0  0  0  0  0  0  0
    7.2472    8.0746   23.5050 C   0  0  0  0  0  0  0  0  0  0  0  0
    9.2051    6.9101   23.4604 C   0  0  0  0  0  0  0  0  0  0  0  0
   11.9646    6.0299   21.4251 C   0  0  0  0  0  0  0  0  0  0  0  0
  1  5  1  0
  1 13  1  0
  2 20  2  0
  2 28  1  0
  2 29  1  0
  3 19  4  0
  3 25  4  0
  4 23  4  0
  4 27  1  0
  4 30  4  0
  5 17  1  0
  6  8  1  0
  6 29  1  0
  7 24  4  0
  7 26  4  0
  8 28  1  0
  9 13  2  0
 10 18  1  0
 10 21  4  0
 10 30  4  0
 11 17  2  0
 12 18  1  0
 13 15  1  0
 14 24  1  0
 15 25  1  0
 16 28  2  0
 17 20  1  0
 19 24  4  0
 20 23  1  0
 21 22  4  0
 22 23  4  0
 25 26  4  0
 27 29  2  0
M  END
$$$$

 Created by Python create_sdf_string function

 30 33  0  0  0  0  0  0  0  0999 V2000
    8.3036    9.8571   18.4133 C   0  0  0  0  0  0  0  0  0  0  0  0
    8.3694    7.6612   22.6703 C   0  0  0  0  0  0  0  0  0  0  0  0
    8.4143    6.6863   16.2273 C   0  0  0  0  0  0  0  0  0  0  0  0
   10.7581    6.5674   21.7636 C   0  0  0  0  0  0  0  0  0  0  0  0
    8.4452    8.7960   19.2958 O   0  0  0  0  0  0  0  0  0  0  0  0
    8.7122    6.7842   24.8569 C   0  0  0  0  0  0  0  0  0  0  0  0
   10.3400    6.1726   14.3081 C   0  0  0  0  0  0  0  0  0  0  0  0
    7.4297    7.5873   24.8962 C   0  0  0  0  0  0  0  0  0  0  0  0
    8.1566   10.0536   16.0516 O   0  0  0  0  0  0  0  0  0  0  0  0
   12.4989    6.2074   20.1776 C   0  0  0  0  0  0  0  0  0  0  0  0
    6.9192    9.1053   20.9073 O   0  0  0  0  0  0  0  0  0  0  0  0
   14.3979    6.0729   18.7784 C   0  0  0  0  0  0  0  0  0  0  0  0
    8.6811    9.5354   16.9998 C   0  0  0  0  0  0  0  0  0  0  0  0
    9.2512    4.2713   13.7653 O   0  0  0  0  0  0  0  0  0  0  0  0
    9.6495    8.6317   16.8332 N   0  0  0  0  0  0  0  0  0  0  0  0
    6.2934    8.6988   23.1988 O   0  0  0  0  0  0  0  0  0  0  0  0
    7.9806    8.6543   20.5437 C   0  0  0  0  0  0  0  0  0  0  0  0
   13.7270    5.7144   19.8610 O   0  0  0  0  0  0  0  0  0  0  0  0
    8.3351    5.5235   15.4478 C   0  0  0  0  0  0  0  0  0  0  0  0
    8.7700    7.8434   21.3915 C   0  0  0  0  0  0  0  0  0  0  0  0
   11.7856    6.8851   19.2401 C   0  0  0  0  0  0  0  0  0  0  0  0
   10.5281    7.4276   19.5649 C   0  0  0  0  0  0  0  0  0  0  0  0
   10.0256    7.2907   20.8484 C   0  0  0  0  0  0  0  0  0  0  0  0
    9.3113    5.3049   14.4911 C   0  0  0  0  0  0  0  0  0  0  0  0
    9.4607    7.5646   16.0139 C   0  0  0  0  0  0  0  0  0  0  0  0
   10.4192    7.3157   15.0955 C   0  0  0  0  0  0  0  0  0  0  0  0
   10.2489    6.4227   23.0218 N   0  0  0  0  0  0  0  0  0  0  0  0
    7.2472    8.0746   23.5050 C   0  0  0  0  0  0  0  0  0  0  0  0
    9.2051    6.9101   23.4604 C   0  0  0  0  0  0  0  0  0  0  0  0
   11.9646    6.0299   21.4251 C   0  0  0  0  0  0  0  0  0  0  0  0
  1  5  1  0
  1 13  1  0
  2 20  2  0
  2 28  1  0
  2 29  1  0
  3 19  4  0
  3 25  4  0
  4 23  4  0
  4 27  1  0
  4 30  4  0
  5 17  1  0
  6  8  1  0
  6 29  1  0
  7 24  4  0
  7 26  4  0
  8 28  1  0
  9 13  2  0
 10 18  1  0
 10 21  4  0
 10 30  4  0
 11 17  2  0
 12 18  1  0
 13 15  1  0
 14 24  1  0
 15 25  1  0
 16 28  2  0
 17 20  1  0
 19 24  4  0
 20 23  1  0
 21 22  4  0
 22 23  4  0
 25 26  4  0
 27 29  2  0
M  END
$$$$

 Created by Python create_sdf_string function

 30 33  0  0  0  0  0  0  0  0999 V2000
    8.3036    9.8571   18.4133 C   0  0  0  0  0  0  0  0  0  0  0  0
    8.3694    7.6612   22.6703 C   0  0  0  0  0  0  0  0  0  0  0  0
    8.4143    6.6863   16.2273 C   0  0  0  0  0  0  0  0  0  0  0  0
   10.7581    6.5674   21.7636 C   0  0  0  0  0  0  0  0  0  0  0  0
    8.4452    8.7960   19.2958 O   0  0  0  0  0  0  0  0  0  0  0  0
    8.7122    6.7842   24.8569 C   0  0  0  0  0  0  0  0  0  0  0  0
   10.3400    6.1726   14.3081 C   0  0  0  0  0  0  0  0  0  0  0  0
    7.4297    7.5873   24.8962 C   0  0  0  0  0  0  0  0  0  0  0  0
    8.1566   10.0536   16.0516 O   0  0  0  0  0  0  0  0  0  0  0  0
   12.4989    6.2074   20.1776 C   0  0  0  0  0  0  0  0  0  0  0  0
    6.9192    9.1053   20.9073 O   0  0  0  0  0  0  0  0  0  0  0  0
   14.3979    6.0729   18.7784 C   0  0  0  0  0  0  0  0  0  0  0  0
    8.6811    9.5354   16.9998 C   0  0  0  0  0  0  0  0  0  0  0  0
    9.2512    4.2713   13.7653 O   0  0  0  0  0  0  0  0  0  0  0  0
    9.6495    8.6317   16.8332 N   0  0  0  0  0  0  0  0  0  0  0  0
    6.2934    8.6988   23.1988 O   0  0  0  0  0  0  0  0  0  0  0  0
    7.9806    8.6543   20.5437 C   0  0  0  0  0  0  0  0  0  0  0  0
   13.7270    5.7144   19.8610 O   0  0  0  0  0  0  0  0  0  0  0  0
    8.3351    5.5235   15.4478 C   0  0  0  0  0  0  0  0  0  0  0  0
    8.7700    7.8434   21.3915 C   0  0  0  0  0  0  0  0  0  0  0  0
   11.7856    6.8851   19.2401 C   0  0  0  0  0  0  0  0  0  0  0  0
   10.5281    7.4276   19.5649 C   0  0  0  0  0  0  0  0  0  0  0  0
   10.0256    7.2907   20.8484 C   0  0  0  0  0  0  0  0  0  0  0  0
    9.3113    5.3049   14.4911 C   0  0  0  0  0  0  0  0  0  0  0  0
    9.4607    7.5646   16.0139 C   0  0  0  0  0  0  0  0  0  0  0  0
   10.4192    7.3157   15.0955 C   0  0  0  0  0  0  0  0  0  0  0  0
   10.2489    6.4227   23.0218 N   0  0  0  0  0  0  0  0  0  0  0  0
    7.2472    8.0746   23.5050 C   0  0  0  0  0  0  0  0  0  0  0  0
    9.2051    6.9101   23.4604 C   0  0  0  0  0  0  0  0  0  0  0  0
   11.9646    6.0299   21.4251 C   0  0  0  0  0  0  0  0  0  0  0  0
  1  5  1  0
  1 13  1  0
  2 20  2  0
  2 28  1  0
  2 29  1  0
  3 19  4  0
  3 25  4  0
  4 23  4  0
  4 27  1  0
  4 30  4  0
  5 17  1  0
  6  8  1  0
  6 29  1  0
  7 24  4  0
  7 26  4  0
  8 28  1  0
  9 13  2  0
 10 18  1  0
 10 21  4  0
 10 30  4  0
 11 17  2  0
 12 18  1  0
 13 15  1  0
 14 24  1  0
 15 25  1  0
 16 28  2  0
 17 20  1  0
 19 24  4  0
 20 23  1  0
 21 22  4  0
 22 23  4  0
 25 26  4  0
 27 29  2  0
M  END
$$$$

 Created by Python create_sdf_string function

 30 33  0  0  0  0  0  0  0  0999 V2000
    8.3036    9.8571   18.4133 C   0  0  0  0  0  0  0  0  0  0  0  0
    8.3694    7.6612   22.6703 C   0  0  0  0  0  0  0  0  0  0  0  0
    8.4143    6.6863   16.2273 C   0  0  0  0  0  0  0  0  0  0  0  0
   10.7581    6.5674   21.7636 C   0  0  0  0  0  0  0  0  0  0  0  0
    8.4452    8.7960   19.2958 O   0  0  0  0  0  0  0  0  0  0  0  0
    8.7122    6.7842   24.8569 C   0  0  0  0  0  0  0  0  0  0  0  0
   10.3400    6.1726   14.3081 C   0  0  0  0  0  0  0  0  0  0  0  0
    7.4297    7.5873   24.8962 C   0  0  0  0  0  0  0  0  0  0  0  0
    8.1566   10.0536   16.0516 O   0  0  0  0  0  0  0  0  0  0  0  0
   12.4989    6.2074   20.1776 C   0  0  0  0  0  0  0  0  0  0  0  0
    6.9192    9.1053   20.9073 O   0  0  0  0  0  0  0  0  0  0  0  0
   14.3979    6.0729   18.7784 C   0  0  0  0  0  0  0  0  0  0  0  0
    8.6811    9.5354   16.9998 C   0  0  0  0  0  0  0  0  0  0  0  0
    9.2512    4.2713   13.7653 O   0  0  0  0  0  0  0  0  0  0  0  0
    9.6495    8.6317   16.8332 N   0  0  0  0  0  0  0  0  0  0  0  0
    6.2934    8.6988   23.1988 O   0  0  0  0  0  0  0  0  0  0  0  0
    7.9806    8.6543   20.5437 C   0  0  0  0  0  0  0  0  0  0  0  0
   13.7270    5.7144   19.8610 O   0  0  0  0  0  0  0  0  0  0  0  0
    8.3351    5.5235   15.4478 C   0  0  0  0  0  0  0  0  0  0  0  0
    8.7700    7.8434   21.3915 C   0  0  0  0  0  0  0  0  0  0  0  0
   11.7856    6.8851   19.2401 C   0  0  0  0  0  0  0  0  0  0  0  0
   10.5281    7.4276   19.5649 C   0  0  0  0  0  0  0  0  0  0  0  0
   10.0256    7.2907   20.8484 C   0  0  0  0  0  0  0  0  0  0  0  0
    9.3113    5.3049   14.4911 C   0  0  0  0  0  0  0  0  0  0  0  0
    9.4607    7.5646   16.0139 C   0  0  0  0  0  0  0  0  0  0  0  0
   10.4192    7.3157   15.0955 C   0  0  0  0  0  0  0  0  0  0  0  0
   10.2489    6.4227   23.0218 N   0  0  0  0  0  0  0  0  0  0  0  0
    7.2472    8.0746   23.5050 C   0  0  0  0  0  0  0  0  0  0  0  0
    9.2051    6.9101   23.4604 C   0  0  0  0  0  0  0  0  0  0  0  0
   11.9646    6.0299   21.4251 C   0  0  0  0  0  0  0  0  0  0  0  0
  1  5  1  0
  1 13  1  0
  2 20  2  0
  2 28  1  0
  2 29  1  0
  3 19  4  0
  3 25  4  0
  4 23  4  0
  4 27  1  0
  4 30  4  0
  5 17  1  0
  6  8  1  0
  6 29  1  0
  7 24  4  0
  7 26  4  0
  8 28  1  0
  9 13  2  0
 10 18  1  0
 10 21  4  0
 10 30  4  0
 11 17  2  0
 12 18  1  0
 13 15  1  0
 14 24  1  0
 15 25  1  0
 16 28  2  0
 17 20  1  0
 19 24  4  0
 20 23  1  0
 21 22  4  0
 22 23  4  0
 25 26  4  0
 27 29  2  0
M  END
$$$$

 Created by Python create_sdf_string function

 30 33  0  0  0  0  0  0  0  0999 V2000
    8.3036    9.8571   18.4133 C   0  0  0  0  0  0  0  0  0  0  0  0
    8.3694    7.6612   22.6703 C   0  0  0  0  0  0  0  0  0  0  0  0
    8.4143    6.6863   16.2273 C   0  0  0  0  0  0  0  0  0  0  0  0
   10.7581    6.5674   21.7636 C   0  0  0  0  0  0  0  0  0  0  0  0
    8.4452    8.7960   19.2958 O   0  0  0  0  0  0  0  0  0  0  0  0
    8.7122    6.7842   24.8569 C   0  0  0  0  0  0  0  0  0  0  0  0
   10.3400    6.1726   14.3081 C   0  0  0  0  0  0  0  0  0  0  0  0
    7.4297    7.5873   24.8962 C   0  0  0  0  0  0  0  0  0  0  0  0
    8.1566   10.0536   16.0516 O   0  0  0  0  0  0  0  0  0  0  0  0
   12.4989    6.2074   20.1776 C   0  0  0  0  0  0  0  0  0  0  0  0
    6.9192    9.1053   20.9073 O   0  0  0  0  0  0  0  0  0  0  0  0
   14.3979    6.0729   18.7784 C   0  0  0  0  0  0  0  0  0  0  0  0
    8.6811    9.5354   16.9998 C   0  0  0  0  0  0  0  0  0  0  0  0
    9.2512    4.2713   13.7653 O   0  0  0  0  0  0  0  0  0  0  0  0
    9.6495    8.6317   16.8332 N   0  0  0  0  0  0  0  0  0  0  0  0
    6.2934    8.6988   23.1988 O   0  0  0  0  0  0  0  0  0  0  0  0
    7.9806    8.6543   20.5437 C   0  0  0  0  0  0  0  0  0  0  0  0
   13.7270    5.7144   19.8610 O   0  0  0  0  0  0  0  0  0  0  0  0
    8.3351    5.5235   15.4478 C   0  0  0  0  0  0  0  0  0  0  0  0
    8.7700    7.8434   21.3915 C   0  0  0  0  0  0  0  0  0  0  0  0
   11.7856    6.8851   19.2401 C   0  0  0  0  0  0  0  0  0  0  0  0
   10.5281    7.4276   19.5649 C   0  0  0  0  0  0  0  0  0  0  0  0
   10.0256    7.2907   20.8484 C   0  0  0  0  0  0  0  0  0  0  0  0
    9.3113    5.3049   14.4911 C   0  0  0  0  0  0  0  0  0  0  0  0
    9.4607    7.5646   16.0139 C   0  0  0  0  0  0  0  0  0  0  0  0
   10.4192    7.3157   15.0955 C   0  0  0  0  0  0  0  0  0  0  0  0
   10.2489    6.4227   23.0218 N   0  0  0  0  0  0  0  0  0  0  0  0
    7.2472    8.0746   23.5050 C   0  0  0  0  0  0  0  0  0  0  0  0
    9.2051    6.9101   23.4604 C   0  0  0  0  0  0  0  0  0  0  0  0
   11.9646    6.0299   21.4251 C   0  0  0  0  0  0  0  0  0  0  0  0
  1  5  1  0
  1 13  1  0
  2 20  2  0
  2 28  1  0
  2 29  1  0
  3 19  4  0
  3 25  4  0
  4 23  4  0
  4 27  1  0
  4 30  4  0
  5 17  1  0
  6  8  1  0
  6 29  1  0
  7 24  4  0
  7 26  4  0
  8 28  1  0
  9 13  2  0
 10 18  1  0
 10 21  4  0
 10 30  4  0
 11 17  2  0
 12 18  1  0
 13 15  1  0
 14 24  1  0
 15 25  1  0
 16 28  2  0
 17 20  1  0
 19 24  4  0
 20 23  1  0
 21 22  4  0
 22 23  4  0
 25 26  4  0
 27 29  2  0
M  END
$$$$

 Created by Python create_sdf_string function

 30 33  0  0  0  0  0  0  0  0999 V2000
    8.3036    9.8571   18.4133 C   0  0  0  0  0  0  0  0  0  0  0  0
    8.3694    7.6612   22.6703 C   0  0  0  0  0  0  0  0  0  0  0  0
    8.4143    6.6863   16.2273 C   0  0  0  0  0  0  0  0  0  0  0  0
   10.7581    6.5674   21.7636 C   0  0  0  0  0  0  0  0  0  0  0  0
    8.4452    8.7960   19.2958 O   0  0  0  0  0  0  0  0  0  0  0  0
    8.7122    6.7842   24.8569 C   0  0  0  0  0  0  0  0  0  0  0  0
   10.3400    6.1726   14.3081 C   0  0  0  0  0  0  0  0  0  0  0  0
    7.4297    7.5873   24.8962 C   0  0  0  0  0  0  0  0  0  0  0  0
    8.1566   10.0536   16.0516 O   0  0  0  0  0  0  0  0  0  0  0  0
   12.4989    6.2074   20.1776 C   0  0  0  0  0  0  0  0  0  0  0  0
    6.9192    9.1053   20.9073 O   0  0  0  0  0  0  0  0  0  0  0  0
   14.3979    6.0729   18.7784 C   0  0  0  0  0  0  0  0  0  0  0  0
    8.6811    9.5354   16.9998 C   0  0  0  0  0  0  0  0  0  0  0  0
    9.2512    4.2713   13.7653 O   0  0  0  0  0  0  0  0  0  0  0  0
    9.6495    8.6317   16.8332 N   0  0  0  0  0  0  0  0  0  0  0  0
    6.2934    8.6988   23.1988 O   0  0  0  0  0  0  0  0  0  0  0  0
    7.9806    8.6543   20.5437 C   0  0  0  0  0  0  0  0  0  0  0  0
   13.7270    5.7144   19.8610 O   0  0  0  0  0  0  0  0  0  0  0  0
    8.3351    5.5235   15.4478 C   0  0  0  0  0  0  0  0  0  0  0  0
    8.7700    7.8434   21.3915 C   0  0  0  0  0  0  0  0  0  0  0  0
   11.7856    6.8851   19.2401 C   0  0  0  0  0  0  0  0  0  0  0  0
   10.5281    7.4276   19.5649 C   0  0  0  0  0  0  0  0  0  0  0  0
   10.0256    7.2907   20.8484 C   0  0  0  0  0  0  0  0  0  0  0  0
    9.3113    5.3049   14.4911 C   0  0  0  0  0  0  0  0  0  0  0  0
    9.4607    7.5646   16.0139 C   0  0  0  0  0  0  0  0  0  0  0  0
   10.4192    7.3157   15.0955 C   0  0  0  0  0  0  0  0  0  0  0  0
   10.2489    6.4227   23.0218 N   0  0  0  0  0  0  0  0  0  0  0  0
    7.2472    8.0746   23.5050 C   0  0  0  0  0  0  0  0  0  0  0  0
    9.2051    6.9101   23.4604 C   0  0  0  0  0  0  0  0  0  0  0  0
   11.9646    6.0299   21.4251 C   0  0  0  0  0  0  0  0  0  0  0  0
  1  5  1  0
  1 13  1  0
  2 20  2  0
  2 28  1  0
  2 29  1  0
  3 19  4  0
  3 25  4  0
  4 23  4  0
  4 27  1  0
  4 30  4  0
  5 17  1  0
  6  8  1  0
  6 29  1  0
  7 24  4  0
  7 26  4  0
  8 28  1  0
  9 13  2  0
 10 18  1  0
 10 21  4  0
 10 30  4  0
 11 17  2  0
 12 18  1  0
 13 15  1  0
 14 24  1  0
 15 25  1  0
 16 28  2  0
 17 20  1  0
 19 24  4  0
 20 23  1  0
 21 22  4  0
 22 23  4  0
 25 26  4  0
 27 29  2  0
M  END
$$$$

 Created by Python create_sdf_string function

 30 33  0  0  0  0  0  0  0  0999 V2000
    8.3036    9.8571   18.4133 C   0  0  0  0  0  0  0  0  0  0  0  0
    8.3694    7.6612   22.6703 C   0  0  0  0  0  0  0  0  0  0  0  0
    8.4143    6.6863   16.2273 C   0  0  0  0  0  0  0  0  0  0  0  0
   10.7581    6.5674   21.7636 C   0  0  0  0  0  0  0  0  0  0  0  0
    8.4452    8.7960   19.2958 O   0  0  0  0  0  0  0  0  0  0  0  0
    8.7122    6.7842   24.8569 C   0  0  0  0  0  0  0  0  0  0  0  0
   10.3400    6.1726   14.3081 C   0  0  0  0  0  0  0  0  0  0  0  0
    7.4297    7.5873   24.8962 C   0  0  0  0  0  0  0  0  0  0  0  0
    8.1566   10.0536   16.0516 O   0  0  0  0  0  0  0  0  0  0  0  0
   12.4989    6.2074   20.1776 C   0  0  0  0  0  0  0  0  0  0  0  0
    6.9192    9.1053   20.9073 O   0  0  0  0  0  0  0  0  0  0  0  0
   14.3979    6.0729   18.7784 C   0  0  0  0  0  0  0  0  0  0  0  0
    8.6811    9.5354   16.9998 C   0  0  0  0  0  0  0  0  0  0  0  0
    9.2512    4.2713   13.7653 O   0  0  0  0  0  0  0  0  0  0  0  0
    9.6495    8.6317   16.8332 N   0  0  0  0  0  0  0  0  0  0  0  0
    6.2934    8.6988   23.1988 O   0  0  0  0  0  0  0  0  0  0  0  0
    7.9806    8.6543   20.5437 C   0  0  0  0  0  0  0  0  0  0  0  0
   13.7270    5.7144   19.8610 O   0  0  0  0  0  0  0  0  0  0  0  0
    8.3351    5.5235   15.4478 C   0  0  0  0  0  0  0  0  0  0  0  0
    8.7700    7.8434   21.3915 C   0  0  0  0  0  0  0  0  0  0  0  0
   11.7856    6.8851   19.2401 C   0  0  0  0  0  0  0  0  0  0  0  0
   10.5281    7.4276   19.5649 C   0  0  0  0  0  0  0  0  0  0  0  0
   10.0256    7.2907   20.8484 C   0  0  0  0  0  0  0  0  0  0  0  0
    9.3113    5.3049   14.4911 C   0  0  0  0  0  0  0  0  0  0  0  0
    9.4607    7.5646   16.0139 C   0  0  0  0  0  0  0  0  0  0  0  0
   10.4192    7.3157   15.0955 C   0  0  0  0  0  0  0  0  0  0  0  0
   10.2489    6.4227   23.0218 N   0  0  0  0  0  0  0  0  0  0  0  0
    7.2472    8.0746   23.5050 C   0  0  0  0  0  0  0  0  0  0  0  0
    9.2051    6.9101   23.4604 C   0  0  0  0  0  0  0  0  0  0  0  0
   11.9646    6.0299   21.4251 C   0  0  0  0  0  0  0  0  0  0  0  0
  1  5  1  0
  1 13  1  0
  2 20  2  0
  2 28  1  0
  2 29  1  0
  3 19  4  0
  3 25  4  0
  4 23  4  0
  4 27  1  0
  4 30  4  0
  5 17  1  0
  6  8  1  0
  6 29  1  0
  7 24  4  0
  7 26  4  0
  8 28  1  0
  9 13  2  0
 10 18  1  0
 10 21  4  0
 10 30  4  0
 11 17  2  0
 12 18  1  0
 13 15  1  0
 14 24  1  0
 15 25  1  0
 16 28  2  0
 17 20  1  0
 19 24  4  0
 20 23  1  0
 21 22  4  0
 22 23  4  0
 25 26  4  0
 27 29  2  0
M  END
$$$$

 Created by Python create_sdf_string function

 30 33  0  0  0  0  0  0  0  0999 V2000
    8.3036    9.8571   18.4133 C   0  0  0  0  0  0  0  0  0  0  0  0
    8.3694    7.6612   22.6703 C   0  0  0  0  0  0  0  0  0  0  0  0
    8.4143    6.6863   16.2273 C   0  0  0  0  0  0  0  0  0  0  0  0
   10.7581    6.5674   21.7636 C   0  0  0  0  0  0  0  0  0  0  0  0
    8.4452    8.7960   19.2958 O   0  0  0  0  0  0  0  0  0  0  0  0
    8.7122    6.7842   24.8569 C   0  0  0  0  0  0  0  0  0  0  0  0
   10.3400    6.1726   14.3081 C   0  0  0  0  0  0  0  0  0  0  0  0
    7.4297    7.5873   24.8962 C   0  0  0  0  0  0  0  0  0  0  0  0
    8.1566   10.0536   16.0516 O   0  0  0  0  0  0  0  0  0  0  0  0
   12.4989    6.2074   20.1776 C   0  0  0  0  0  0  0  0  0  0  0  0
    6.9192    9.1053   20.9073 O   0  0  0  0  0  0  0  0  0  0  0  0
   14.3979    6.0729   18.7784 C   0  0  0  0  0  0  0  0  0  0  0  0
    8.6811    9.5354   16.9998 C   0  0  0  0  0  0  0  0  0  0  0  0
    9.2512    4.2713   13.7653 O   0  0  0  0  0  0  0  0  0  0  0  0
    9.6495    8.6317   16.8332 N   0  0  0  0  0  0  0  0  0  0  0  0
    6.2934    8.6988   23.1988 O   0  0  0  0  0  0  0  0  0  0  0  0
    7.9806    8.6543   20.5437 C   0  0  0  0  0  0  0  0  0  0  0  0
   13.7270    5.7144   19.8610 O   0  0  0  0  0  0  0  0  0  0  0  0
    8.3351    5.5235   15.4478 C   0  0  0  0  0  0  0  0  0  0  0  0
    8.7700    7.8434   21.3915 C   0  0  0  0  0  0  0  0  0  0  0  0
   11.7856    6.8851   19.2401 C   0  0  0  0  0  0  0  0  0  0  0  0
   10.5281    7.4276   19.5649 C   0  0  0  0  0  0  0  0  0  0  0  0
   10.0256    7.2907   20.8484 C   0  0  0  0  0  0  0  0  0  0  0  0
    9.3113    5.3049   14.4911 C   0  0  0  0  0  0  0  0  0  0  0  0
    9.4607    7.5646   16.0139 C   0  0  0  0  0  0  0  0  0  0  0  0
   10.4192    7.3157   15.0955 C   0  0  0  0  0  0  0  0  0  0  0  0
   10.2489    6.4227   23.0218 N   0  0  0  0  0  0  0  0  0  0  0  0
    7.2472    8.0746   23.5050 C   0  0  0  0  0  0  0  0  0  0  0  0
    9.2051    6.9101   23.4604 C   0  0  0  0  0  0  0  0  0  0  0  0
   11.9646    6.0299   21.4251 C   0  0  0  0  0  0  0  0  0  0  0  0
  1  5  1  0
  1 13  1  0
  2 20  2  0
  2 28  1  0
  2 29  1  0
  3 19  4  0
  3 25  4  0
  4 23  4  0
  4 27  1  0
  4 30  4  0
  5 17  1  0
  6  8  1  0
  6 29  1  0
  7 24  4  0
  7 26  4  0
  8 28  1  0
  9 13  2  0
 10 18  1  0
 10 21  4  0
 10 30  4  0
 11 17  2  0
 12 18  1  0
 13 15  1  0
 14 24  1  0
 15 25  1  0
 16 28  2  0
 17 20  1  0
 19 24  4  0
 20 23  1  0
 21 22  4  0
 22 23  4  0
 25 26  4  0
 27 29  2  0
M  END
$$$$

 Created by Python create_sdf_string function

 30 33  0  0  0  0  0  0  0  0999 V2000
    8.3036    9.8571   18.4133 C   0  0  0  0  0  0  0  0  0  0  0  0
    8.3694    7.6612   22.6703 C   0  0  0  0  0  0  0  0  0  0  0  0
    8.4143    6.6863   16.2273 C   0  0  0  0  0  0  0  0  0  0  0  0
   10.7581    6.5674   21.7636 C   0  0  0  0  0  0  0  0  0  0  0  0
    8.4452    8.7960   19.2958 O   0  0  0  0  0  0  0  0  0  0  0  0
    8.7122    6.7842   24.8569 C   0  0  0  0  0  0  0  0  0  0  0  0
   10.3400    6.1726   14.3081 C   0  0  0  0  0  0  0  0  0  0  0  0
    7.4297    7.5873   24.8962 C   0  0  0  0  0  0  0  0  0  0  0  0
    8.1566   10.0536   16.0516 O   0  0  0  0  0  0  0  0  0  0  0  0
   12.4989    6.2074   20.1776 C   0  0  0  0  0  0  0  0  0  0  0  0
    6.9192    9.1053   20.9073 O   0  0  0  0  0  0  0  0  0  0  0  0
   14.3979    6.0729   18.7784 C   0  0  0  0  0  0  0  0  0  0  0  0
    8.6811    9.5354   16.9998 C   0  0  0  0  0  0  0  0  0  0  0  0
    9.2512    4.2713   13.7653 O   0  0  0  0  0  0  0  0  0  0  0  0
    9.6495    8.6317   16.8332 N   0  0  0  0  0  0  0  0  0  0  0  0
    6.2934    8.6988   23.1988 O   0  0  0  0  0  0  0  0  0  0  0  0
    7.9806    8.6543   20.5437 C   0  0  0  0  0  0  0  0  0  0  0  0
   13.7270    5.7144   19.8610 O   0  0  0  0  0  0  0  0  0  0  0  0
    8.3351    5.5235   15.4478 C   0  0  0  0  0  0  0  0  0  0  0  0
    8.7700    7.8434   21.3915 C   0  0  0  0  0  0  0  0  0  0  0  0
   11.7856    6.8851   19.2401 C   0  0  0  0  0  0  0  0  0  0  0  0
   10.5281    7.4276   19.5649 C   0  0  0  0  0  0  0  0  0  0  0  0
   10.0256    7.2907   20.8484 C   0  0  0  0  0  0  0  0  0  0  0  0
    9.3113    5.3049   14.4911 C   0  0  0  0  0  0  0  0  0  0  0  0
    9.4607    7.5646   16.0139 C   0  0  0  0  0  0  0  0  0  0  0  0
   10.4192    7.3157   15.0955 C   0  0  0  0  0  0  0  0  0  0  0  0
   10.2489    6.4227   23.0218 N   0  0  0  0  0  0  0  0  0  0  0  0
    7.2472    8.0746   23.5050 C   0  0  0  0  0  0  0  0  0  0  0  0
    9.2051    6.9101   23.4604 C   0  0  0  0  0  0  0  0  0  0  0  0
   11.9646    6.0299   21.4251 C   0  0  0  0  0  0  0  0  0  0  0  0
  1  5  1  0
  1 13  1  0
  2 20  2  0
  2 28  1  0
  2 29  1  0
  3 19  4  0
  3 25  4  0
  4 23  4  0
  4 27  1  0
  4 30  4  0
  5 17  1  0
  6  8  1  0
  6 29  1  0
  7 24  4  0
  7 26  4  0
  8 28  1  0
  9 13  2  0
 10 18  1  0
 10 21  4  0
 10 30  4  0
 11 17  2  0
 12 18  1  0
 13 15  1  0
 14 24  1  0
 15 25  1  0
 16 28  2  0
 17 20  1  0
 19 24  4  0
 20 23  1  0
 21 22  4  0
 22 23  4  0
 25 26  4  0
 27 29  2  0
M  END
$$$$

 Created by Python create_sdf_string function

 30 33  0  0  0  0  0  0  0  0999 V2000
    8.3036    9.8571   18.4133 C   0  0  0  0  0  0  0  0  0  0  0  0
    8.3694    7.6612   22.6703 C   0  0  0  0  0  0  0  0  0  0  0  0
    8.4143    6.6863   16.2273 C   0  0  0  0  0  0  0  0  0  0  0  0
   10.7581    6.5674   21.7636 C   0  0  0  0  0  0  0  0  0  0  0  0
    8.4452    8.7960   19.2958 O   0  0  0  0  0  0  0  0  0  0  0  0
    8.7122    6.7842   24.8569 C   0  0  0  0  0  0  0  0  0  0  0  0
   10.3400    6.1726   14.3081 C   0  0  0  0  0  0  0  0  0  0  0  0
    7.4297    7.5873   24.8962 C   0  0  0  0  0  0  0  0  0  0  0  0
    8.1566   10.0536   16.0516 O   0  0  0  0  0  0  0  0  0  0  0  0
   12.4989    6.2074   20.1776 C   0  0  0  0  0  0  0  0  0  0  0  0
    6.9192    9.1053   20.9073 O   0  0  0  0  0  0  0  0  0  0  0  0
   14.3979    6.0729   18.7784 C   0  0  0  0  0  0  0  0  0  0  0  0
    8.6811    9.5354   16.9998 C   0  0  0  0  0  0  0  0  0  0  0  0
    9.2512    4.2713   13.7653 O   0  0  0  0  0  0  0  0  0  0  0  0
    9.6495    8.6317   16.8332 N   0  0  0  0  0  0  0  0  0  0  0  0
    6.2934    8.6988   23.1988 O   0  0  0  0  0  0  0  0  0  0  0  0
    7.9806    8.6543   20.5437 C   0  0  0  0  0  0  0  0  0  0  0  0
   13.7270    5.7144   19.8610 O   0  0  0  0  0  0  0  0  0  0  0  0
    8.3351    5.5235   15.4478 C   0  0  0  0  0  0  0  0  0  0  0  0
    8.7700    7.8434   21.3915 C   0  0  0  0  0  0  0  0  0  0  0  0
   11.7856    6.8851   19.2401 C   0  0  0  0  0  0  0  0  0  0  0  0
   10.5281    7.4276   19.5649 C   0  0  0  0  0  0  0  0  0  0  0  0
   10.0256    7.2907   20.8484 C   0  0  0  0  0  0  0  0  0  0  0  0
    9.3113    5.3049   14.4911 C   0  0  0  0  0  0  0  0  0  0  0  0
    9.4607    7.5646   16.0139 C   0  0  0  0  0  0  0  0  0  0  0  0
   10.4192    7.3157   15.0955 C   0  0  0  0  0  0  0  0  0  0  0  0
   10.2489    6.4227   23.0218 N   0  0  0  0  0  0  0  0  0  0  0  0
    7.2472    8.0746   23.5050 C   0  0  0  0  0  0  0  0  0  0  0  0
    9.2051    6.9101   23.4604 C   0  0  0  0  0  0  0  0  0  0  0  0
   11.9646    6.0299   21.4251 C   0  0  0  0  0  0  0  0  0  0  0  0
  1  5  1  0
  1 13  1  0
  2 20  2  0
  2 28  1  0
  2 29  1  0
  3 19  4  0
  3 25  4  0
  4 23  4  0
  4 27  1  0
  4 30  4  0
  5 17  1  0
  6  8  1  0
  6 29  1  0
  7 24  4  0
  7 26  4  0
  8 28  1  0
  9 13  2  0
 10 18  1  0
 10 21  4  0
 10 30  4  0
 11 17  2  0
 12 18  1  0
 13 15  1  0
 14 24  1  0
 15 25  1  0
 16 28  2  0
 17 20  1  0
 19 24  4  0
 20 23  1  0
 21 22  4  0
 22 23  4  0
 25 26  4  0
 27 29  2  0
M  END
$$$$

 Created by Python create_sdf_string function

 30 33  0  0  0  0  0  0  0  0999 V2000
    8.3036    9.8571   18.4133 C   0  0  0  0  0  0  0  0  0  0  0  0
    8.3694    7.6612   22.6703 C   0  0  0  0  0  0  0  0  0  0  0  0
    8.4143    6.6863   16.2273 C   0  0  0  0  0  0  0  0  0  0  0  0
   10.7581    6.5674   21.7636 C   0  0  0  0  0  0  0  0  0  0  0  0
    8.4452    8.7960   19.2958 O   0  0  0  0  0  0  0  0  0  0  0  0
    8.7122    6.7842   24.8569 C   0  0  0  0  0  0  0  0  0  0  0  0
   10.3400    6.1726   14.3081 C   0  0  0  0  0  0  0  0  0  0  0  0
    7.4297    7.5873   24.8962 C   0  0  0  0  0  0  0  0  0  0  0  0
    8.1566   10.0536   16.0516 O   0  0  0  0  0  0  0  0  0  0  0  0
   12.4989    6.2074   20.1776 C   0  0  0  0  0  0  0  0  0  0  0  0
    6.9192    9.1053   20.9073 O   0  0  0  0  0  0  0  0  0  0  0  0
   14.3979    6.0729   18.7784 C   0  0  0  0  0  0  0  0  0  0  0  0
    8.6811    9.5354   16.9998 C   0  0  0  0  0  0  0  0  0  0  0  0
    9.2512    4.2713   13.7653 O   0  0  0  0  0  0  0  0  0  0  0  0
    9.6495    8.6317   16.8332 N   0  0  0  0  0  0  0  0  0  0  0  0
    6.2934    8.6988   23.1988 O   0  0  0  0  0  0  0  0  0  0  0  0
    7.9806    8.6543   20.5437 C   0  0  0  0  0  0  0  0  0  0  0  0
   13.7270    5.7144   19.8610 O   0  0  0  0  0  0  0  0  0  0  0  0
    8.3351    5.5235   15.4478 C   0  0  0  0  0  0  0  0  0  0  0  0
    8.7700    7.8434   21.3915 C   0  0  0  0  0  0  0  0  0  0  0  0
   11.7856    6.8851   19.2401 C   0  0  0  0  0  0  0  0  0  0  0  0
   10.5281    7.4276   19.5649 C   0  0  0  0  0  0  0  0  0  0  0  0
   10.0256    7.2907   20.8484 C   0  0  0  0  0  0  0  0  0  0  0  0
    9.3113    5.3049   14.4911 C   0  0  0  0  0  0  0  0  0  0  0  0
    9.4607    7.5646   16.0139 C   0  0  0  0  0  0  0  0  0  0  0  0
   10.4192    7.3157   15.0955 C   0  0  0  0  0  0  0  0  0  0  0  0
   10.2489    6.4227   23.0218 N   0  0  0  0  0  0  0  0  0  0  0  0
    7.2472    8.0746   23.5050 C   0  0  0  0  0  0  0  0  0  0  0  0
    9.2051    6.9101   23.4604 C   0  0  0  0  0  0  0  0  0  0  0  0
   11.9646    6.0299   21.4251 C   0  0  0  0  0  0  0  0  0  0  0  0
  1  5  1  0
  1 13  1  0
  2 20  2  0
  2 28  1  0
  2 29  1  0
  3 19  4  0
  3 25  4  0
  4 23  4  0
  4 27  1  0
  4 30  4  0
  5 17  1  0
  6  8  1  0
  6 29  1  0
  7 24  4  0
  7 26  4  0
  8 28  1  0
  9 13  2  0
 10 18  1  0
 10 21  4  0
 10 30  4  0
 11 17  2  0
 12 18  1  0
 13 15  1  0
 14 24  1  0
 15 25  1  0
 16 28  2  0
 17 20  1  0
 19 24  4  0
 20 23  1  0
 21 22  4  0
 22 23  4  0
 25 26  4  0
 27 29  2  0
M  END
$$$$

 Created by Python create_sdf_string function

 30 33  0  0  0  0  0  0  0  0999 V2000
    8.3036    9.8571   18.4133 C   0  0  0  0  0  0  0  0  0  0  0  0
    8.3694    7.6612   22.6703 C   0  0  0  0  0  0  0  0  0  0  0  0
    8.4143    6.6863   16.2273 C   0  0  0  0  0  0  0  0  0  0  0  0
   10.7581    6.5674   21.7636 C   0  0  0  0  0  0  0  0  0  0  0  0
    8.4452    8.7960   19.2958 O   0  0  0  0  0  0  0  0  0  0  0  0
    8.7122    6.7842   24.8569 C   0  0  0  0  0  0  0  0  0  0  0  0
   10.3400    6.1726   14.3081 C   0  0  0  0  0  0  0  0  0  0  0  0
    7.4297    7.5873   24.8962 C   0  0  0  0  0  0  0  0  0  0  0  0
    8.1566   10.0536   16.0516 O   0  0  0  0  0  0  0  0  0  0  0  0
   12.4989    6.2074   20.1776 C   0  0  0  0  0  0  0  0  0  0  0  0
    6.9192    9.1053   20.9073 O   0  0  0  0  0  0  0  0  0  0  0  0
   14.3979    6.0729   18.7784 C   0  0  0  0  0  0  0  0  0  0  0  0
    8.6811    9.5354   16.9998 C   0  0  0  0  0  0  0  0  0  0  0  0
    9.2512    4.2713   13.7653 O   0  0  0  0  0  0  0  0  0  0  0  0
    9.6495    8.6317   16.8332 N   0  0  0  0  0  0  0  0  0  0  0  0
    6.2934    8.6988   23.1988 O   0  0  0  0  0  0  0  0  0  0  0  0
    7.9806    8.6543   20.5437 C   0  0  0  0  0  0  0  0  0  0  0  0
   13.7270    5.7144   19.8610 O   0  0  0  0  0  0  0  0  0  0  0  0
    8.3351    5.5235   15.4478 C   0  0  0  0  0  0  0  0  0  0  0  0
    8.7700    7.8434   21.3915 C   0  0  0  0  0  0  0  0  0  0  0  0
   11.7856    6.8851   19.2401 C   0  0  0  0  0  0  0  0  0  0  0  0
   10.5281    7.4276   19.5649 C   0  0  0  0  0  0  0  0  0  0  0  0
   10.0256    7.2907   20.8484 C   0  0  0  0  0  0  0  0  0  0  0  0
    9.3113    5.3049   14.4911 C   0  0  0  0  0  0  0  0  0  0  0  0
    9.4607    7.5646   16.0139 C   0  0  0  0  0  0  0  0  0  0  0  0
   10.4192    7.3157   15.0955 C   0  0  0  0  0  0  0  0  0  0  0  0
   10.2489    6.4227   23.0218 N   0  0  0  0  0  0  0  0  0  0  0  0
    7.2472    8.0746   23.5050 C   0  0  0  0  0  0  0  0  0  0  0  0
    9.2051    6.9101   23.4604 C   0  0  0  0  0  0  0  0  0  0  0  0
   11.9646    6.0299   21.4251 C   0  0  0  0  0  0  0  0  0  0  0  0
  1  5  1  0
  1 13  1  0
  2 20  2  0
  2 28  1  0
  2 29  1  0
  3 19  4  0
  3 25  4  0
  4 23  4  0
  4 27  1  0
  4 30  4  0
  5 17  1  0
  6  8  1  0
  6 29  1  0
  7 24  4  0
  7 26  4  0
  8 28  1  0
  9 13  2  0
 10 18  1  0
 10 21  4  0
 10 30  4  0
 11 17  2  0
 12 18  1  0
 13 15  1  0
 14 24  1  0
 15 25  1  0
 16 28  2  0
 17 20  1  0
 19 24  4  0
 20 23  1  0
 21 22  4  0
 22 23  4  0
 25 26  4  0
 27 29  2  0
M  END
$$$$

 Created by Python create_sdf_string function

 30 33  0  0  0  0  0  0  0  0999 V2000
    8.3036    9.8571   18.4133 C   0  0  0  0  0  0  0  0  0  0  0  0
    8.3694    7.6612   22.6703 C   0  0  0  0  0  0  0  0  0  0  0  0
    8.4143    6.6863   16.2273 C   0  0  0  0  0  0  0  0  0  0  0  0
   10.7581    6.5674   21.7636 C   0  0  0  0  0  0  0  0  0  0  0  0
    8.4452    8.7960   19.2958 O   0  0  0  0  0  0  0  0  0  0  0  0
    8.7122    6.7842   24.8569 C   0  0  0  0  0  0  0  0  0  0  0  0
   10.3400    6.1726   14.3081 C   0  0  0  0  0  0  0  0  0  0  0  0
    7.4297    7.5873   24.8962 C   0  0  0  0  0  0  0  0  0  0  0  0
    8.1566   10.0536   16.0516 O   0  0  0  0  0  0  0  0  0  0  0  0
   12.4989    6.2074   20.1776 C   0  0  0  0  0  0  0  0  0  0  0  0
    6.9192    9.1053   20.9073 O   0  0  0  0  0  0  0  0  0  0  0  0
   14.3979    6.0729   18.7784 C   0  0  0  0  0  0  0  0  0  0  0  0
    8.6811    9.5354   16.9998 C   0  0  0  0  0  0  0  0  0  0  0  0
    9.2512    4.2713   13.7653 O   0  0  0  0  0  0  0  0  0  0  0  0
    9.6495    8.6317   16.8332 N   0  0  0  0  0  0  0  0  0  0  0  0
    6.2934    8.6988   23.1988 O   0  0  0  0  0  0  0  0  0  0  0  0
    7.9806    8.6543   20.5437 C   0  0  0  0  0  0  0  0  0  0  0  0
   13.7270    5.7144   19.8610 O   0  0  0  0  0  0  0  0  0  0  0  0
    8.3351    5.5235   15.4478 C   0  0  0  0  0  0  0  0  0  0  0  0
    8.7700    7.8434   21.3915 C   0  0  0  0  0  0  0  0  0  0  0  0
   11.7856    6.8851   19.2401 C   0  0  0  0  0  0  0  0  0  0  0  0
   10.5281    7.4276   19.5649 C   0  0  0  0  0  0  0  0  0  0  0  0
   10.0256    7.2907   20.8484 C   0  0  0  0  0  0  0  0  0  0  0  0
    9.3113    5.3049   14.4911 C   0  0  0  0  0  0  0  0  0  0  0  0
    9.4607    7.5646   16.0139 C   0  0  0  0  0  0  0  0  0  0  0  0
   10.4192    7.3157   15.0955 C   0  0  0  0  0  0  0  0  0  0  0  0
   10.2489    6.4227   23.0218 N   0  0  0  0  0  0  0  0  0  0  0  0
    7.2472    8.0746   23.5050 C   0  0  0  0  0  0  0  0  0  0  0  0
    9.2051    6.9101   23.4604 C   0  0  0  0  0  0  0  0  0  0  0  0
   11.9646    6.0299   21.4251 C   0  0  0  0  0  0  0  0  0  0  0  0
  1  5  1  0
  1 13  1  0
  2 20  2  0
  2 28  1  0
  2 29  1  0
  3 19  4  0
  3 25  4  0
  4 23  4  0
  4 27  1  0
  4 30  4  0
  5 17  1  0
  6  8  1  0
  6 29  1  0
  7 24  4  0
  7 26  4  0
  8 28  1  0
  9 13  2  0
 10 18  1  0
 10 21  4  0
 10 30  4  0
 11 17  2  0
 12 18  1  0
 13 15  1  0
 14 24  1  0
 15 25  1  0
 16 28  2  0
 17 20  1  0
 19 24  4  0
 20 23  1  0
 21 22  4  0
 22 23  4  0
 25 26  4  0
 27 29  2  0
M  END
$$$$

 Created by Python create_sdf_string function

 30 33  0  0  0  0  0  0  0  0999 V2000
    8.3036    9.8571   18.4133 C   0  0  0  0  0  0  0  0  0  0  0  0
    8.3694    7.6612   22.6703 C   0  0  0  0  0  0  0  0  0  0  0  0
    8.4143    6.6863   16.2273 C   0  0  0  0  0  0  0  0  0  0  0  0
   10.7581    6.5674   21.7636 C   0  0  0  0  0  0  0  0  0  0  0  0
    8.4452    8.7960   19.2958 O   0  0  0  0  0  0  0  0  0  0  0  0
    8.7122    6.7842   24.8569 C   0  0  0  0  0  0  0  0  0  0  0  0
   10.3400    6.1726   14.3081 C   0  0  0  0  0  0  0  0  0  0  0  0
    7.4297    7.5873   24.8962 C   0  0  0  0  0  0  0  0  0  0  0  0
    8.1566   10.0536   16.0516 O   0  0  0  0  0  0  0  0  0  0  0  0
   12.4989    6.2074   20.1776 C   0  0  0  0  0  0  0  0  0  0  0  0
    6.9192    9.1053   20.9073 O   0  0  0  0  0  0  0  0  0  0  0  0
   14.3979    6.0729   18.7784 C   0  0  0  0  0  0  0  0  0  0  0  0
    8.6811    9.5354   16.9998 C   0  0  0  0  0  0  0  0  0  0  0  0
    9.2512    4.2713   13.7653 O   0  0  0  0  0  0  0  0  0  0  0  0
    9.6495    8.6317   16.8332 N   0  0  0  0  0  0  0  0  0  0  0  0
    6.2934    8.6988   23.1988 O   0  0  0  0  0  0  0  0  0  0  0  0
    7.9806    8.6543   20.5437 C   0  0  0  0  0  0  0  0  0  0  0  0
   13.7270    5.7144   19.8610 O   0  0  0  0  0  0  0  0  0  0  0  0
    8.3351    5.5235   15.4478 C   0  0  0  0  0  0  0  0  0  0  0  0
    8.7700    7.8434   21.3915 C   0  0  0  0  0  0  0  0  0  0  0  0
   11.7856    6.8851   19.2401 C   0  0  0  0  0  0  0  0  0  0  0  0
   10.5281    7.4276   19.5649 C   0  0  0  0  0  0  0  0  0  0  0  0
   10.0256    7.2907   20.8484 C   0  0  0  0  0  0  0  0  0  0  0  0
    9.3113    5.3049   14.4911 C   0  0  0  0  0  0  0  0  0  0  0  0
    9.4607    7.5646   16.0139 C   0  0  0  0  0  0  0  0  0  0  0  0
   10.4192    7.3157   15.0955 C   0  0  0  0  0  0  0  0  0  0  0  0
   10.2489    6.4227   23.0218 N   0  0  0  0  0  0  0  0  0  0  0  0
    7.2472    8.0746   23.5050 C   0  0  0  0  0  0  0  0  0  0  0  0
    9.2051    6.9101   23.4604 C   0  0  0  0  0  0  0  0  0  0  0  0
   11.9646    6.0299   21.4251 C   0  0  0  0  0  0  0  0  0  0  0  0
  1  5  1  0
  1 13  1  0
  2 20  2  0
  2 28  1  0
  2 29  1  0
  3 19  4  0
  3 25  4  0
  4 23  4  0
  4 27  1  0
  4 30  4  0
  5 17  1  0
  6  8  1  0
  6 29  1  0
  7 24  4  0
  7 26  4  0
  8 28  1  0
  9 13  2  0
 10 18  1  0
 10 21  4  0
 10 30  4  0
 11 17  2  0
 12 18  1  0
 13 15  1  0
 14 24  1  0
 15 25  1  0
 16 28  2  0
 17 20  1  0
 19 24  4  0
 20 23  1  0
 21 22  4  0
 22 23  4  0
 25 26  4  0
 27 29  2  0
M  END
$$$$

 Created by Python create_sdf_string function

 30 33  0  0  0  0  0  0  0  0999 V2000
    8.3036    9.8571   18.4133 C   0  0  0  0  0  0  0  0  0  0  0  0
    8.3694    7.6612   22.6703 C   0  0  0  0  0  0  0  0  0  0  0  0
    8.4143    6.6863   16.2273 C   0  0  0  0  0  0  0  0  0  0  0  0
   10.7581    6.5674   21.7636 C   0  0  0  0  0  0  0  0  0  0  0  0
    8.4452    8.7960   19.2958 O   0  0  0  0  0  0  0  0  0  0  0  0
    8.7122    6.7842   24.8569 C   0  0  0  0  0  0  0  0  0  0  0  0
   10.3400    6.1726   14.3081 C   0  0  0  0  0  0  0  0  0  0  0  0
    7.4297    7.5873   24.8962 C   0  0  0  0  0  0  0  0  0  0  0  0
    8.1566   10.0536   16.0516 O   0  0  0  0  0  0  0  0  0  0  0  0
   12.4989    6.2074   20.1776 C   0  0  0  0  0  0  0  0  0  0  0  0
    6.9192    9.1053   20.9073 O   0  0  0  0  0  0  0  0  0  0  0  0
   14.3979    6.0729   18.7784 C   0  0  0  0  0  0  0  0  0  0  0  0
    8.6811    9.5354   16.9998 C   0  0  0  0  0  0  0  0  0  0  0  0
    9.2512    4.2713   13.7653 O   0  0  0  0  0  0  0  0  0  0  0  0
    9.6495    8.6317   16.8332 N   0  0  0  0  0  0  0  0  0  0  0  0
    6.2934    8.6988   23.1988 O   0  0  0  0  0  0  0  0  0  0  0  0
    7.9806    8.6543   20.5437 C   0  0  0  0  0  0  0  0  0  0  0  0
   13.7270    5.7144   19.8610 O   0  0  0  0  0  0  0  0  0  0  0  0
    8.3351    5.5235   15.4478 C   0  0  0  0  0  0  0  0  0  0  0  0
    8.7700    7.8434   21.3915 C   0  0  0  0  0  0  0  0  0  0  0  0
   11.7856    6.8851   19.2401 C   0  0  0  0  0  0  0  0  0  0  0  0
   10.5281    7.4276   19.5649 C   0  0  0  0  0  0  0  0  0  0  0  0
   10.0256    7.2907   20.8484 C   0  0  0  0  0  0  0  0  0  0  0  0
    9.3113    5.3049   14.4911 C   0  0  0  0  0  0  0  0  0  0  0  0
    9.4607    7.5646   16.0139 C   0  0  0  0  0  0  0  0  0  0  0  0
   10.4192    7.3157   15.0955 C   0  0  0  0  0  0  0  0  0  0  0  0
   10.2489    6.4227   23.0218 N   0  0  0  0  0  0  0  0  0  0  0  0
    7.2472    8.0746   23.5050 C   0  0  0  0  0  0  0  0  0  0  0  0
    9.2051    6.9101   23.4604 C   0  0  0  0  0  0  0  0  0  0  0  0
   11.9646    6.0299   21.4251 C   0  0  0  0  0  0  0  0  0  0  0  0
  1  5  1  0
  1 13  1  0
  2 20  2  0
  2 28  1  0
  2 29  1  0
  3 19  4  0
  3 25  4  0
  4 23  4  0
  4 27  1  0
  4 30  4  0
  5 17  1  0
  6  8  1  0
  6 29  1  0
  7 24  4  0
  7 26  4  0
  8 28  1  0
  9 13  2  0
 10 18  1  0
 10 21  4  0
 10 30  4  0
 11 17  2  0
 12 18  1  0
 13 15  1  0
 14 24  1  0
 15 25  1  0
 16 28  2  0
 17 20  1  0
 19 24  4  0
 20 23  1  0
 21 22  4  0
 22 23  4  0
 25 26  4  0
 27 29  2  0
M  END
$$$$

 Created by Python create_sdf_string function

 30 33  0  0  0  0  0  0  0  0999 V2000
    8.3036    9.8571   18.4133 C   0  0  0  0  0  0  0  0  0  0  0  0
    8.3694    7.6612   22.6703 C   0  0  0  0  0  0  0  0  0  0  0  0
    8.4143    6.6863   16.2273 C   0  0  0  0  0  0  0  0  0  0  0  0
   10.7581    6.5674   21.7636 C   0  0  0  0  0  0  0  0  0  0  0  0
    8.4452    8.7960   19.2958 O   0  0  0  0  0  0  0  0  0  0  0  0
    8.7122    6.7842   24.8569 C   0  0  0  0  0  0  0  0  0  0  0  0
   10.3400    6.1726   14.3081 C   0  0  0  0  0  0  0  0  0  0  0  0
    7.4297    7.5873   24.8962 C   0  0  0  0  0  0  0  0  0  0  0  0
    8.1566   10.0536   16.0516 O   0  0  0  0  0  0  0  0  0  0  0  0
   12.4989    6.2074   20.1776 C   0  0  0  0  0  0  0  0  0  0  0  0
    6.9192    9.1053   20.9073 O   0  0  0  0  0  0  0  0  0  0  0  0
   14.3979    6.0729   18.7784 C   0  0  0  0  0  0  0  0  0  0  0  0
    8.6811    9.5354   16.9998 C   0  0  0  0  0  0  0  0  0  0  0  0
    9.2512    4.2713   13.7653 O   0  0  0  0  0  0  0  0  0  0  0  0
    9.6495    8.6317   16.8332 N   0  0  0  0  0  0  0  0  0  0  0  0
    6.2934    8.6988   23.1988 O   0  0  0  0  0  0  0  0  0  0  0  0
    7.9806    8.6543   20.5437 C   0  0  0  0  0  0  0  0  0  0  0  0
   13.7270    5.7144   19.8610 O   0  0  0  0  0  0  0  0  0  0  0  0
    8.3351    5.5235   15.4478 C   0  0  0  0  0  0  0  0  0  0  0  0
    8.7700    7.8434   21.3915 C   0  0  0  0  0  0  0  0  0  0  0  0
   11.7856    6.8851   19.2401 C   0  0  0  0  0  0  0  0  0  0  0  0
   10.5281    7.4276   19.5649 C   0  0  0  0  0  0  0  0  0  0  0  0
   10.0256    7.2907   20.8484 C   0  0  0  0  0  0  0  0  0  0  0  0
    9.3113    5.3049   14.4911 C   0  0  0  0  0  0  0  0  0  0  0  0
    9.4607    7.5646   16.0139 C   0  0  0  0  0  0  0  0  0  0  0  0
   10.4192    7.3157   15.0955 C   0  0  0  0  0  0  0  0  0  0  0  0
   10.2489    6.4227   23.0218 N   0  0  0  0  0  0  0  0  0  0  0  0
    7.2472    8.0746   23.5050 C   0  0  0  0  0  0  0  0  0  0  0  0
    9.2051    6.9101   23.4604 C   0  0  0  0  0  0  0  0  0  0  0  0
   11.9646    6.0299   21.4251 C   0  0  0  0  0  0  0  0  0  0  0  0
  1  5  1  0
  1 13  1  0
  2 20  2  0
  2 28  1  0
  2 29  1  0
  3 19  4  0
  3 25  4  0
  4 23  4  0
  4 27  1  0
  4 30  4  0
  5 17  1  0
  6  8  1  0
  6 29  1  0
  7 24  4  0
  7 26  4  0
  8 28  1  0
  9 13  2  0
 10 18  1  0
 10 21  4  0
 10 30  4  0
 11 17  2  0
 12 18  1  0
 13 15  1  0
 14 24  1  0
 15 25  1  0
 16 28  2  0
 17 20  1  0
 19 24  4  0
 20 23  1  0
 21 22  4  0
 22 23  4  0
 25 26  4  0
 27 29  2  0
M  END
$$$$

 Created by Python create_sdf_string function

 30 33  0  0  0  0  0  0  0  0999 V2000
    8.3036    9.8571   18.4133 C   0  0  0  0  0  0  0  0  0  0  0  0
    8.3694    7.6612   22.6703 C   0  0  0  0  0  0  0  0  0  0  0  0
    8.4143    6.6863   16.2273 C   0  0  0  0  0  0  0  0  0  0  0  0
   10.7581    6.5674   21.7636 C   0  0  0  0  0  0  0  0  0  0  0  0
    8.4452    8.7960   19.2958 O   0  0  0  0  0  0  0  0  0  0  0  0
    8.7122    6.7842   24.8569 C   0  0  0  0  0  0  0  0  0  0  0  0
   10.3400    6.1726   14.3081 C   0  0  0  0  0  0  0  0  0  0  0  0
    7.4297    7.5873   24.8962 C   0  0  0  0  0  0  0  0  0  0  0  0
    8.1566   10.0536   16.0516 O   0  0  0  0  0  0  0  0  0  0  0  0
   12.4989    6.2074   20.1776 C   0  0  0  0  0  0  0  0  0  0  0  0
    6.9192    9.1053   20.9073 O   0  0  0  0  0  0  0  0  0  0  0  0
   14.3979    6.0729   18.7784 C   0  0  0  0  0  0  0  0  0  0  0  0
    8.6811    9.5354   16.9998 C   0  0  0  0  0  0  0  0  0  0  0  0
    9.2512    4.2713   13.7653 O   0  0  0  0  0  0  0  0  0  0  0  0
    9.6495    8.6317   16.8332 N   0  0  0  0  0  0  0  0  0  0  0  0
    6.2934    8.6988   23.1988 O   0  0  0  0  0  0  0  0  0  0  0  0
    7.9806    8.6543   20.5437 C   0  0  0  0  0  0  0  0  0  0  0  0
   13.7270    5.7144   19.8610 O   0  0  0  0  0  0  0  0  0  0  0  0
    8.3351    5.5235   15.4478 C   0  0  0  0  0  0  0  0  0  0  0  0
    8.7700    7.8434   21.3915 C   0  0  0  0  0  0  0  0  0  0  0  0
   11.7856    6.8851   19.2401 C   0  0  0  0  0  0  0  0  0  0  0  0
   10.5281    7.4276   19.5649 C   0  0  0  0  0  0  0  0  0  0  0  0
   10.0256    7.2907   20.8484 C   0  0  0  0  0  0  0  0  0  0  0  0
    9.3113    5.3049   14.4911 C   0  0  0  0  0  0  0  0  0  0  0  0
    9.4607    7.5646   16.0139 C   0  0  0  0  0  0  0  0  0  0  0  0
   10.4192    7.3157   15.0955 C   0  0  0  0  0  0  0  0  0  0  0  0
   10.2489    6.4227   23.0218 N   0  0  0  0  0  0  0  0  0  0  0  0
    7.2472    8.0746   23.5050 C   0  0  0  0  0  0  0  0  0  0  0  0
    9.2051    6.9101   23.4604 C   0  0  0  0  0  0  0  0  0  0  0  0
   11.9646    6.0299   21.4251 C   0  0  0  0  0  0  0  0  0  0  0  0
  1  5  1  0
  1 13  1  0
  2 20  2  0
  2 28  1  0
  2 29  1  0
  3 19  4  0
  3 25  4  0
  4 23  4  0
  4 27  1  0
  4 30  4  0
  5 17  1  0
  6  8  1  0
  6 29  1  0
  7 24  4  0
  7 26  4  0
  8 28  1  0
  9 13  2  0
 10 18  1  0
 10 21  4  0
 10 30  4  0
 11 17  2  0
 12 18  1  0
 13 15  1  0
 14 24  1  0
 15 25  1  0
 16 28  2  0
 17 20  1  0
 19 24  4  0
 20 23  1  0
 21 22  4  0
 22 23  4  0
 25 26  4  0
 27 29  2  0
M  END
$$$$

 Created by Python create_sdf_string function

 30 33  0  0  0  0  0  0  0  0999 V2000
    8.3036    9.8571   18.4133 C   0  0  0  0  0  0  0  0  0  0  0  0
    8.3694    7.6612   22.6703 C   0  0  0  0  0  0  0  0  0  0  0  0
    8.4143    6.6863   16.2273 C   0  0  0  0  0  0  0  0  0  0  0  0
   10.7581    6.5674   21.7636 C   0  0  0  0  0  0  0  0  0  0  0  0
    8.4452    8.7960   19.2958 O   0  0  0  0  0  0  0  0  0  0  0  0
    8.7122    6.7842   24.8569 C   0  0  0  0  0  0  0  0  0  0  0  0
   10.3400    6.1726   14.3081 C   0  0  0  0  0  0  0  0  0  0  0  0
    7.4297    7.5873   24.8962 C   0  0  0  0  0  0  0  0  0  0  0  0
    8.1566   10.0536   16.0516 O   0  0  0  0  0  0  0  0  0  0  0  0
   12.4989    6.2074   20.1776 C   0  0  0  0  0  0  0  0  0  0  0  0
    6.9192    9.1053   20.9073 O   0  0  0  0  0  0  0  0  0  0  0  0
   14.3979    6.0729   18.7784 C   0  0  0  0  0  0  0  0  0  0  0  0
    8.6811    9.5354   16.9998 C   0  0  0  0  0  0  0  0  0  0  0  0
    9.2512    4.2713   13.7653 O   0  0  0  0  0  0  0  0  0  0  0  0
    9.6495    8.6317   16.8332 N   0  0  0  0  0  0  0  0  0  0  0  0
    6.2934    8.6988   23.1988 O   0  0  0  0  0  0  0  0  0  0  0  0
    7.9806    8.6543   20.5437 C   0  0  0  0  0  0  0  0  0  0  0  0
   13.7270    5.7144   19.8610 O   0  0  0  0  0  0  0  0  0  0  0  0
    8.3351    5.5235   15.4478 C   0  0  0  0  0  0  0  0  0  0  0  0
    8.7700    7.8434   21.3915 C   0  0  0  0  0  0  0  0  0  0  0  0
   11.7856    6.8851   19.2401 C   0  0  0  0  0  0  0  0  0  0  0  0
   10.5281    7.4276   19.5649 C   0  0  0  0  0  0  0  0  0  0  0  0
   10.0256    7.2907   20.8484 C   0  0  0  0  0  0  0  0  0  0  0  0
    9.3113    5.3049   14.4911 C   0  0  0  0  0  0  0  0  0  0  0  0
    9.4607    7.5646   16.0139 C   0  0  0  0  0  0  0  0  0  0  0  0
   10.4192    7.3157   15.0955 C   0  0  0  0  0  0  0  0  0  0  0  0
   10.2489    6.4227   23.0218 N   0  0  0  0  0  0  0  0  0  0  0  0
    7.2472    8.0746   23.5050 C   0  0  0  0  0  0  0  0  0  0  0  0
    9.2051    6.9101   23.4604 C   0  0  0  0  0  0  0  0  0  0  0  0
   11.9646    6.0299   21.4251 C   0  0  0  0  0  0  0  0  0  0  0  0
  1  5  1  0
  1 13  1  0
  2 20  2  0
  2 28  1  0
  2 29  1  0
  3 19  4  0
  3 25  4  0
  4 23  4  0
  4 27  1  0
  4 30  4  0
  5 17  1  0
  6  8  1  0
  6 29  1  0
  7 24  4  0
  7 26  4  0
  8 28  1  0
  9 13  2  0
 10 18  1  0
 10 21  4  0
 10 30  4  0
 11 17  2  0
 12 18  1  0
 13 15  1  0
 14 24  1  0
 15 25  1  0
 16 28  2  0
 17 20  1  0
 19 24  4  0
 20 23  1  0
 21 22  4  0
 22 23  4  0
 25 26  4  0
 27 29  2  0
M  END
$$$$

 Created by Python create_sdf_string function

 30 33  0  0  0  0  0  0  0  0999 V2000
    8.3036    9.8571   18.4133 C   0  0  0  0  0  0  0  0  0  0  0  0
    8.3694    7.6612   22.6703 C   0  0  0  0  0  0  0  0  0  0  0  0
    8.4143    6.6863   16.2273 C   0  0  0  0  0  0  0  0  0  0  0  0
   10.7581    6.5674   21.7636 C   0  0  0  0  0  0  0  0  0  0  0  0
    8.4452    8.7960   19.2958 O   0  0  0  0  0  0  0  0  0  0  0  0
    8.7122    6.7842   24.8569 C   0  0  0  0  0  0  0  0  0  0  0  0
   10.3400    6.1726   14.3081 C   0  0  0  0  0  0  0  0  0  0  0  0
    7.4297    7.5873   24.8962 C   0  0  0  0  0  0  0  0  0  0  0  0
    8.1566   10.0536   16.0516 O   0  0  0  0  0  0  0  0  0  0  0  0
   12.4989    6.2074   20.1776 C   0  0  0  0  0  0  0  0  0  0  0  0
    6.9192    9.1053   20.9073 O   0  0  0  0  0  0  0  0  0  0  0  0
   14.3979    6.0729   18.7784 C   0  0  0  0  0  0  0  0  0  0  0  0
    8.6811    9.5354   16.9998 C   0  0  0  0  0  0  0  0  0  0  0  0
    9.2512    4.2713   13.7653 O   0  0  0  0  0  0  0  0  0  0  0  0
    9.6495    8.6317   16.8332 N   0  0  0  0  0  0  0  0  0  0  0  0
    6.2934    8.6988   23.1988 O   0  0  0  0  0  0  0  0  0  0  0  0
    7.9806    8.6543   20.5437 C   0  0  0  0  0  0  0  0  0  0  0  0
   13.7270    5.7144   19.8610 O   0  0  0  0  0  0  0  0  0  0  0  0
    8.3351    5.5235   15.4478 C   0  0  0  0  0  0  0  0  0  0  0  0
    8.7700    7.8434   21.3915 C   0  0  0  0  0  0  0  0  0  0  0  0
   11.7856    6.8851   19.2401 C   0  0  0  0  0  0  0  0  0  0  0  0
   10.5281    7.4276   19.5649 C   0  0  0  0  0  0  0  0  0  0  0  0
   10.0256    7.2907   20.8484 C   0  0  0  0  0  0  0  0  0  0  0  0
    9.3113    5.3049   14.4911 C   0  0  0  0  0  0  0  0  0  0  0  0
    9.4607    7.5646   16.0139 C   0  0  0  0  0  0  0  0  0  0  0  0
   10.4192    7.3157   15.0955 C   0  0  0  0  0  0  0  0  0  0  0  0
   10.2489    6.4227   23.0218 N   0  0  0  0  0  0  0  0  0  0  0  0
    7.2472    8.0746   23.5050 C   0  0  0  0  0  0  0  0  0  0  0  0
    9.2051    6.9101   23.4604 C   0  0  0  0  0  0  0  0  0  0  0  0
   11.9646    6.0299   21.4251 C   0  0  0  0  0  0  0  0  0  0  0  0
  1  5  1  0
  1 13  1  0
  2 20  2  0
  2 28  1  0
  2 29  1  0
  3 19  4  0
  3 25  4  0
  4 23  4  0
  4 27  1  0
  4 30  4  0
  5 17  1  0
  6  8  1  0
  6 29  1  0
  7 24  4  0
  7 26  4  0
  8 28  1  0
  9 13  2  0
 10 18  1  0
 10 21  4  0
 10 30  4  0
 11 17  2  0
 12 18  1  0
 13 15  1  0
 14 24  1  0
 15 25  1  0
 16 28  2  0
 17 20  1  0
 19 24  4  0
 20 23  1  0
 21 22  4  0
 22 23  4  0
 25 26  4  0
 27 29  2  0
M  END
$$$$

 Created by Python create_sdf_string function

 30 33  0  0  0  0  0  0  0  0999 V2000
    8.3036    9.8571   18.4133 C   0  0  0  0  0  0  0  0  0  0  0  0
    8.3694    7.6612   22.6703 C   0  0  0  0  0  0  0  0  0  0  0  0
    8.4143    6.6863   16.2273 C   0  0  0  0  0  0  0  0  0  0  0  0
   10.7581    6.5674   21.7636 C   0  0  0  0  0  0  0  0  0  0  0  0
    8.4452    8.7960   19.2958 O   0  0  0  0  0  0  0  0  0  0  0  0
    8.7122    6.7842   24.8569 C   0  0  0  0  0  0  0  0  0  0  0  0
   10.3400    6.1726   14.3081 C   0  0  0  0  0  0  0  0  0  0  0  0
    7.4297    7.5873   24.8962 C   0  0  0  0  0  0  0  0  0  0  0  0
    8.1566   10.0536   16.0516 O   0  0  0  0  0  0  0  0  0  0  0  0
   12.4989    6.2074   20.1776 C   0  0  0  0  0  0  0  0  0  0  0  0
    6.9192    9.1053   20.9073 O   0  0  0  0  0  0  0  0  0  0  0  0
   14.3979    6.0729   18.7784 C   0  0  0  0  0  0  0  0  0  0  0  0
    8.6811    9.5354   16.9998 C   0  0  0  0  0  0  0  0  0  0  0  0
    9.2512    4.2713   13.7653 O   0  0  0  0  0  0  0  0  0  0  0  0
    9.6495    8.6317   16.8332 N   0  0  0  0  0  0  0  0  0  0  0  0
    6.2934    8.6988   23.1988 O   0  0  0  0  0  0  0  0  0  0  0  0
    7.9806    8.6543   20.5437 C   0  0  0  0  0  0  0  0  0  0  0  0
   13.7270    5.7144   19.8610 O   0  0  0  0  0  0  0  0  0  0  0  0
    8.3351    5.5235   15.4478 C   0  0  0  0  0  0  0  0  0  0  0  0
    8.7700    7.8434   21.3915 C   0  0  0  0  0  0  0  0  0  0  0  0
   11.7856    6.8851   19.2401 C   0  0  0  0  0  0  0  0  0  0  0  0
   10.5281    7.4276   19.5649 C   0  0  0  0  0  0  0  0  0  0  0  0
   10.0256    7.2907   20.8484 C   0  0  0  0  0  0  0  0  0  0  0  0
    9.3113    5.3049   14.4911 C   0  0  0  0  0  0  0  0  0  0  0  0
    9.4607    7.5646   16.0139 C   0  0  0  0  0  0  0  0  0  0  0  0
   10.4192    7.3157   15.0955 C   0  0  0  0  0  0  0  0  0  0  0  0
   10.2489    6.4227   23.0218 N   0  0  0  0  0  0  0  0  0  0  0  0
    7.2472    8.0746   23.5050 C   0  0  0  0  0  0  0  0  0  0  0  0
    9.2051    6.9101   23.4604 C   0  0  0  0  0  0  0  0  0  0  0  0
   11.9646    6.0299   21.4251 C   0  0  0  0  0  0  0  0  0  0  0  0
  1  5  1  0
  1 13  1  0
  2 20  2  0
  2 28  1  0
  2 29  1  0
  3 19  4  0
  3 25  4  0
  4 23  4  0
  4 27  1  0
  4 30  4  0
  5 17  1  0
  6  8  1  0
  6 29  1  0
  7 24  4  0
  7 26  4  0
  8 28  1  0
  9 13  2  0
 10 18  1  0
 10 21  4  0
 10 30  4  0
 11 17  2  0
 12 18  1  0
 13 15  1  0
 14 24  1  0
 15 25  1  0
 16 28  2  0
 17 20  1  0
 19 24  4  0
 20 23  1  0
 21 22  4  0
 22 23  4  0
 25 26  4  0
 27 29  2  0
M  END
$$$$

 Created by Python create_sdf_string function

 30 33  0  0  0  0  0  0  0  0999 V2000
    8.3036    9.8571   18.4133 C   0  0  0  0  0  0  0  0  0  0  0  0
    8.3694    7.6612   22.6703 C   0  0  0  0  0  0  0  0  0  0  0  0
    8.4143    6.6863   16.2273 C   0  0  0  0  0  0  0  0  0  0  0  0
   10.7581    6.5674   21.7636 C   0  0  0  0  0  0  0  0  0  0  0  0
    8.4452    8.7960   19.2958 O   0  0  0  0  0  0  0  0  0  0  0  0
    8.7122    6.7842   24.8569 C   0  0  0  0  0  0  0  0  0  0  0  0
   10.3400    6.1726   14.3081 C   0  0  0  0  0  0  0  0  0  0  0  0
    7.4297    7.5873   24.8962 C   0  0  0  0  0  0  0  0  0  0  0  0
    8.1566   10.0536   16.0516 O   0  0  0  0  0  0  0  0  0  0  0  0
   12.4989    6.2074   20.1776 C   0  0  0  0  0  0  0  0  0  0  0  0
    6.9192    9.1053   20.9073 O   0  0  0  0  0  0  0  0  0  0  0  0
   14.3979    6.0729   18.7784 C   0  0  0  0  0  0  0  0  0  0  0  0
    8.6811    9.5354   16.9998 C   0  0  0  0  0  0  0  0  0  0  0  0
    9.2512    4.2713   13.7653 O   0  0  0  0  0  0  0  0  0  0  0  0
    9.6495    8.6317   16.8332 N   0  0  0  0  0  0  0  0  0  0  0  0
    6.2934    8.6988   23.1988 O   0  0  0  0  0  0  0  0  0  0  0  0
    7.9806    8.6543   20.5437 C   0  0  0  0  0  0  0  0  0  0  0  0
   13.7270    5.7144   19.8610 O   0  0  0  0  0  0  0  0  0  0  0  0
    8.3351    5.5235   15.4478 C   0  0  0  0  0  0  0  0  0  0  0  0
    8.7700    7.8434   21.3915 C   0  0  0  0  0  0  0  0  0  0  0  0
   11.7856    6.8851   19.2401 C   0  0  0  0  0  0  0  0  0  0  0  0
   10.5281    7.4276   19.5649 C   0  0  0  0  0  0  0  0  0  0  0  0
   10.0256    7.2907   20.8484 C   0  0  0  0  0  0  0  0  0  0  0  0
    9.3113    5.3049   14.4911 C   0  0  0  0  0  0  0  0  0  0  0  0
    9.4607    7.5646   16.0139 C   0  0  0  0  0  0  0  0  0  0  0  0
   10.4192    7.3157   15.0955 C   0  0  0  0  0  0  0  0  0  0  0  0
   10.2489    6.4227   23.0218 N   0  0  0  0  0  0  0  0  0  0  0  0
    7.2472    8.0746   23.5050 C   0  0  0  0  0  0  0  0  0  0  0  0
    9.2051    6.9101   23.4604 C   0  0  0  0  0  0  0  0  0  0  0  0
   11.9646    6.0299   21.4251 C   0  0  0  0  0  0  0  0  0  0  0  0
  1  5  1  0
  1 13  1  0
  2 20  2  0
  2 28  1  0
  2 29  1  0
  3 19  4  0
  3 25  4  0
  4 23  4  0
  4 27  1  0
  4 30  4  0
  5 17  1  0
  6  8  1  0
  6 29  1  0
  7 24  4  0
  7 26  4  0
  8 28  1  0
  9 13  2  0
 10 18  1  0
 10 21  4  0
 10 30  4  0
 11 17  2  0
 12 18  1  0
 13 15  1  0
 14 24  1  0
 15 25  1  0
 16 28  2  0
 17 20  1  0
 19 24  4  0
 20 23  1  0
 21 22  4  0
 22 23  4  0
 25 26  4  0
 27 29  2  0
M  END
$$$$

 Created by Python create_sdf_string function

 30 33  0  0  0  0  0  0  0  0999 V2000
    8.3036    9.8571   18.4133 C   0  0  0  0  0  0  0  0  0  0  0  0
    8.3694    7.6612   22.6703 C   0  0  0  0  0  0  0  0  0  0  0  0
    8.4143    6.6863   16.2273 C   0  0  0  0  0  0  0  0  0  0  0  0
   10.7581    6.5674   21.7636 C   0  0  0  0  0  0  0  0  0  0  0  0
    8.4452    8.7960   19.2958 O   0  0  0  0  0  0  0  0  0  0  0  0
    8.7122    6.7842   24.8569 C   0  0  0  0  0  0  0  0  0  0  0  0
   10.3400    6.1726   14.3081 C   0  0  0  0  0  0  0  0  0  0  0  0
    7.4297    7.5873   24.8962 C   0  0  0  0  0  0  0  0  0  0  0  0
    8.1566   10.0536   16.0516 O   0  0  0  0  0  0  0  0  0  0  0  0
   12.4989    6.2074   20.1776 C   0  0  0  0  0  0  0  0  0  0  0  0
    6.9192    9.1053   20.9073 O   0  0  0  0  0  0  0  0  0  0  0  0
   14.3979    6.0729   18.7784 C   0  0  0  0  0  0  0  0  0  0  0  0
    8.6811    9.5354   16.9998 C   0  0  0  0  0  0  0  0  0  0  0  0
    9.2512    4.2713   13.7653 O   0  0  0  0  0  0  0  0  0  0  0  0
    9.6495    8.6317   16.8332 N   0  0  0  0  0  0  0  0  0  0  0  0
    6.2934    8.6988   23.1988 O   0  0  0  0  0  0  0  0  0  0  0  0
    7.9806    8.6543   20.5437 C   0  0  0  0  0  0  0  0  0  0  0  0
   13.7270    5.7144   19.8610 O   0  0  0  0  0  0  0  0  0  0  0  0
    8.3351    5.5235   15.4478 C   0  0  0  0  0  0  0  0  0  0  0  0
    8.7700    7.8434   21.3915 C   0  0  0  0  0  0  0  0  0  0  0  0
   11.7856    6.8851   19.2401 C   0  0  0  0  0  0  0  0  0  0  0  0
   10.5281    7.4276   19.5649 C   0  0  0  0  0  0  0  0  0  0  0  0
   10.0256    7.2907   20.8484 C   0  0  0  0  0  0  0  0  0  0  0  0
    9.3113    5.3049   14.4911 C   0  0  0  0  0  0  0  0  0  0  0  0
    9.4607    7.5646   16.0139 C   0  0  0  0  0  0  0  0  0  0  0  0
   10.4192    7.3157   15.0955 C   0  0  0  0  0  0  0  0  0  0  0  0
   10.2489    6.4227   23.0218 N   0  0  0  0  0  0  0  0  0  0  0  0
    7.2472    8.0746   23.5050 C   0  0  0  0  0  0  0  0  0  0  0  0
    9.2051    6.9101   23.4604 C   0  0  0  0  0  0  0  0  0  0  0  0
   11.9646    6.0299   21.4251 C   0  0  0  0  0  0  0  0  0  0  0  0
  1  5  1  0
  1 13  1  0
  2 20  2  0
  2 28  1  0
  2 29  1  0
  3 19  4  0
  3 25  4  0
  4 23  4  0
  4 27  1  0
  4 30  4  0
  5 17  1  0
  6  8  1  0
  6 29  1  0
  7 24  4  0
  7 26  4  0
  8 28  1  0
  9 13  2  0
 10 18  1  0
 10 21  4  0
 10 30  4  0
 11 17  2  0
 12 18  1  0
 13 15  1  0
 14 24  1  0
 15 25  1  0
 16 28  2  0
 17 20  1  0
 19 24  4  0
 20 23  1  0
 21 22  4  0
 22 23  4  0
 25 26  4  0
 27 29  2  0
M  END
$$$$

 Created by Python create_sdf_string function

 30 33  0  0  0  0  0  0  0  0999 V2000
    8.3036    9.8571   18.4133 C   0  0  0  0  0  0  0  0  0  0  0  0
    8.3694    7.6612   22.6703 C   0  0  0  0  0  0  0  0  0  0  0  0
    8.4143    6.6863   16.2273 C   0  0  0  0  0  0  0  0  0  0  0  0
   10.7581    6.5674   21.7636 C   0  0  0  0  0  0  0  0  0  0  0  0
    8.4452    8.7960   19.2958 O   0  0  0  0  0  0  0  0  0  0  0  0
    8.7122    6.7842   24.8569 C   0  0  0  0  0  0  0  0  0  0  0  0
   10.3400    6.1726   14.3081 C   0  0  0  0  0  0  0  0  0  0  0  0
    7.4297    7.5873   24.8962 C   0  0  0  0  0  0  0  0  0  0  0  0
    8.1566   10.0536   16.0516 O   0  0  0  0  0  0  0  0  0  0  0  0
   12.4989    6.2074   20.1776 C   0  0  0  0  0  0  0  0  0  0  0  0
    6.9192    9.1053   20.9073 O   0  0  0  0  0  0  0  0  0  0  0  0
   14.3979    6.0729   18.7784 C   0  0  0  0  0  0  0  0  0  0  0  0
    8.6811    9.5354   16.9998 C   0  0  0  0  0  0  0  0  0  0  0  0
    9.2512    4.2713   13.7653 O   0  0  0  0  0  0  0  0  0  0  0  0
    9.6495    8.6317   16.8332 N   0  0  0  0  0  0  0  0  0  0  0  0
    6.2934    8.6988   23.1988 O   0  0  0  0  0  0  0  0  0  0  0  0
    7.9806    8.6543   20.5437 C   0  0  0  0  0  0  0  0  0  0  0  0
   13.7270    5.7144   19.8610 O   0  0  0  0  0  0  0  0  0  0  0  0
    8.3351    5.5235   15.4478 C   0  0  0  0  0  0  0  0  0  0  0  0
    8.7700    7.8434   21.3915 C   0  0  0  0  0  0  0  0  0  0  0  0
   11.7856    6.8851   19.2401 C   0  0  0  0  0  0  0  0  0  0  0  0
   10.5281    7.4276   19.5649 C   0  0  0  0  0  0  0  0  0  0  0  0
   10.0256    7.2907   20.8484 C   0  0  0  0  0  0  0  0  0  0  0  0
    9.3113    5.3049   14.4911 C   0  0  0  0  0  0  0  0  0  0  0  0
    9.4607    7.5646   16.0139 C   0  0  0  0  0  0  0  0  0  0  0  0
   10.4192    7.3157   15.0955 C   0  0  0  0  0  0  0  0  0  0  0  0
   10.2489    6.4227   23.0218 N   0  0  0  0  0  0  0  0  0  0  0  0
    7.2472    8.0746   23.5050 C   0  0  0  0  0  0  0  0  0  0  0  0
    9.2051    6.9101   23.4604 C   0  0  0  0  0  0  0  0  0  0  0  0
   11.9646    6.0299   21.4251 C   0  0  0  0  0  0  0  0  0  0  0  0
  1  5  1  0
  1 13  1  0
  2 20  2  0
  2 28  1  0
  2 29  1  0
  3 19  4  0
  3 25  4  0
  4 23  4  0
  4 27  1  0
  4 30  4  0
  5 17  1  0
  6  8  1  0
  6 29  1  0
  7 24  4  0
  7 26  4  0
  8 28  1  0
  9 13  2  0
 10 18  1  0
 10 21  4  0
 10 30  4  0
 11 17  2  0
 12 18  1  0
 13 15  1  0
 14 24  1  0
 15 25  1  0
 16 28  2  0
 17 20  1  0
 19 24  4  0
 20 23  1  0
 21 22  4  0
 22 23  4  0
 25 26  4  0
 27 29  2  0
M  END
$$$$

 Created by Python create_sdf_string function

 30 33  0  0  0  0  0  0  0  0999 V2000
    8.3036    9.8571   18.4133 C   0  0  0  0  0  0  0  0  0  0  0  0
    8.3694    7.6612   22.6703 C   0  0  0  0  0  0  0  0  0  0  0  0
    8.4143    6.6863   16.2273 C   0  0  0  0  0  0  0  0  0  0  0  0
   10.7581    6.5674   21.7636 C   0  0  0  0  0  0  0  0  0  0  0  0
    8.4452    8.7960   19.2958 O   0  0  0  0  0  0  0  0  0  0  0  0
    8.7122    6.7842   24.8569 C   0  0  0  0  0  0  0  0  0  0  0  0
   10.3400    6.1726   14.3081 C   0  0  0  0  0  0  0  0  0  0  0  0
    7.4297    7.5873   24.8962 C   0  0  0  0  0  0  0  0  0  0  0  0
    8.1566   10.0536   16.0516 O   0  0  0  0  0  0  0  0  0  0  0  0
   12.4989    6.2074   20.1776 C   0  0  0  0  0  0  0  0  0  0  0  0
    6.9192    9.1053   20.9073 O   0  0  0  0  0  0  0  0  0  0  0  0
   14.3979    6.0729   18.7784 C   0  0  0  0  0  0  0  0  0  0  0  0
    8.6811    9.5354   16.9998 C   0  0  0  0  0  0  0  0  0  0  0  0
    9.2512    4.2713   13.7653 O   0  0  0  0  0  0  0  0  0  0  0  0
    9.6495    8.6317   16.8332 N   0  0  0  0  0  0  0  0  0  0  0  0
    6.2934    8.6988   23.1988 O   0  0  0  0  0  0  0  0  0  0  0  0
    7.9806    8.6543   20.5437 C   0  0  0  0  0  0  0  0  0  0  0  0
   13.7270    5.7144   19.8610 O   0  0  0  0  0  0  0  0  0  0  0  0
    8.3351    5.5235   15.4478 C   0  0  0  0  0  0  0  0  0  0  0  0
    8.7700    7.8434   21.3915 C   0  0  0  0  0  0  0  0  0  0  0  0
   11.7856    6.8851   19.2401 C   0  0  0  0  0  0  0  0  0  0  0  0
   10.5281    7.4276   19.5649 C   0  0  0  0  0  0  0  0  0  0  0  0
   10.0256    7.2907   20.8484 C   0  0  0  0  0  0  0  0  0  0  0  0
    9.3113    5.3049   14.4911 C   0  0  0  0  0  0  0  0  0  0  0  0
    9.4607    7.5646   16.0139 C   0  0  0  0  0  0  0  0  0  0  0  0
   10.4192    7.3157   15.0955 C   0  0  0  0  0  0  0  0  0  0  0  0
   10.2489    6.4227   23.0218 N   0  0  0  0  0  0  0  0  0  0  0  0
    7.2472    8.0746   23.5050 C   0  0  0  0  0  0  0  0  0  0  0  0
    9.2051    6.9101   23.4604 C   0  0  0  0  0  0  0  0  0  0  0  0
   11.9646    6.0299   21.4251 C   0  0  0  0  0  0  0  0  0  0  0  0
  1  5  1  0
  1 13  1  0
  2 20  2  0
  2 28  1  0
  2 29  1  0
  3 19  4  0
  3 25  4  0
  4 23  4  0
  4 27  1  0
  4 30  4  0
  5 17  1  0
  6  8  1  0
  6 29  1  0
  7 24  4  0
  7 26  4  0
  8 28  1  0
  9 13  2  0
 10 18  1  0
 10 21  4  0
 10 30  4  0
 11 17  2  0
 12 18  1  0
 13 15  1  0
 14 24  1  0
 15 25  1  0
 16 28  2  0
 17 20  1  0
 19 24  4  0
 20 23  1  0
 21 22  4  0
 22 23  4  0
 25 26  4  0
 27 29  2  0
M  END
$$$$

 Created by Python create_sdf_string function

 30 33  0  0  0  0  0  0  0  0999 V2000
    8.3036    9.8571   18.4133 C   0  0  0  0  0  0  0  0  0  0  0  0
    8.3694    7.6612   22.6703 C   0  0  0  0  0  0  0  0  0  0  0  0
    8.4143    6.6863   16.2273 C   0  0  0  0  0  0  0  0  0  0  0  0
   10.7581    6.5674   21.7636 C   0  0  0  0  0  0  0  0  0  0  0  0
    8.4452    8.7960   19.2958 O   0  0  0  0  0  0  0  0  0  0  0  0
    8.7122    6.7842   24.8569 C   0  0  0  0  0  0  0  0  0  0  0  0
   10.3400    6.1726   14.3081 C   0  0  0  0  0  0  0  0  0  0  0  0
    7.4297    7.5873   24.8962 C   0  0  0  0  0  0  0  0  0  0  0  0
    8.1566   10.0536   16.0516 O   0  0  0  0  0  0  0  0  0  0  0  0
   12.4989    6.2074   20.1776 C   0  0  0  0  0  0  0  0  0  0  0  0
    6.9192    9.1053   20.9073 O   0  0  0  0  0  0  0  0  0  0  0  0
   14.3979    6.0729   18.7784 C   0  0  0  0  0  0  0  0  0  0  0  0
    8.6811    9.5354   16.9998 C   0  0  0  0  0  0  0  0  0  0  0  0
    9.2512    4.2713   13.7653 O   0  0  0  0  0  0  0  0  0  0  0  0
    9.6495    8.6317   16.8332 N   0  0  0  0  0  0  0  0  0  0  0  0
    6.2934    8.6988   23.1988 O   0  0  0  0  0  0  0  0  0  0  0  0
    7.9806    8.6543   20.5437 C   0  0  0  0  0  0  0  0  0  0  0  0
   13.7270    5.7144   19.8610 O   0  0  0  0  0  0  0  0  0  0  0  0
    8.3351    5.5235   15.4478 C   0  0  0  0  0  0  0  0  0  0  0  0
    8.7700    7.8434   21.3915 C   0  0  0  0  0  0  0  0  0  0  0  0
   11.7856    6.8851   19.2401 C   0  0  0  0  0  0  0  0  0  0  0  0
   10.5281    7.4276   19.5649 C   0  0  0  0  0  0  0  0  0  0  0  0
   10.0256    7.2907   20.8484 C   0  0  0  0  0  0  0  0  0  0  0  0
    9.3113    5.3049   14.4911 C   0  0  0  0  0  0  0  0  0  0  0  0
    9.4607    7.5646   16.0139 C   0  0  0  0  0  0  0  0  0  0  0  0
   10.4192    7.3157   15.0955 C   0  0  0  0  0  0  0  0  0  0  0  0
   10.2489    6.4227   23.0218 N   0  0  0  0  0  0  0  0  0  0  0  0
    7.2472    8.0746   23.5050 C   0  0  0  0  0  0  0  0  0  0  0  0
    9.2051    6.9101   23.4604 C   0  0  0  0  0  0  0  0  0  0  0  0
   11.9646    6.0299   21.4251 C   0  0  0  0  0  0  0  0  0  0  0  0
  1  5  1  0
  1 13  1  0
  2 20  2  0
  2 28  1  0
  2 29  1  0
  3 19  4  0
  3 25  4  0
  4 23  4  0
  4 27  1  0
  4 30  4  0
  5 17  1  0
  6  8  1  0
  6 29  1  0
  7 24  4  0
  7 26  4  0
  8 28  1  0
  9 13  2  0
 10 18  1  0
 10 21  4  0
 10 30  4  0
 11 17  2  0
 12 18  1  0
 13 15  1  0
 14 24  1  0
 15 25  1  0
 16 28  2  0
 17 20  1  0
 19 24  4  0
 20 23  1  0
 21 22  4  0
 22 23  4  0
 25 26  4  0
 27 29  2  0
M  END
$$$$

 Created by Python create_sdf_string function

 30 33  0  0  0  0  0  0  0  0999 V2000
    8.3036    9.8571   18.4133 C   0  0  0  0  0  0  0  0  0  0  0  0
    8.3694    7.6612   22.6703 C   0  0  0  0  0  0  0  0  0  0  0  0
    8.4143    6.6863   16.2273 C   0  0  0  0  0  0  0  0  0  0  0  0
   10.7581    6.5674   21.7636 C   0  0  0  0  0  0  0  0  0  0  0  0
    8.4452    8.7960   19.2958 O   0  0  0  0  0  0  0  0  0  0  0  0
    8.7122    6.7842   24.8569 C   0  0  0  0  0  0  0  0  0  0  0  0
   10.3400    6.1726   14.3081 C   0  0  0  0  0  0  0  0  0  0  0  0
    7.4297    7.5873   24.8962 C   0  0  0  0  0  0  0  0  0  0  0  0
    8.1566   10.0536   16.0516 O   0  0  0  0  0  0  0  0  0  0  0  0
   12.4989    6.2074   20.1776 C   0  0  0  0  0  0  0  0  0  0  0  0
    6.9192    9.1053   20.9073 O   0  0  0  0  0  0  0  0  0  0  0  0
   14.3979    6.0729   18.7784 C   0  0  0  0  0  0  0  0  0  0  0  0
    8.6811    9.5354   16.9998 C   0  0  0  0  0  0  0  0  0  0  0  0
    9.2512    4.2713   13.7653 O   0  0  0  0  0  0  0  0  0  0  0  0
    9.6495    8.6317   16.8332 N   0  0  0  0  0  0  0  0  0  0  0  0
    6.2934    8.6988   23.1988 O   0  0  0  0  0  0  0  0  0  0  0  0
    7.9806    8.6543   20.5437 C   0  0  0  0  0  0  0  0  0  0  0  0
   13.7270    5.7144   19.8610 O   0  0  0  0  0  0  0  0  0  0  0  0
    8.3351    5.5235   15.4478 C   0  0  0  0  0  0  0  0  0  0  0  0
    8.7700    7.8434   21.3915 C   0  0  0  0  0  0  0  0  0  0  0  0
   11.7856    6.8851   19.2401 C   0  0  0  0  0  0  0  0  0  0  0  0
   10.5281    7.4276   19.5649 C   0  0  0  0  0  0  0  0  0  0  0  0
   10.0256    7.2907   20.8484 C   0  0  0  0  0  0  0  0  0  0  0  0
    9.3113    5.3049   14.4911 C   0  0  0  0  0  0  0  0  0  0  0  0
    9.4607    7.5646   16.0139 C   0  0  0  0  0  0  0  0  0  0  0  0
   10.4192    7.3157   15.0955 C   0  0  0  0  0  0  0  0  0  0  0  0
   10.2489    6.4227   23.0218 N   0  0  0  0  0  0  0  0  0  0  0  0
    7.2472    8.0746   23.5050 C   0  0  0  0  0  0  0  0  0  0  0  0
    9.2051    6.9101   23.4604 C   0  0  0  0  0  0  0  0  0  0  0  0
   11.9646    6.0299   21.4251 C   0  0  0  0  0  0  0  0  0  0  0  0
  1  5  1  0
  1 13  1  0
  2 20  2  0
  2 28  1  0
  2 29  1  0
  3 19  4  0
  3 25  4  0
  4 23  4  0
  4 27  1  0
  4 30  4  0
  5 17  1  0
  6  8  1  0
  6 29  1  0
  7 24  4  0
  7 26  4  0
  8 28  1  0
  9 13  2  0
 10 18  1  0
 10 21  4  0
 10 30  4  0
 11 17  2  0
 12 18  1  0
 13 15  1  0
 14 24  1  0
 15 25  1  0
 16 28  2  0
 17 20  1  0
 19 24  4  0
 20 23  1  0
 21 22  4  0
 22 23  4  0
 25 26  4  0
 27 29  2  0
M  END
$$$$

 Created by Python create_sdf_string function

 30 33  0  0  0  0  0  0  0  0999 V2000
    8.3036    9.8571   18.4133 C   0  0  0  0  0  0  0  0  0  0  0  0
    8.3694    7.6612   22.6703 C   0  0  0  0  0  0  0  0  0  0  0  0
    8.4143    6.6863   16.2273 C   0  0  0  0  0  0  0  0  0  0  0  0
   10.7581    6.5674   21.7636 C   0  0  0  0  0  0  0  0  0  0  0  0
    8.4452    8.7960   19.2958 O   0  0  0  0  0  0  0  0  0  0  0  0
    8.7122    6.7842   24.8569 C   0  0  0  0  0  0  0  0  0  0  0  0
   10.3400    6.1726   14.3081 C   0  0  0  0  0  0  0  0  0  0  0  0
    7.4297    7.5873   24.8962 C   0  0  0  0  0  0  0  0  0  0  0  0
    8.1566   10.0536   16.0516 O   0  0  0  0  0  0  0  0  0  0  0  0
   12.4989    6.2074   20.1776 C   0  0  0  0  0  0  0  0  0  0  0  0
    6.9192    9.1053   20.9073 O   0  0  0  0  0  0  0  0  0  0  0  0
   14.3979    6.0729   18.7784 C   0  0  0  0  0  0  0  0  0  0  0  0
    8.6811    9.5354   16.9998 C   0  0  0  0  0  0  0  0  0  0  0  0
    9.2512    4.2713   13.7653 O   0  0  0  0  0  0  0  0  0  0  0  0
    9.6495    8.6317   16.8332 N   0  0  0  0  0  0  0  0  0  0  0  0
    6.2934    8.6988   23.1988 O   0  0  0  0  0  0  0  0  0  0  0  0
    7.9806    8.6543   20.5437 C   0  0  0  0  0  0  0  0  0  0  0  0
   13.7270    5.7144   19.8610 O   0  0  0  0  0  0  0  0  0  0  0  0
    8.3351    5.5235   15.4478 C   0  0  0  0  0  0  0  0  0  0  0  0
    8.7700    7.8434   21.3915 C   0  0  0  0  0  0  0  0  0  0  0  0
   11.7856    6.8851   19.2401 C   0  0  0  0  0  0  0  0  0  0  0  0
   10.5281    7.4276   19.5649 C   0  0  0  0  0  0  0  0  0  0  0  0
   10.0256    7.2907   20.8484 C   0  0  0  0  0  0  0  0  0  0  0  0
    9.3113    5.3049   14.4911 C   0  0  0  0  0  0  0  0  0  0  0  0
    9.4607    7.5646   16.0139 C   0  0  0  0  0  0  0  0  0  0  0  0
   10.4192    7.3157   15.0955 C   0  0  0  0  0  0  0  0  0  0  0  0
   10.2489    6.4227   23.0218 N   0  0  0  0  0  0  0  0  0  0  0  0
    7.2472    8.0746   23.5050 C   0  0  0  0  0  0  0  0  0  0  0  0
    9.2051    6.9101   23.4604 C   0  0  0  0  0  0  0  0  0  0  0  0
   11.9646    6.0299   21.4251 C   0  0  0  0  0  0  0  0  0  0  0  0
  1  5  1  0
  1 13  1  0
  2 20  2  0
  2 28  1  0
  2 29  1  0
  3 19  4  0
  3 25  4  0
  4 23  4  0
  4 27  1  0
  4 30  4  0
  5 17  1  0
  6  8  1  0
  6 29  1  0
  7 24  4  0
  7 26  4  0
  8 28  1  0
  9 13  2  0
 10 18  1  0
 10 21  4  0
 10 30  4  0
 11 17  2  0
 12 18  1  0
 13 15  1  0
 14 24  1  0
 15 25  1  0
 16 28  2  0
 17 20  1  0
 19 24  4  0
 20 23  1  0
 21 22  4  0
 22 23  4  0
 25 26  4  0
 27 29  2  0
M  END
$$$$

 Created by Python create_sdf_string function

 30 33  0  0  0  0  0  0  0  0999 V2000
    8.3036    9.8571   18.4133 C   0  0  0  0  0  0  0  0  0  0  0  0
    8.3694    7.6612   22.6703 C   0  0  0  0  0  0  0  0  0  0  0  0
    8.4143    6.6863   16.2273 C   0  0  0  0  0  0  0  0  0  0  0  0
   10.7581    6.5674   21.7636 C   0  0  0  0  0  0  0  0  0  0  0  0
    8.4452    8.7960   19.2958 O   0  0  0  0  0  0  0  0  0  0  0  0
    8.7122    6.7842   24.8569 C   0  0  0  0  0  0  0  0  0  0  0  0
   10.3400    6.1726   14.3081 C   0  0  0  0  0  0  0  0  0  0  0  0
    7.4297    7.5873   24.8962 C   0  0  0  0  0  0  0  0  0  0  0  0
    8.1566   10.0536   16.0516 O   0  0  0  0  0  0  0  0  0  0  0  0
   12.4989    6.2074   20.1776 C   0  0  0  0  0  0  0  0  0  0  0  0
    6.9192    9.1053   20.9073 O   0  0  0  0  0  0  0  0  0  0  0  0
   14.3979    6.0729   18.7784 C   0  0  0  0  0  0  0  0  0  0  0  0
    8.6811    9.5354   16.9998 C   0  0  0  0  0  0  0  0  0  0  0  0
    9.2512    4.2713   13.7653 O   0  0  0  0  0  0  0  0  0  0  0  0
    9.6495    8.6317   16.8332 N   0  0  0  0  0  0  0  0  0  0  0  0
    6.2934    8.6988   23.1988 O   0  0  0  0  0  0  0  0  0  0  0  0
    7.9806    8.6543   20.5437 C   0  0  0  0  0  0  0  0  0  0  0  0
   13.7270    5.7144   19.8610 O   0  0  0  0  0  0  0  0  0  0  0  0
    8.3351    5.5235   15.4478 C   0  0  0  0  0  0  0  0  0  0  0  0
    8.7700    7.8434   21.3915 C   0  0  0  0  0  0  0  0  0  0  0  0
   11.7856    6.8851   19.2401 C   0  0  0  0  0  0  0  0  0  0  0  0
   10.5281    7.4276   19.5649 C   0  0  0  0  0  0  0  0  0  0  0  0
   10.0256    7.2907   20.8484 C   0  0  0  0  0  0  0  0  0  0  0  0
    9.3113    5.3049   14.4911 C   0  0  0  0  0  0  0  0  0  0  0  0
    9.4607    7.5646   16.0139 C   0  0  0  0  0  0  0  0  0  0  0  0
   10.4192    7.3157   15.0955 C   0  0  0  0  0  0  0  0  0  0  0  0
   10.2489    6.4227   23.0218 N   0  0  0  0  0  0  0  0  0  0  0  0
    7.2472    8.0746   23.5050 C   0  0  0  0  0  0  0  0  0  0  0  0
    9.2051    6.9101   23.4604 C   0  0  0  0  0  0  0  0  0  0  0  0
   11.9646    6.0299   21.4251 C   0  0  0  0  0  0  0  0  0  0  0  0
  1  5  1  0
  1 13  1  0
  2 20  2  0
  2 28  1  0
  2 29  1  0
  3 19  4  0
  3 25  4  0
  4 23  4  0
  4 27  1  0
  4 30  4  0
  5 17  1  0
  6  8  1  0
  6 29  1  0
  7 24  4  0
  7 26  4  0
  8 28  1  0
  9 13  2  0
 10 18  1  0
 10 21  4  0
 10 30  4  0
 11 17  2  0
 12 18  1  0
 13 15  1  0
 14 24  1  0
 15 25  1  0
 16 28  2  0
 17 20  1  0
 19 24  4  0
 20 23  1  0
 21 22  4  0
 22 23  4  0
 25 26  4  0
 27 29  2  0
M  END
$$$$

 Created by Python create_sdf_string function

 30 33  0  0  0  0  0  0  0  0999 V2000
    8.3036    9.8571   18.4133 C   0  0  0  0  0  0  0  0  0  0  0  0
    8.3694    7.6612   22.6703 C   0  0  0  0  0  0  0  0  0  0  0  0
    8.4143    6.6863   16.2273 C   0  0  0  0  0  0  0  0  0  0  0  0
   10.7581    6.5674   21.7636 C   0  0  0  0  0  0  0  0  0  0  0  0
    8.4452    8.7960   19.2958 O   0  0  0  0  0  0  0  0  0  0  0  0
    8.7122    6.7842   24.8569 C   0  0  0  0  0  0  0  0  0  0  0  0
   10.3400    6.1726   14.3081 C   0  0  0  0  0  0  0  0  0  0  0  0
    7.4297    7.5873   24.8962 C   0  0  0  0  0  0  0  0  0  0  0  0
    8.1566   10.0536   16.0516 O   0  0  0  0  0  0  0  0  0  0  0  0
   12.4989    6.2074   20.1776 C   0  0  0  0  0  0  0  0  0  0  0  0
    6.9192    9.1053   20.9073 O   0  0  0  0  0  0  0  0  0  0  0  0
   14.3979    6.0729   18.7784 C   0  0  0  0  0  0  0  0  0  0  0  0
    8.6811    9.5354   16.9998 C   0  0  0  0  0  0  0  0  0  0  0  0
    9.2512    4.2713   13.7653 O   0  0  0  0  0  0  0  0  0  0  0  0
    9.6495    8.6317   16.8332 N   0  0  0  0  0  0  0  0  0  0  0  0
    6.2934    8.6988   23.1988 O   0  0  0  0  0  0  0  0  0  0  0  0
    7.9806    8.6543   20.5437 C   0  0  0  0  0  0  0  0  0  0  0  0
   13.7270    5.7144   19.8610 O   0  0  0  0  0  0  0  0  0  0  0  0
    8.3351    5.5235   15.4478 C   0  0  0  0  0  0  0  0  0  0  0  0
    8.7700    7.8434   21.3915 C   0  0  0  0  0  0  0  0  0  0  0  0
   11.7856    6.8851   19.2401 C   0  0  0  0  0  0  0  0  0  0  0  0
   10.5281    7.4276   19.5649 C   0  0  0  0  0  0  0  0  0  0  0  0
   10.0256    7.2907   20.8484 C   0  0  0  0  0  0  0  0  0  0  0  0
    9.3113    5.3049   14.4911 C   0  0  0  0  0  0  0  0  0  0  0  0
    9.4607    7.5646   16.0139 C   0  0  0  0  0  0  0  0  0  0  0  0
   10.4192    7.3157   15.0955 C   0  0  0  0  0  0  0  0  0  0  0  0
   10.2489    6.4227   23.0218 N   0  0  0  0  0  0  0  0  0  0  0  0
    7.2472    8.0746   23.5050 C   0  0  0  0  0  0  0  0  0  0  0  0
    9.2051    6.9101   23.4604 C   0  0  0  0  0  0  0  0  0  0  0  0
   11.9646    6.0299   21.4251 C   0  0  0  0  0  0  0  0  0  0  0  0
  1  5  1  0
  1 13  1  0
  2 20  2  0
  2 28  1  0
  2 29  1  0
  3 19  4  0
  3 25  4  0
  4 23  4  0
  4 27  1  0
  4 30  4  0
  5 17  1  0
  6  8  1  0
  6 29  1  0
  7 24  4  0
  7 26  4  0
  8 28  1  0
  9 13  2  0
 10 18  1  0
 10 21  4  0
 10 30  4  0
 11 17  2  0
 12 18  1  0
 13 15  1  0
 14 24  1  0
 15 25  1  0
 16 28  2  0
 17 20  1  0
 19 24  4  0
 20 23  1  0
 21 22  4  0
 22 23  4  0
 25 26  4  0
 27 29  2  0
M  END
$$$$

 Created by Python create_sdf_string function

 30 33  0  0  0  0  0  0  0  0999 V2000
    8.3036    9.8571   18.4133 C   0  0  0  0  0  0  0  0  0  0  0  0
    8.3694    7.6612   22.6703 C   0  0  0  0  0  0  0  0  0  0  0  0
    8.4143    6.6863   16.2273 C   0  0  0  0  0  0  0  0  0  0  0  0
   10.7581    6.5674   21.7636 C   0  0  0  0  0  0  0  0  0  0  0  0
    8.4452    8.7960   19.2958 O   0  0  0  0  0  0  0  0  0  0  0  0
    8.7122    6.7842   24.8569 C   0  0  0  0  0  0  0  0  0  0  0  0
   10.3400    6.1726   14.3081 C   0  0  0  0  0  0  0  0  0  0  0  0
    7.4297    7.5873   24.8962 C   0  0  0  0  0  0  0  0  0  0  0  0
    8.1566   10.0536   16.0516 O   0  0  0  0  0  0  0  0  0  0  0  0
   12.4989    6.2074   20.1776 C   0  0  0  0  0  0  0  0  0  0  0  0
    6.9192    9.1053   20.9073 O   0  0  0  0  0  0  0  0  0  0  0  0
   14.3979    6.0729   18.7784 C   0  0  0  0  0  0  0  0  0  0  0  0
    8.6811    9.5354   16.9998 C   0  0  0  0  0  0  0  0  0  0  0  0
    9.2512    4.2713   13.7653 O   0  0  0  0  0  0  0  0  0  0  0  0
    9.6495    8.6317   16.8332 N   0  0  0  0  0  0  0  0  0  0  0  0
    6.2934    8.6988   23.1988 O   0  0  0  0  0  0  0  0  0  0  0  0
    7.9806    8.6543   20.5437 C   0  0  0  0  0  0  0  0  0  0  0  0
   13.7270    5.7144   19.8610 O   0  0  0  0  0  0  0  0  0  0  0  0
    8.3351    5.5235   15.4478 C   0  0  0  0  0  0  0  0  0  0  0  0
    8.7700    7.8434   21.3915 C   0  0  0  0  0  0  0  0  0  0  0  0
   11.7856    6.8851   19.2401 C   0  0  0  0  0  0  0  0  0  0  0  0
   10.5281    7.4276   19.5649 C   0  0  0  0  0  0  0  0  0  0  0  0
   10.0256    7.2907   20.8484 C   0  0  0  0  0  0  0  0  0  0  0  0
    9.3113    5.3049   14.4911 C   0  0  0  0  0  0  0  0  0  0  0  0
    9.4607    7.5646   16.0139 C   0  0  0  0  0  0  0  0  0  0  0  0
   10.4192    7.3157   15.0955 C   0  0  0  0  0  0  0  0  0  0  0  0
   10.2489    6.4227   23.0218 N   0  0  0  0  0  0  0  0  0  0  0  0
    7.2472    8.0746   23.5050 C   0  0  0  0  0  0  0  0  0  0  0  0
    9.2051    6.9101   23.4604 C   0  0  0  0  0  0  0  0  0  0  0  0
   11.9646    6.0299   21.4251 C   0  0  0  0  0  0  0  0  0  0  0  0
  1  5  1  0
  1 13  1  0
  2 20  2  0
  2 28  1  0
  2 29  1  0
  3 19  4  0
  3 25  4  0
  4 23  4  0
  4 27  1  0
  4 30  4  0
  5 17  1  0
  6  8  1  0
  6 29  1  0
  7 24  4  0
  7 26  4  0
  8 28  1  0
  9 13  2  0
 10 18  1  0
 10 21  4  0
 10 30  4  0
 11 17  2  0
 12 18  1  0
 13 15  1  0
 14 24  1  0
 15 25  1  0
 16 28  2  0
 17 20  1  0
 19 24  4  0
 20 23  1  0
 21 22  4  0
 22 23  4  0
 25 26  4  0
 27 29  2  0
M  END
$$$$

 Created by Python create_sdf_string function

 30 33  0  0  0  0  0  0  0  0999 V2000
    8.3036    9.8571   18.4133 C   0  0  0  0  0  0  0  0  0  0  0  0
    8.3694    7.6612   22.6703 C   0  0  0  0  0  0  0  0  0  0  0  0
    8.4143    6.6863   16.2273 C   0  0  0  0  0  0  0  0  0  0  0  0
   10.7581    6.5674   21.7636 C   0  0  0  0  0  0  0  0  0  0  0  0
    8.4452    8.7960   19.2958 O   0  0  0  0  0  0  0  0  0  0  0  0
    8.7122    6.7842   24.8569 C   0  0  0  0  0  0  0  0  0  0  0  0
   10.3400    6.1726   14.3081 C   0  0  0  0  0  0  0  0  0  0  0  0
    7.4297    7.5873   24.8962 C   0  0  0  0  0  0  0  0  0  0  0  0
    8.1566   10.0536   16.0516 O   0  0  0  0  0  0  0  0  0  0  0  0
   12.4989    6.2074   20.1776 C   0  0  0  0  0  0  0  0  0  0  0  0
    6.9192    9.1053   20.9073 O   0  0  0  0  0  0  0  0  0  0  0  0
   14.3979    6.0729   18.7784 C   0  0  0  0  0  0  0  0  0  0  0  0
    8.6811    9.5354   16.9998 C   0  0  0  0  0  0  0  0  0  0  0  0
    9.2512    4.2713   13.7653 O   0  0  0  0  0  0  0  0  0  0  0  0
    9.6495    8.6317   16.8332 N   0  0  0  0  0  0  0  0  0  0  0  0
    6.2934    8.6988   23.1988 O   0  0  0  0  0  0  0  0  0  0  0  0
    7.9806    8.6543   20.5437 C   0  0  0  0  0  0  0  0  0  0  0  0
   13.7270    5.7144   19.8610 O   0  0  0  0  0  0  0  0  0  0  0  0
    8.3351    5.5235   15.4478 C   0  0  0  0  0  0  0  0  0  0  0  0
    8.7700    7.8434   21.3915 C   0  0  0  0  0  0  0  0  0  0  0  0
   11.7856    6.8851   19.2401 C   0  0  0  0  0  0  0  0  0  0  0  0
   10.5281    7.4276   19.5649 C   0  0  0  0  0  0  0  0  0  0  0  0
   10.0256    7.2907   20.8484 C   0  0  0  0  0  0  0  0  0  0  0  0
    9.3113    5.3049   14.4911 C   0  0  0  0  0  0  0  0  0  0  0  0
    9.4607    7.5646   16.0139 C   0  0  0  0  0  0  0  0  0  0  0  0
   10.4192    7.3157   15.0955 C   0  0  0  0  0  0  0  0  0  0  0  0
   10.2489    6.4227   23.0218 N   0  0  0  0  0  0  0  0  0  0  0  0
    7.2472    8.0746   23.5050 C   0  0  0  0  0  0  0  0  0  0  0  0
    9.2051    6.9101   23.4604 C   0  0  0  0  0  0  0  0  0  0  0  0
   11.9646    6.0299   21.4251 C   0  0  0  0  0  0  0  0  0  0  0  0
  1  5  1  0
  1 13  1  0
  2 20  2  0
  2 28  1  0
  2 29  1  0
  3 19  4  0
  3 25  4  0
  4 23  4  0
  4 27  1  0
  4 30  4  0
  5 17  1  0
  6  8  1  0
  6 29  1  0
  7 24  4  0
  7 26  4  0
  8 28  1  0
  9 13  2  0
 10 18  1  0
 10 21  4  0
 10 30  4  0
 11 17  2  0
 12 18  1  0
 13 15  1  0
 14 24  1  0
 15 25  1  0
 16 28  2  0
 17 20  1  0
 19 24  4  0
 20 23  1  0
 21 22  4  0
 22 23  4  0
 25 26  4  0
 27 29  2  0
M  END
$$$$

 Created by Python create_sdf_string function

 30 33  0  0  0  0  0  0  0  0999 V2000
    8.3036    9.8571   18.4133 C   0  0  0  0  0  0  0  0  0  0  0  0
    8.3694    7.6612   22.6703 C   0  0  0  0  0  0  0  0  0  0  0  0
    8.4143    6.6863   16.2273 C   0  0  0  0  0  0  0  0  0  0  0  0
   10.7581    6.5674   21.7636 C   0  0  0  0  0  0  0  0  0  0  0  0
    8.4452    8.7960   19.2958 O   0  0  0  0  0  0  0  0  0  0  0  0
    8.7122    6.7842   24.8569 C   0  0  0  0  0  0  0  0  0  0  0  0
   10.3400    6.1726   14.3081 C   0  0  0  0  0  0  0  0  0  0  0  0
    7.4297    7.5873   24.8962 C   0  0  0  0  0  0  0  0  0  0  0  0
    8.1566   10.0536   16.0516 O   0  0  0  0  0  0  0  0  0  0  0  0
   12.4989    6.2074   20.1776 C   0  0  0  0  0  0  0  0  0  0  0  0
    6.9192    9.1053   20.9073 O   0  0  0  0  0  0  0  0  0  0  0  0
   14.3979    6.0729   18.7784 C   0  0  0  0  0  0  0  0  0  0  0  0
    8.6811    9.5354   16.9998 C   0  0  0  0  0  0  0  0  0  0  0  0
    9.2512    4.2713   13.7653 O   0  0  0  0  0  0  0  0  0  0  0  0
    9.6495    8.6317   16.8332 N   0  0  0  0  0  0  0  0  0  0  0  0
    6.2934    8.6988   23.1988 O   0  0  0  0  0  0  0  0  0  0  0  0
    7.9806    8.6543   20.5437 C   0  0  0  0  0  0  0  0  0  0  0  0
   13.7270    5.7144   19.8610 O   0  0  0  0  0  0  0  0  0  0  0  0
    8.3351    5.5235   15.4478 C   0  0  0  0  0  0  0  0  0  0  0  0
    8.7700    7.8434   21.3915 C   0  0  0  0  0  0  0  0  0  0  0  0
   11.7856    6.8851   19.2401 C   0  0  0  0  0  0  0  0  0  0  0  0
   10.5281    7.4276   19.5649 C   0  0  0  0  0  0  0  0  0  0  0  0
   10.0256    7.2907   20.8484 C   0  0  0  0  0  0  0  0  0  0  0  0
    9.3113    5.3049   14.4911 C   0  0  0  0  0  0  0  0  0  0  0  0
    9.4607    7.5646   16.0139 C   0  0  0  0  0  0  0  0  0  0  0  0
   10.4192    7.3157   15.0955 C   0  0  0  0  0  0  0  0  0  0  0  0
   10.2489    6.4227   23.0218 N   0  0  0  0  0  0  0  0  0  0  0  0
    7.2472    8.0746   23.5050 C   0  0  0  0  0  0  0  0  0  0  0  0
    9.2051    6.9101   23.4604 C   0  0  0  0  0  0  0  0  0  0  0  0
   11.9646    6.0299   21.4251 C   0  0  0  0  0  0  0  0  0  0  0  0
  1  5  1  0
  1 13  1  0
  2 20  2  0
  2 28  1  0
  2 29  1  0
  3 19  4  0
  3 25  4  0
  4 23  4  0
  4 27  1  0
  4 30  4  0
  5 17  1  0
  6  8  1  0
  6 29  1  0
  7 24  4  0
  7 26  4  0
  8 28  1  0
  9 13  2  0
 10 18  1  0
 10 21  4  0
 10 30  4  0
 11 17  2  0
 12 18  1  0
 13 15  1  0
 14 24  1  0
 15 25  1  0
 16 28  2  0
 17 20  1  0
 19 24  4  0
 20 23  1  0
 21 22  4  0
 22 23  4  0
 25 26  4  0
 27 29  2  0
M  END
$$$$

 Created by Python create_sdf_string function

 30 33  0  0  0  0  0  0  0  0999 V2000
    8.3036    9.8571   18.4133 C   0  0  0  0  0  0  0  0  0  0  0  0
    8.3694    7.6612   22.6703 C   0  0  0  0  0  0  0  0  0  0  0  0
    8.4143    6.6863   16.2273 C   0  0  0  0  0  0  0  0  0  0  0  0
   10.7581    6.5674   21.7636 C   0  0  0  0  0  0  0  0  0  0  0  0
    8.4452    8.7960   19.2958 O   0  0  0  0  0  0  0  0  0  0  0  0
    8.7122    6.7842   24.8569 C   0  0  0  0  0  0  0  0  0  0  0  0
   10.3400    6.1726   14.3081 C   0  0  0  0  0  0  0  0  0  0  0  0
    7.4297    7.5873   24.8962 C   0  0  0  0  0  0  0  0  0  0  0  0
    8.1566   10.0536   16.0516 O   0  0  0  0  0  0  0  0  0  0  0  0
   12.4989    6.2074   20.1776 C   0  0  0  0  0  0  0  0  0  0  0  0
    6.9192    9.1053   20.9073 O   0  0  0  0  0  0  0  0  0  0  0  0
   14.3979    6.0729   18.7784 C   0  0  0  0  0  0  0  0  0  0  0  0
    8.6811    9.5354   16.9998 C   0  0  0  0  0  0  0  0  0  0  0  0
    9.2512    4.2713   13.7653 O   0  0  0  0  0  0  0  0  0  0  0  0
    9.6495    8.6317   16.8332 N   0  0  0  0  0  0  0  0  0  0  0  0
    6.2934    8.6988   23.1988 O   0  0  0  0  0  0  0  0  0  0  0  0
    7.9806    8.6543   20.5437 C   0  0  0  0  0  0  0  0  0  0  0  0
   13.7270    5.7144   19.8610 O   0  0  0  0  0  0  0  0  0  0  0  0
    8.3351    5.5235   15.4478 C   0  0  0  0  0  0  0  0  0  0  0  0
    8.7700    7.8434   21.3915 C   0  0  0  0  0  0  0  0  0  0  0  0
   11.7856    6.8851   19.2401 C   0  0  0  0  0  0  0  0  0  0  0  0
   10.5281    7.4276   19.5649 C   0  0  0  0  0  0  0  0  0  0  0  0
   10.0256    7.2907   20.8484 C   0  0  0  0  0  0  0  0  0  0  0  0
    9.3113    5.3049   14.4911 C   0  0  0  0  0  0  0  0  0  0  0  0
    9.4607    7.5646   16.0139 C   0  0  0  0  0  0  0  0  0  0  0  0
   10.4192    7.3157   15.0955 C   0  0  0  0  0  0  0  0  0  0  0  0
   10.2489    6.4227   23.0218 N   0  0  0  0  0  0  0  0  0  0  0  0
    7.2472    8.0746   23.5050 C   0  0  0  0  0  0  0  0  0  0  0  0
    9.2051    6.9101   23.4604 C   0  0  0  0  0  0  0  0  0  0  0  0
   11.9646    6.0299   21.4251 C   0  0  0  0  0  0  0  0  0  0  0  0
  1  5  1  0
  1 13  1  0
  2 20  2  0
  2 28  1  0
  2 29  1  0
  3 19  4  0
  3 25  4  0
  4 23  4  0
  4 27  1  0
  4 30  4  0
  5 17  1  0
  6  8  1  0
  6 29  1  0
  7 24  4  0
  7 26  4  0
  8 28  1  0
  9 13  2  0
 10 18  1  0
 10 21  4  0
 10 30  4  0
 11 17  2  0
 12 18  1  0
 13 15  1  0
 14 24  1  0
 15 25  1  0
 16 28  2  0
 17 20  1  0
 19 24  4  0
 20 23  1  0
 21 22  4  0
 22 23  4  0
 25 26  4  0
 27 29  2  0
M  END
$$$$

 Created by Python create_sdf_string function

 30 33  0  0  0  0  0  0  0  0999 V2000
    8.3036    9.8571   18.4133 C   0  0  0  0  0  0  0  0  0  0  0  0
    8.3694    7.6612   22.6703 C   0  0  0  0  0  0  0  0  0  0  0  0
    8.4143    6.6863   16.2273 C   0  0  0  0  0  0  0  0  0  0  0  0
   10.7581    6.5674   21.7636 C   0  0  0  0  0  0  0  0  0  0  0  0
    8.4452    8.7960   19.2958 O   0  0  0  0  0  0  0  0  0  0  0  0
    8.7122    6.7842   24.8569 C   0  0  0  0  0  0  0  0  0  0  0  0
   10.3400    6.1726   14.3081 C   0  0  0  0  0  0  0  0  0  0  0  0
    7.4297    7.5873   24.8962 C   0  0  0  0  0  0  0  0  0  0  0  0
    8.1566   10.0536   16.0516 O   0  0  0  0  0  0  0  0  0  0  0  0
   12.4989    6.2074   20.1776 C   0  0  0  0  0  0  0  0  0  0  0  0
    6.9192    9.1053   20.9073 O   0  0  0  0  0  0  0  0  0  0  0  0
   14.3979    6.0729   18.7784 C   0  0  0  0  0  0  0  0  0  0  0  0
    8.6811    9.5354   16.9998 C   0  0  0  0  0  0  0  0  0  0  0  0
    9.2512    4.2713   13.7653 O   0  0  0  0  0  0  0  0  0  0  0  0
    9.6495    8.6317   16.8332 N   0  0  0  0  0  0  0  0  0  0  0  0
    6.2934    8.6988   23.1988 O   0  0  0  0  0  0  0  0  0  0  0  0
    7.9806    8.6543   20.5437 C   0  0  0  0  0  0  0  0  0  0  0  0
   13.7270    5.7144   19.8610 O   0  0  0  0  0  0  0  0  0  0  0  0
    8.3351    5.5235   15.4478 C   0  0  0  0  0  0  0  0  0  0  0  0
    8.7700    7.8434   21.3915 C   0  0  0  0  0  0  0  0  0  0  0  0
   11.7856    6.8851   19.2401 C   0  0  0  0  0  0  0  0  0  0  0  0
   10.5281    7.4276   19.5649 C   0  0  0  0  0  0  0  0  0  0  0  0
   10.0256    7.2907   20.8484 C   0  0  0  0  0  0  0  0  0  0  0  0
    9.3113    5.3049   14.4911 C   0  0  0  0  0  0  0  0  0  0  0  0
    9.4607    7.5646   16.0139 C   0  0  0  0  0  0  0  0  0  0  0  0
   10.4192    7.3157   15.0955 C   0  0  0  0  0  0  0  0  0  0  0  0
   10.2489    6.4227   23.0218 N   0  0  0  0  0  0  0  0  0  0  0  0
    7.2472    8.0746   23.5050 C   0  0  0  0  0  0  0  0  0  0  0  0
    9.2051    6.9101   23.4604 C   0  0  0  0  0  0  0  0  0  0  0  0
   11.9646    6.0299   21.4251 C   0  0  0  0  0  0  0  0  0  0  0  0
  1  5  1  0
  1 13  1  0
  2 20  2  0
  2 28  1  0
  2 29  1  0
  3 19  4  0
  3 25  4  0
  4 23  4  0
  4 27  1  0
  4 30  4  0
  5 17  1  0
  6  8  1  0
  6 29  1  0
  7 24  4  0
  7 26  4  0
  8 28  1  0
  9 13  2  0
 10 18  1  0
 10 21  4  0
 10 30  4  0
 11 17  2  0
 12 18  1  0
 13 15  1  0
 14 24  1  0
 15 25  1  0
 16 28  2  0
 17 20  1  0
 19 24  4  0
 20 23  1  0
 21 22  4  0
 22 23  4  0
 25 26  4  0
 27 29  2  0
M  END
$$$$

 Created by Python create_sdf_string function

 30 33  0  0  0  0  0  0  0  0999 V2000
    8.3036    9.8571   18.4133 C   0  0  0  0  0  0  0  0  0  0  0  0
    8.3694    7.6612   22.6703 C   0  0  0  0  0  0  0  0  0  0  0  0
    8.4143    6.6863   16.2273 C   0  0  0  0  0  0  0  0  0  0  0  0
   10.7581    6.5674   21.7636 C   0  0  0  0  0  0  0  0  0  0  0  0
    8.4452    8.7960   19.2958 O   0  0  0  0  0  0  0  0  0  0  0  0
    8.7122    6.7842   24.8569 C   0  0  0  0  0  0  0  0  0  0  0  0
   10.3400    6.1726   14.3081 C   0  0  0  0  0  0  0  0  0  0  0  0
    7.4297    7.5873   24.8962 C   0  0  0  0  0  0  0  0  0  0  0  0
    8.1566   10.0536   16.0516 O   0  0  0  0  0  0  0  0  0  0  0  0
   12.4989    6.2074   20.1776 C   0  0  0  0  0  0  0  0  0  0  0  0
    6.9192    9.1053   20.9073 O   0  0  0  0  0  0  0  0  0  0  0  0
   14.3979    6.0729   18.7784 C   0  0  0  0  0  0  0  0  0  0  0  0
    8.6811    9.5354   16.9998 C   0  0  0  0  0  0  0  0  0  0  0  0
    9.2512    4.2713   13.7653 O   0  0  0  0  0  0  0  0  0  0  0  0
    9.6495    8.6317   16.8332 N   0  0  0  0  0  0  0  0  0  0  0  0
    6.2934    8.6988   23.1988 O   0  0  0  0  0  0  0  0  0  0  0  0
    7.9806    8.6543   20.5437 C   0  0  0  0  0  0  0  0  0  0  0  0
   13.7270    5.7144   19.8610 O   0  0  0  0  0  0  0  0  0  0  0  0
    8.3351    5.5235   15.4478 C   0  0  0  0  0  0  0  0  0  0  0  0
    8.7700    7.8434   21.3915 C   0  0  0  0  0  0  0  0  0  0  0  0
   11.7856    6.8851   19.2401 C   0  0  0  0  0  0  0  0  0  0  0  0
   10.5281    7.4276   19.5649 C   0  0  0  0  0  0  0  0  0  0  0  0
   10.0256    7.2907   20.8484 C   0  0  0  0  0  0  0  0  0  0  0  0
    9.3113    5.3049   14.4911 C   0  0  0  0  0  0  0  0  0  0  0  0
    9.4607    7.5646   16.0139 C   0  0  0  0  0  0  0  0  0  0  0  0
   10.4192    7.3157   15.0955 C   0  0  0  0  0  0  0  0  0  0  0  0
   10.2489    6.4227   23.0218 N   0  0  0  0  0  0  0  0  0  0  0  0
    7.2472    8.0746   23.5050 C   0  0  0  0  0  0  0  0  0  0  0  0
    9.2051    6.9101   23.4604 C   0  0  0  0  0  0  0  0  0  0  0  0
   11.9646    6.0299   21.4251 C   0  0  0  0  0  0  0  0  0  0  0  0
  1  5  1  0
  1 13  1  0
  2 20  2  0
  2 28  1  0
  2 29  1  0
  3 19  4  0
  3 25  4  0
  4 23  4  0
  4 27  1  0
  4 30  4  0
  5 17  1  0
  6  8  1  0
  6 29  1  0
  7 24  4  0
  7 26  4  0
  8 28  1  0
  9 13  2  0
 10 18  1  0
 10 21  4  0
 10 30  4  0
 11 17  2  0
 12 18  1  0
 13 15  1  0
 14 24  1  0
 15 25  1  0
 16 28  2  0
 17 20  1  0
 19 24  4  0
 20 23  1  0
 21 22  4  0
 22 23  4  0
 25 26  4  0
 27 29  2  0
M  END
$$$$

 Created by Python create_sdf_string function

 30 33  0  0  0  0  0  0  0  0999 V2000
    8.3036    9.8571   18.4133 C   0  0  0  0  0  0  0  0  0  0  0  0
    8.3694    7.6612   22.6703 C   0  0  0  0  0  0  0  0  0  0  0  0
    8.4143    6.6863   16.2273 C   0  0  0  0  0  0  0  0  0  0  0  0
   10.7581    6.5674   21.7636 C   0  0  0  0  0  0  0  0  0  0  0  0
    8.4452    8.7960   19.2958 O   0  0  0  0  0  0  0  0  0  0  0  0
    8.7122    6.7842   24.8569 C   0  0  0  0  0  0  0  0  0  0  0  0
   10.3400    6.1726   14.3081 C   0  0  0  0  0  0  0  0  0  0  0  0
    7.4297    7.5873   24.8962 C   0  0  0  0  0  0  0  0  0  0  0  0
    8.1566   10.0536   16.0516 O   0  0  0  0  0  0  0  0  0  0  0  0
   12.4989    6.2074   20.1776 C   0  0  0  0  0  0  0  0  0  0  0  0
    6.9192    9.1053   20.9073 O   0  0  0  0  0  0  0  0  0  0  0  0
   14.3979    6.0729   18.7784 C   0  0  0  0  0  0  0  0  0  0  0  0
    8.6811    9.5354   16.9998 C   0  0  0  0  0  0  0  0  0  0  0  0
    9.2512    4.2713   13.7653 O   0  0  0  0  0  0  0  0  0  0  0  0
    9.6495    8.6317   16.8332 N   0  0  0  0  0  0  0  0  0  0  0  0
    6.2934    8.6988   23.1988 O   0  0  0  0  0  0  0  0  0  0  0  0
    7.9806    8.6543   20.5437 C   0  0  0  0  0  0  0  0  0  0  0  0
   13.7270    5.7144   19.8610 O   0  0  0  0  0  0  0  0  0  0  0  0
    8.3351    5.5235   15.4478 C   0  0  0  0  0  0  0  0  0  0  0  0
    8.7700    7.8434   21.3915 C   0  0  0  0  0  0  0  0  0  0  0  0
   11.7856    6.8851   19.2401 C   0  0  0  0  0  0  0  0  0  0  0  0
   10.5281    7.4276   19.5649 C   0  0  0  0  0  0  0  0  0  0  0  0
   10.0256    7.2907   20.8484 C   0  0  0  0  0  0  0  0  0  0  0  0
    9.3113    5.3049   14.4911 C   0  0  0  0  0  0  0  0  0  0  0  0
    9.4607    7.5646   16.0139 C   0  0  0  0  0  0  0  0  0  0  0  0
   10.4192    7.3157   15.0955 C   0  0  0  0  0  0  0  0  0  0  0  0
   10.2489    6.4227   23.0218 N   0  0  0  0  0  0  0  0  0  0  0  0
    7.2472    8.0746   23.5050 C   0  0  0  0  0  0  0  0  0  0  0  0
    9.2051    6.9101   23.4604 C   0  0  0  0  0  0  0  0  0  0  0  0
   11.9646    6.0299   21.4251 C   0  0  0  0  0  0  0  0  0  0  0  0
  1  5  1  0
  1 13  1  0
  2 20  2  0
  2 28  1  0
  2 29  1  0
  3 19  4  0
  3 25  4  0
  4 23  4  0
  4 27  1  0
  4 30  4  0
  5 17  1  0
  6  8  1  0
  6 29  1  0
  7 24  4  0
  7 26  4  0
  8 28  1  0
  9 13  2  0
 10 18  1  0
 10 21  4  0
 10 30  4  0
 11 17  2  0
 12 18  1  0
 13 15  1  0
 14 24  1  0
 15 25  1  0
 16 28  2  0
 17 20  1  0
 19 24  4  0
 20 23  1  0
 21 22  4  0
 22 23  4  0
 25 26  4  0
 27 29  2  0
M  END
$$$$

 Created by Python create_sdf_string function

 30 33  0  0  0  0  0  0  0  0999 V2000
    8.3036    9.8571   18.4133 C   0  0  0  0  0  0  0  0  0  0  0  0
    8.3694    7.6612   22.6703 C   0  0  0  0  0  0  0  0  0  0  0  0
    8.4143    6.6863   16.2273 C   0  0  0  0  0  0  0  0  0  0  0  0
   10.7581    6.5674   21.7636 C   0  0  0  0  0  0  0  0  0  0  0  0
    8.4452    8.7960   19.2958 O   0  0  0  0  0  0  0  0  0  0  0  0
    8.7122    6.7842   24.8569 C   0  0  0  0  0  0  0  0  0  0  0  0
   10.3400    6.1726   14.3081 C   0  0  0  0  0  0  0  0  0  0  0  0
    7.4297    7.5873   24.8962 C   0  0  0  0  0  0  0  0  0  0  0  0
    8.1566   10.0536   16.0516 O   0  0  0  0  0  0  0  0  0  0  0  0
   12.4989    6.2074   20.1776 C   0  0  0  0  0  0  0  0  0  0  0  0
    6.9192    9.1053   20.9073 O   0  0  0  0  0  0  0  0  0  0  0  0
   14.3979    6.0729   18.7784 C   0  0  0  0  0  0  0  0  0  0  0  0
    8.6811    9.5354   16.9998 C   0  0  0  0  0  0  0  0  0  0  0  0
    9.2512    4.2713   13.7653 O   0  0  0  0  0  0  0  0  0  0  0  0
    9.6495    8.6317   16.8332 N   0  0  0  0  0  0  0  0  0  0  0  0
    6.2934    8.6988   23.1988 O   0  0  0  0  0  0  0  0  0  0  0  0
    7.9806    8.6543   20.5437 C   0  0  0  0  0  0  0  0  0  0  0  0
   13.7270    5.7144   19.8610 O   0  0  0  0  0  0  0  0  0  0  0  0
    8.3351    5.5235   15.4478 C   0  0  0  0  0  0  0  0  0  0  0  0
    8.7700    7.8434   21.3915 C   0  0  0  0  0  0  0  0  0  0  0  0
   11.7856    6.8851   19.2401 C   0  0  0  0  0  0  0  0  0  0  0  0
   10.5281    7.4276   19.5649 C   0  0  0  0  0  0  0  0  0  0  0  0
   10.0256    7.2907   20.8484 C   0  0  0  0  0  0  0  0  0  0  0  0
    9.3113    5.3049   14.4911 C   0  0  0  0  0  0  0  0  0  0  0  0
    9.4607    7.5646   16.0139 C   0  0  0  0  0  0  0  0  0  0  0  0
   10.4192    7.3157   15.0955 C   0  0  0  0  0  0  0  0  0  0  0  0
   10.2489    6.4227   23.0218 N   0  0  0  0  0  0  0  0  0  0  0  0
    7.2472    8.0746   23.5050 C   0  0  0  0  0  0  0  0  0  0  0  0
    9.2051    6.9101   23.4604 C   0  0  0  0  0  0  0  0  0  0  0  0
   11.9646    6.0299   21.4251 C   0  0  0  0  0  0  0  0  0  0  0  0
  1  5  1  0
  1 13  1  0
  2 20  2  0
  2 28  1  0
  2 29  1  0
  3 19  4  0
  3 25  4  0
  4 23  4  0
  4 27  1  0
  4 30  4  0
  5 17  1  0
  6  8  1  0
  6 29  1  0
  7 24  4  0
  7 26  4  0
  8 28  1  0
  9 13  2  0
 10 18  1  0
 10 21  4  0
 10 30  4  0
 11 17  2  0
 12 18  1  0
 13 15  1  0
 14 24  1  0
 15 25  1  0
 16 28  2  0
 17 20  1  0
 19 24  4  0
 20 23  1  0
 21 22  4  0
 22 23  4  0
 25 26  4  0
 27 29  2  0
M  END
$$$$

 Created by Python create_sdf_string function

 30 33  0  0  0  0  0  0  0  0999 V2000
    8.3036    9.8571   18.4133 C   0  0  0  0  0  0  0  0  0  0  0  0
    8.3694    7.6612   22.6703 C   0  0  0  0  0  0  0  0  0  0  0  0
    8.4143    6.6863   16.2273 C   0  0  0  0  0  0  0  0  0  0  0  0
   10.7581    6.5674   21.7636 C   0  0  0  0  0  0  0  0  0  0  0  0
    8.4452    8.7960   19.2958 O   0  0  0  0  0  0  0  0  0  0  0  0
    8.7122    6.7842   24.8569 C   0  0  0  0  0  0  0  0  0  0  0  0
   10.3400    6.1726   14.3081 C   0  0  0  0  0  0  0  0  0  0  0  0
    7.4297    7.5873   24.8962 C   0  0  0  0  0  0  0  0  0  0  0  0
    8.1566   10.0536   16.0516 O   0  0  0  0  0  0  0  0  0  0  0  0
   12.4989    6.2074   20.1776 C   0  0  0  0  0  0  0  0  0  0  0  0
    6.9192    9.1053   20.9073 O   0  0  0  0  0  0  0  0  0  0  0  0
   14.3979    6.0729   18.7784 C   0  0  0  0  0  0  0  0  0  0  0  0
    8.6811    9.5354   16.9998 C   0  0  0  0  0  0  0  0  0  0  0  0
    9.2512    4.2713   13.7653 O   0  0  0  0  0  0  0  0  0  0  0  0
    9.6495    8.6317   16.8332 N   0  0  0  0  0  0  0  0  0  0  0  0
    6.2934    8.6988   23.1988 O   0  0  0  0  0  0  0  0  0  0  0  0
    7.9806    8.6543   20.5437 C   0  0  0  0  0  0  0  0  0  0  0  0
   13.7270    5.7144   19.8610 O   0  0  0  0  0  0  0  0  0  0  0  0
    8.3351    5.5235   15.4478 C   0  0  0  0  0  0  0  0  0  0  0  0
    8.7700    7.8434   21.3915 C   0  0  0  0  0  0  0  0  0  0  0  0
   11.7856    6.8851   19.2401 C   0  0  0  0  0  0  0  0  0  0  0  0
   10.5281    7.4276   19.5649 C   0  0  0  0  0  0  0  0  0  0  0  0
   10.0256    7.2907   20.8484 C   0  0  0  0  0  0  0  0  0  0  0  0
    9.3113    5.3049   14.4911 C   0  0  0  0  0  0  0  0  0  0  0  0
    9.4607    7.5646   16.0139 C   0  0  0  0  0  0  0  0  0  0  0  0
   10.4192    7.3157   15.0955 C   0  0  0  0  0  0  0  0  0  0  0  0
   10.2489    6.4227   23.0218 N   0  0  0  0  0  0  0  0  0  0  0  0
    7.2472    8.0746   23.5050 C   0  0  0  0  0  0  0  0  0  0  0  0
    9.2051    6.9101   23.4604 C   0  0  0  0  0  0  0  0  0  0  0  0
   11.9646    6.0299   21.4251 C   0  0  0  0  0  0  0  0  0  0  0  0
  1  5  1  0
  1 13  1  0
  2 20  2  0
  2 28  1  0
  2 29  1  0
  3 19  4  0
  3 25  4  0
  4 23  4  0
  4 27  1  0
  4 30  4  0
  5 17  1  0
  6  8  1  0
  6 29  1  0
  7 24  4  0
  7 26  4  0
  8 28  1  0
  9 13  2  0
 10 18  1  0
 10 21  4  0
 10 30  4  0
 11 17  2  0
 12 18  1  0
 13 15  1  0
 14 24  1  0
 15 25  1  0
 16 28  2  0
 17 20  1  0
 19 24  4  0
 20 23  1  0
 21 22  4  0
 22 23  4  0
 25 26  4  0
 27 29  2  0
M  END
$$$$

 Created by Python create_sdf_string function

 30 33  0  0  0  0  0  0  0  0999 V2000
    8.3036    9.8571   18.4133 C   0  0  0  0  0  0  0  0  0  0  0  0
    8.3694    7.6612   22.6703 C   0  0  0  0  0  0  0  0  0  0  0  0
    8.4143    6.6863   16.2273 C   0  0  0  0  0  0  0  0  0  0  0  0
   10.7581    6.5674   21.7636 C   0  0  0  0  0  0  0  0  0  0  0  0
    8.4452    8.7960   19.2958 O   0  0  0  0  0  0  0  0  0  0  0  0
    8.7122    6.7842   24.8569 C   0  0  0  0  0  0  0  0  0  0  0  0
   10.3400    6.1726   14.3081 C   0  0  0  0  0  0  0  0  0  0  0  0
    7.4297    7.5873   24.8962 C   0  0  0  0  0  0  0  0  0  0  0  0
    8.1566   10.0536   16.0516 O   0  0  0  0  0  0  0  0  0  0  0  0
   12.4989    6.2074   20.1776 C   0  0  0  0  0  0  0  0  0  0  0  0
    6.9192    9.1053   20.9073 O   0  0  0  0  0  0  0  0  0  0  0  0
   14.3979    6.0729   18.7784 C   0  0  0  0  0  0  0  0  0  0  0  0
    8.6811    9.5354   16.9998 C   0  0  0  0  0  0  0  0  0  0  0  0
    9.2512    4.2713   13.7653 O   0  0  0  0  0  0  0  0  0  0  0  0
    9.6495    8.6317   16.8332 N   0  0  0  0  0  0  0  0  0  0  0  0
    6.2934    8.6988   23.1988 O   0  0  0  0  0  0  0  0  0  0  0  0
    7.9806    8.6543   20.5437 C   0  0  0  0  0  0  0  0  0  0  0  0
   13.7270    5.7144   19.8610 O   0  0  0  0  0  0  0  0  0  0  0  0
    8.3351    5.5235   15.4478 C   0  0  0  0  0  0  0  0  0  0  0  0
    8.7700    7.8434   21.3915 C   0  0  0  0  0  0  0  0  0  0  0  0
   11.7856    6.8851   19.2401 C   0  0  0  0  0  0  0  0  0  0  0  0
   10.5281    7.4276   19.5649 C   0  0  0  0  0  0  0  0  0  0  0  0
   10.0256    7.2907   20.8484 C   0  0  0  0  0  0  0  0  0  0  0  0
    9.3113    5.3049   14.4911 C   0  0  0  0  0  0  0  0  0  0  0  0
    9.4607    7.5646   16.0139 C   0  0  0  0  0  0  0  0  0  0  0  0
   10.4192    7.3157   15.0955 C   0  0  0  0  0  0  0  0  0  0  0  0
   10.2489    6.4227   23.0218 N   0  0  0  0  0  0  0  0  0  0  0  0
    7.2472    8.0746   23.5050 C   0  0  0  0  0  0  0  0  0  0  0  0
    9.2051    6.9101   23.4604 C   0  0  0  0  0  0  0  0  0  0  0  0
   11.9646    6.0299   21.4251 C   0  0  0  0  0  0  0  0  0  0  0  0
  1  5  1  0
  1 13  1  0
  2 20  2  0
  2 28  1  0
  2 29  1  0
  3 19  4  0
  3 25  4  0
  4 23  4  0
  4 27  1  0
  4 30  4  0
  5 17  1  0
  6  8  1  0
  6 29  1  0
  7 24  4  0
  7 26  4  0
  8 28  1  0
  9 13  2  0
 10 18  1  0
 10 21  4  0
 10 30  4  0
 11 17  2  0
 12 18  1  0
 13 15  1  0
 14 24  1  0
 15 25  1  0
 16 28  2  0
 17 20  1  0
 19 24  4  0
 20 23  1  0
 21 22  4  0
 22 23  4  0
 25 26  4  0
 27 29  2  0
M  END
$$$$

 Created by Python create_sdf_string function

 30 33  0  0  0  0  0  0  0  0999 V2000
    8.3036    9.8571   18.4133 C   0  0  0  0  0  0  0  0  0  0  0  0
    8.3694    7.6612   22.6703 C   0  0  0  0  0  0  0  0  0  0  0  0
    8.4143    6.6863   16.2273 C   0  0  0  0  0  0  0  0  0  0  0  0
   10.7581    6.5674   21.7636 C   0  0  0  0  0  0  0  0  0  0  0  0
    8.4452    8.7960   19.2958 O   0  0  0  0  0  0  0  0  0  0  0  0
    8.7122    6.7842   24.8569 C   0  0  0  0  0  0  0  0  0  0  0  0
   10.3400    6.1726   14.3081 C   0  0  0  0  0  0  0  0  0  0  0  0
    7.4297    7.5873   24.8962 C   0  0  0  0  0  0  0  0  0  0  0  0
    8.1566   10.0536   16.0516 O   0  0  0  0  0  0  0  0  0  0  0  0
   12.4989    6.2074   20.1776 C   0  0  0  0  0  0  0  0  0  0  0  0
    6.9192    9.1053   20.9073 O   0  0  0  0  0  0  0  0  0  0  0  0
   14.3979    6.0729   18.7784 C   0  0  0  0  0  0  0  0  0  0  0  0
    8.6811    9.5354   16.9998 C   0  0  0  0  0  0  0  0  0  0  0  0
    9.2512    4.2713   13.7653 O   0  0  0  0  0  0  0  0  0  0  0  0
    9.6495    8.6317   16.8332 N   0  0  0  0  0  0  0  0  0  0  0  0
    6.2934    8.6988   23.1988 O   0  0  0  0  0  0  0  0  0  0  0  0
    7.9806    8.6543   20.5437 C   0  0  0  0  0  0  0  0  0  0  0  0
   13.7270    5.7144   19.8610 O   0  0  0  0  0  0  0  0  0  0  0  0
    8.3351    5.5235   15.4478 C   0  0  0  0  0  0  0  0  0  0  0  0
    8.7700    7.8434   21.3915 C   0  0  0  0  0  0  0  0  0  0  0  0
   11.7856    6.8851   19.2401 C   0  0  0  0  0  0  0  0  0  0  0  0
   10.5281    7.4276   19.5649 C   0  0  0  0  0  0  0  0  0  0  0  0
   10.0256    7.2907   20.8484 C   0  0  0  0  0  0  0  0  0  0  0  0
    9.3113    5.3049   14.4911 C   0  0  0  0  0  0  0  0  0  0  0  0
    9.4607    7.5646   16.0139 C   0  0  0  0  0  0  0  0  0  0  0  0
   10.4192    7.3157   15.0955 C   0  0  0  0  0  0  0  0  0  0  0  0
   10.2489    6.4227   23.0218 N   0  0  0  0  0  0  0  0  0  0  0  0
    7.2472    8.0746   23.5050 C   0  0  0  0  0  0  0  0  0  0  0  0
    9.2051    6.9101   23.4604 C   0  0  0  0  0  0  0  0  0  0  0  0
   11.9646    6.0299   21.4251 C   0  0  0  0  0  0  0  0  0  0  0  0
  1  5  1  0
  1 13  1  0
  2 20  2  0
  2 28  1  0
  2 29  1  0
  3 19  4  0
  3 25  4  0
  4 23  4  0
  4 27  1  0
  4 30  4  0
  5 17  1  0
  6  8  1  0
  6 29  1  0
  7 24  4  0
  7 26  4  0
  8 28  1  0
  9 13  2  0
 10 18  1  0
 10 21  4  0
 10 30  4  0
 11 17  2  0
 12 18  1  0
 13 15  1  0
 14 24  1  0
 15 25  1  0
 16 28  2  0
 17 20  1  0
 19 24  4  0
 20 23  1  0
 21 22  4  0
 22 23  4  0
 25 26  4  0
 27 29  2  0
M  END
$$$$

 Created by Python create_sdf_string function

 30 33  0  0  0  0  0  0  0  0999 V2000
    8.3036    9.8571   18.4133 C   0  0  0  0  0  0  0  0  0  0  0  0
    8.3694    7.6612   22.6703 C   0  0  0  0  0  0  0  0  0  0  0  0
    8.4143    6.6863   16.2273 C   0  0  0  0  0  0  0  0  0  0  0  0
   10.7581    6.5674   21.7636 C   0  0  0  0  0  0  0  0  0  0  0  0
    8.4452    8.7960   19.2958 O   0  0  0  0  0  0  0  0  0  0  0  0
    8.7122    6.7842   24.8569 C   0  0  0  0  0  0  0  0  0  0  0  0
   10.3400    6.1726   14.3081 C   0  0  0  0  0  0  0  0  0  0  0  0
    7.4297    7.5873   24.8962 C   0  0  0  0  0  0  0  0  0  0  0  0
    8.1566   10.0536   16.0516 O   0  0  0  0  0  0  0  0  0  0  0  0
   12.4989    6.2074   20.1776 C   0  0  0  0  0  0  0  0  0  0  0  0
    6.9192    9.1053   20.9073 O   0  0  0  0  0  0  0  0  0  0  0  0
   14.3979    6.0729   18.7784 C   0  0  0  0  0  0  0  0  0  0  0  0
    8.6811    9.5354   16.9998 C   0  0  0  0  0  0  0  0  0  0  0  0
    9.2512    4.2713   13.7653 O   0  0  0  0  0  0  0  0  0  0  0  0
    9.6495    8.6317   16.8332 N   0  0  0  0  0  0  0  0  0  0  0  0
    6.2934    8.6988   23.1988 O   0  0  0  0  0  0  0  0  0  0  0  0
    7.9806    8.6543   20.5437 C   0  0  0  0  0  0  0  0  0  0  0  0
   13.7270    5.7144   19.8610 O   0  0  0  0  0  0  0  0  0  0  0  0
    8.3351    5.5235   15.4478 C   0  0  0  0  0  0  0  0  0  0  0  0
    8.7700    7.8434   21.3915 C   0  0  0  0  0  0  0  0  0  0  0  0
   11.7856    6.8851   19.2401 C   0  0  0  0  0  0  0  0  0  0  0  0
   10.5281    7.4276   19.5649 C   0  0  0  0  0  0  0  0  0  0  0  0
   10.0256    7.2907   20.8484 C   0  0  0  0  0  0  0  0  0  0  0  0
    9.3113    5.3049   14.4911 C   0  0  0  0  0  0  0  0  0  0  0  0
    9.4607    7.5646   16.0139 C   0  0  0  0  0  0  0  0  0  0  0  0
   10.4192    7.3157   15.0955 C   0  0  0  0  0  0  0  0  0  0  0  0
   10.2489    6.4227   23.0218 N   0  0  0  0  0  0  0  0  0  0  0  0
    7.2472    8.0746   23.5050 C   0  0  0  0  0  0  0  0  0  0  0  0
    9.2051    6.9101   23.4604 C   0  0  0  0  0  0  0  0  0  0  0  0
   11.9646    6.0299   21.4251 C   0  0  0  0  0  0  0  0  0  0  0  0
  1  5  1  0
  1 13  1  0
  2 20  2  0
  2 28  1  0
  2 29  1  0
  3 19  4  0
  3 25  4  0
  4 23  4  0
  4 27  1  0
  4 30  4  0
  5 17  1  0
  6  8  1  0
  6 29  1  0
  7 24  4  0
  7 26  4  0
  8 28  1  0
  9 13  2  0
 10 18  1  0
 10 21  4  0
 10 30  4  0
 11 17  2  0
 12 18  1  0
 13 15  1  0
 14 24  1  0
 15 25  1  0
 16 28  2  0
 17 20  1  0
 19 24  4  0
 20 23  1  0
 21 22  4  0
 22 23  4  0
 25 26  4  0
 27 29  2  0
M  END
$$$$

 Created by Python create_sdf_string function

 30 33  0  0  0  0  0  0  0  0999 V2000
    8.3036    9.8571   18.4133 C   0  0  0  0  0  0  0  0  0  0  0  0
    8.3694    7.6612   22.6703 C   0  0  0  0  0  0  0  0  0  0  0  0
    8.4143    6.6863   16.2273 C   0  0  0  0  0  0  0  0  0  0  0  0
   10.7581    6.5674   21.7636 C   0  0  0  0  0  0  0  0  0  0  0  0
    8.4452    8.7960   19.2958 O   0  0  0  0  0  0  0  0  0  0  0  0
    8.7122    6.7842   24.8569 C   0  0  0  0  0  0  0  0  0  0  0  0
   10.3400    6.1726   14.3081 C   0  0  0  0  0  0  0  0  0  0  0  0
    7.4297    7.5873   24.8962 C   0  0  0  0  0  0  0  0  0  0  0  0
    8.1566   10.0536   16.0516 O   0  0  0  0  0  0  0  0  0  0  0  0
   12.4989    6.2074   20.1776 C   0  0  0  0  0  0  0  0  0  0  0  0
    6.9192    9.1053   20.9073 O   0  0  0  0  0  0  0  0  0  0  0  0
   14.3979    6.0729   18.7784 C   0  0  0  0  0  0  0  0  0  0  0  0
    8.6811    9.5354   16.9998 C   0  0  0  0  0  0  0  0  0  0  0  0
    9.2512    4.2713   13.7653 O   0  0  0  0  0  0  0  0  0  0  0  0
    9.6495    8.6317   16.8332 N   0  0  0  0  0  0  0  0  0  0  0  0
    6.2934    8.6988   23.1988 O   0  0  0  0  0  0  0  0  0  0  0  0
    7.9806    8.6543   20.5437 C   0  0  0  0  0  0  0  0  0  0  0  0
   13.7270    5.7144   19.8610 O   0  0  0  0  0  0  0  0  0  0  0  0
    8.3351    5.5235   15.4478 C   0  0  0  0  0  0  0  0  0  0  0  0
    8.7700    7.8434   21.3915 C   0  0  0  0  0  0  0  0  0  0  0  0
   11.7856    6.8851   19.2401 C   0  0  0  0  0  0  0  0  0  0  0  0
   10.5281    7.4276   19.5649 C   0  0  0  0  0  0  0  0  0  0  0  0
   10.0256    7.2907   20.8484 C   0  0  0  0  0  0  0  0  0  0  0  0
    9.3113    5.3049   14.4911 C   0  0  0  0  0  0  0  0  0  0  0  0
    9.4607    7.5646   16.0139 C   0  0  0  0  0  0  0  0  0  0  0  0
   10.4192    7.3157   15.0955 C   0  0  0  0  0  0  0  0  0  0  0  0
   10.2489    6.4227   23.0218 N   0  0  0  0  0  0  0  0  0  0  0  0
    7.2472    8.0746   23.5050 C   0  0  0  0  0  0  0  0  0  0  0  0
    9.2051    6.9101   23.4604 C   0  0  0  0  0  0  0  0  0  0  0  0
   11.9646    6.0299   21.4251 C   0  0  0  0  0  0  0  0  0  0  0  0
  1  5  1  0
  1 13  1  0
  2 20  2  0
  2 28  1  0
  2 29  1  0
  3 19  4  0
  3 25  4  0
  4 23  4  0
  4 27  1  0
  4 30  4  0
  5 17  1  0
  6  8  1  0
  6 29  1  0
  7 24  4  0
  7 26  4  0
  8 28  1  0
  9 13  2  0
 10 18  1  0
 10 21  4  0
 10 30  4  0
 11 17  2  0
 12 18  1  0
 13 15  1  0
 14 24  1  0
 15 25  1  0
 16 28  2  0
 17 20  1  0
 19 24  4  0
 20 23  1  0
 21 22  4  0
 22 23  4  0
 25 26  4  0
 27 29  2  0
M  END
$$$$

 Created by Python create_sdf_string function

 30 33  0  0  0  0  0  0  0  0999 V2000
    8.3036    9.8571   18.4133 C   0  0  0  0  0  0  0  0  0  0  0  0
    8.3694    7.6612   22.6703 C   0  0  0  0  0  0  0  0  0  0  0  0
    8.4143    6.6863   16.2273 C   0  0  0  0  0  0  0  0  0  0  0  0
   10.7581    6.5674   21.7636 C   0  0  0  0  0  0  0  0  0  0  0  0
    8.4452    8.7960   19.2958 O   0  0  0  0  0  0  0  0  0  0  0  0
    8.7122    6.7842   24.8569 C   0  0  0  0  0  0  0  0  0  0  0  0
   10.3400    6.1726   14.3081 C   0  0  0  0  0  0  0  0  0  0  0  0
    7.4297    7.5873   24.8962 C   0  0  0  0  0  0  0  0  0  0  0  0
    8.1566   10.0536   16.0516 O   0  0  0  0  0  0  0  0  0  0  0  0
   12.4989    6.2074   20.1776 C   0  0  0  0  0  0  0  0  0  0  0  0
    6.9192    9.1053   20.9073 O   0  0  0  0  0  0  0  0  0  0  0  0
   14.3979    6.0729   18.7784 C   0  0  0  0  0  0  0  0  0  0  0  0
    8.6811    9.5354   16.9998 C   0  0  0  0  0  0  0  0  0  0  0  0
    9.2512    4.2713   13.7653 O   0  0  0  0  0  0  0  0  0  0  0  0
    9.6495    8.6317   16.8332 N   0  0  0  0  0  0  0  0  0  0  0  0
    6.2934    8.6988   23.1988 O   0  0  0  0  0  0  0  0  0  0  0  0
    7.9806    8.6543   20.5437 C   0  0  0  0  0  0  0  0  0  0  0  0
   13.7270    5.7144   19.8610 O   0  0  0  0  0  0  0  0  0  0  0  0
    8.3351    5.5235   15.4478 C   0  0  0  0  0  0  0  0  0  0  0  0
    8.7700    7.8434   21.3915 C   0  0  0  0  0  0  0  0  0  0  0  0
   11.7856    6.8851   19.2401 C   0  0  0  0  0  0  0  0  0  0  0  0
   10.5281    7.4276   19.5649 C   0  0  0  0  0  0  0  0  0  0  0  0
   10.0256    7.2907   20.8484 C   0  0  0  0  0  0  0  0  0  0  0  0
    9.3113    5.3049   14.4911 C   0  0  0  0  0  0  0  0  0  0  0  0
    9.4607    7.5646   16.0139 C   0  0  0  0  0  0  0  0  0  0  0  0
   10.4192    7.3157   15.0955 C   0  0  0  0  0  0  0  0  0  0  0  0
   10.2489    6.4227   23.0218 N   0  0  0  0  0  0  0  0  0  0  0  0
    7.2472    8.0746   23.5050 C   0  0  0  0  0  0  0  0  0  0  0  0
    9.2051    6.9101   23.4604 C   0  0  0  0  0  0  0  0  0  0  0  0
   11.9646    6.0299   21.4251 C   0  0  0  0  0  0  0  0  0  0  0  0
  1  5  1  0
  1 13  1  0
  2 20  2  0
  2 28  1  0
  2 29  1  0
  3 19  4  0
  3 25  4  0
  4 23  4  0
  4 27  1  0
  4 30  4  0
  5 17  1  0
  6  8  1  0
  6 29  1  0
  7 24  4  0
  7 26  4  0
  8 28  1  0
  9 13  2  0
 10 18  1  0
 10 21  4  0
 10 30  4  0
 11 17  2  0
 12 18  1  0
 13 15  1  0
 14 24  1  0
 15 25  1  0
 16 28  2  0
 17 20  1  0
 19 24  4  0
 20 23  1  0
 21 22  4  0
 22 23  4  0
 25 26  4  0
 27 29  2  0
M  END
$$$$

 Created by Python create_sdf_string function

 30 33  0  0  0  0  0  0  0  0999 V2000
    8.3036    9.8571   18.4133 C   0  0  0  0  0  0  0  0  0  0  0  0
    8.3694    7.6612   22.6703 C   0  0  0  0  0  0  0  0  0  0  0  0
    8.4143    6.6863   16.2273 C   0  0  0  0  0  0  0  0  0  0  0  0
   10.7581    6.5674   21.7636 C   0  0  0  0  0  0  0  0  0  0  0  0
    8.4452    8.7960   19.2958 O   0  0  0  0  0  0  0  0  0  0  0  0
    8.7122    6.7842   24.8569 C   0  0  0  0  0  0  0  0  0  0  0  0
   10.3400    6.1726   14.3081 C   0  0  0  0  0  0  0  0  0  0  0  0
    7.4297    7.5873   24.8962 C   0  0  0  0  0  0  0  0  0  0  0  0
    8.1566   10.0536   16.0516 O   0  0  0  0  0  0  0  0  0  0  0  0
   12.4989    6.2074   20.1776 C   0  0  0  0  0  0  0  0  0  0  0  0
    6.9192    9.1053   20.9073 O   0  0  0  0  0  0  0  0  0  0  0  0
   14.3979    6.0729   18.7784 C   0  0  0  0  0  0  0  0  0  0  0  0
    8.6811    9.5354   16.9998 C   0  0  0  0  0  0  0  0  0  0  0  0
    9.2512    4.2713   13.7653 O   0  0  0  0  0  0  0  0  0  0  0  0
    9.6495    8.6317   16.8332 N   0  0  0  0  0  0  0  0  0  0  0  0
    6.2934    8.6988   23.1988 O   0  0  0  0  0  0  0  0  0  0  0  0
    7.9806    8.6543   20.5437 C   0  0  0  0  0  0  0  0  0  0  0  0
   13.7270    5.7144   19.8610 O   0  0  0  0  0  0  0  0  0  0  0  0
    8.3351    5.5235   15.4478 C   0  0  0  0  0  0  0  0  0  0  0  0
    8.7700    7.8434   21.3915 C   0  0  0  0  0  0  0  0  0  0  0  0
   11.7856    6.8851   19.2401 C   0  0  0  0  0  0  0  0  0  0  0  0
   10.5281    7.4276   19.5649 C   0  0  0  0  0  0  0  0  0  0  0  0
   10.0256    7.2907   20.8484 C   0  0  0  0  0  0  0  0  0  0  0  0
    9.3113    5.3049   14.4911 C   0  0  0  0  0  0  0  0  0  0  0  0
    9.4607    7.5646   16.0139 C   0  0  0  0  0  0  0  0  0  0  0  0
   10.4192    7.3157   15.0955 C   0  0  0  0  0  0  0  0  0  0  0  0
   10.2489    6.4227   23.0218 N   0  0  0  0  0  0  0  0  0  0  0  0
    7.2472    8.0746   23.5050 C   0  0  0  0  0  0  0  0  0  0  0  0
    9.2051    6.9101   23.4604 C   0  0  0  0  0  0  0  0  0  0  0  0
   11.9646    6.0299   21.4251 C   0  0  0  0  0  0  0  0  0  0  0  0
  1  5  1  0
  1 13  1  0
  2 20  2  0
  2 28  1  0
  2 29  1  0
  3 19  4  0
  3 25  4  0
  4 23  4  0
  4 27  1  0
  4 30  4  0
  5 17  1  0
  6  8  1  0
  6 29  1  0
  7 24  4  0
  7 26  4  0
  8 28  1  0
  9 13  2  0
 10 18  1  0
 10 21  4  0
 10 30  4  0
 11 17  2  0
 12 18  1  0
 13 15  1  0
 14 24  1  0
 15 25  1  0
 16 28  2  0
 17 20  1  0
 19 24  4  0
 20 23  1  0
 21 22  4  0
 22 23  4  0
 25 26  4  0
 27 29  2  0
M  END
$$$$

 Created by Python create_sdf_string function

 30 33  0  0  0  0  0  0  0  0999 V2000
    8.3036    9.8571   18.4133 C   0  0  0  0  0  0  0  0  0  0  0  0
    8.3694    7.6612   22.6703 C   0  0  0  0  0  0  0  0  0  0  0  0
    8.4143    6.6863   16.2273 C   0  0  0  0  0  0  0  0  0  0  0  0
   10.7581    6.5674   21.7636 C   0  0  0  0  0  0  0  0  0  0  0  0
    8.4452    8.7960   19.2958 O   0  0  0  0  0  0  0  0  0  0  0  0
    8.7122    6.7842   24.8569 C   0  0  0  0  0  0  0  0  0  0  0  0
   10.3400    6.1726   14.3081 C   0  0  0  0  0  0  0  0  0  0  0  0
    7.4297    7.5873   24.8962 C   0  0  0  0  0  0  0  0  0  0  0  0
    8.1566   10.0536   16.0516 O   0  0  0  0  0  0  0  0  0  0  0  0
   12.4989    6.2074   20.1776 C   0  0  0  0  0  0  0  0  0  0  0  0
    6.9192    9.1053   20.9073 O   0  0  0  0  0  0  0  0  0  0  0  0
   14.3979    6.0729   18.7784 C   0  0  0  0  0  0  0  0  0  0  0  0
    8.6811    9.5354   16.9998 C   0  0  0  0  0  0  0  0  0  0  0  0
    9.2512    4.2713   13.7653 O   0  0  0  0  0  0  0  0  0  0  0  0
    9.6495    8.6317   16.8332 N   0  0  0  0  0  0  0  0  0  0  0  0
    6.2934    8.6988   23.1988 O   0  0  0  0  0  0  0  0  0  0  0  0
    7.9806    8.6543   20.5437 C   0  0  0  0  0  0  0  0  0  0  0  0
   13.7270    5.7144   19.8610 O   0  0  0  0  0  0  0  0  0  0  0  0
    8.3351    5.5235   15.4478 C   0  0  0  0  0  0  0  0  0  0  0  0
    8.7700    7.8434   21.3915 C   0  0  0  0  0  0  0  0  0  0  0  0
   11.7856    6.8851   19.2401 C   0  0  0  0  0  0  0  0  0  0  0  0
   10.5281    7.4276   19.5649 C   0  0  0  0  0  0  0  0  0  0  0  0
   10.0256    7.2907   20.8484 C   0  0  0  0  0  0  0  0  0  0  0  0
    9.3113    5.3049   14.4911 C   0  0  0  0  0  0  0  0  0  0  0  0
    9.4607    7.5646   16.0139 C   0  0  0  0  0  0  0  0  0  0  0  0
   10.4192    7.3157   15.0955 C   0  0  0  0  0  0  0  0  0  0  0  0
   10.2489    6.4227   23.0218 N   0  0  0  0  0  0  0  0  0  0  0  0
    7.2472    8.0746   23.5050 C   0  0  0  0  0  0  0  0  0  0  0  0
    9.2051    6.9101   23.4604 C   0  0  0  0  0  0  0  0  0  0  0  0
   11.9646    6.0299   21.4251 C   0  0  0  0  0  0  0  0  0  0  0  0
  1  5  1  0
  1 13  1  0
  2 20  2  0
  2 28  1  0
  2 29  1  0
  3 19  4  0
  3 25  4  0
  4 23  4  0
  4 27  1  0
  4 30  4  0
  5 17  1  0
  6  8  1  0
  6 29  1  0
  7 24  4  0
  7 26  4  0
  8 28  1  0
  9 13  2  0
 10 18  1  0
 10 21  4  0
 10 30  4  0
 11 17  2  0
 12 18  1  0
 13 15  1  0
 14 24  1  0
 15 25  1  0
 16 28  2  0
 17 20  1  0
 19 24  4  0
 20 23  1  0
 21 22  4  0
 22 23  4  0
 25 26  4  0
 27 29  2  0
M  END
$$$$

 Created by Python create_sdf_string function

 30 33  0  0  0  0  0  0  0  0999 V2000
    8.3036    9.8571   18.4133 C   0  0  0  0  0  0  0  0  0  0  0  0
    8.3694    7.6612   22.6703 C   0  0  0  0  0  0  0  0  0  0  0  0
    8.4143    6.6863   16.2273 C   0  0  0  0  0  0  0  0  0  0  0  0
   10.7581    6.5674   21.7636 C   0  0  0  0  0  0  0  0  0  0  0  0
    8.4452    8.7960   19.2958 O   0  0  0  0  0  0  0  0  0  0  0  0
    8.7122    6.7842   24.8569 C   0  0  0  0  0  0  0  0  0  0  0  0
   10.3400    6.1726   14.3081 C   0  0  0  0  0  0  0  0  0  0  0  0
    7.4297    7.5873   24.8962 C   0  0  0  0  0  0  0  0  0  0  0  0
    8.1566   10.0536   16.0516 O   0  0  0  0  0  0  0  0  0  0  0  0
   12.4989    6.2074   20.1776 C   0  0  0  0  0  0  0  0  0  0  0  0
    6.9192    9.1053   20.9073 O   0  0  0  0  0  0  0  0  0  0  0  0
   14.3979    6.0729   18.7784 C   0  0  0  0  0  0  0  0  0  0  0  0
    8.6811    9.5354   16.9998 C   0  0  0  0  0  0  0  0  0  0  0  0
    9.2512    4.2713   13.7653 O   0  0  0  0  0  0  0  0  0  0  0  0
    9.6495    8.6317   16.8332 N   0  0  0  0  0  0  0  0  0  0  0  0
    6.2934    8.6988   23.1988 O   0  0  0  0  0  0  0  0  0  0  0  0
    7.9806    8.6543   20.5437 C   0  0  0  0  0  0  0  0  0  0  0  0
   13.7270    5.7144   19.8610 O   0  0  0  0  0  0  0  0  0  0  0  0
    8.3351    5.5235   15.4478 C   0  0  0  0  0  0  0  0  0  0  0  0
    8.7700    7.8434   21.3915 C   0  0  0  0  0  0  0  0  0  0  0  0
   11.7856    6.8851   19.2401 C   0  0  0  0  0  0  0  0  0  0  0  0
   10.5281    7.4276   19.5649 C   0  0  0  0  0  0  0  0  0  0  0  0
   10.0256    7.2907   20.8484 C   0  0  0  0  0  0  0  0  0  0  0  0
    9.3113    5.3049   14.4911 C   0  0  0  0  0  0  0  0  0  0  0  0
    9.4607    7.5646   16.0139 C   0  0  0  0  0  0  0  0  0  0  0  0
   10.4192    7.3157   15.0955 C   0  0  0  0  0  0  0  0  0  0  0  0
   10.2489    6.4227   23.0218 N   0  0  0  0  0  0  0  0  0  0  0  0
    7.2472    8.0746   23.5050 C   0  0  0  0  0  0  0  0  0  0  0  0
    9.2051    6.9101   23.4604 C   0  0  0  0  0  0  0  0  0  0  0  0
   11.9646    6.0299   21.4251 C   0  0  0  0  0  0  0  0  0  0  0  0
  1  5  1  0
  1 13  1  0
  2 20  2  0
  2 28  1  0
  2 29  1  0
  3 19  4  0
  3 25  4  0
  4 23  4  0
  4 27  1  0
  4 30  4  0
  5 17  1  0
  6  8  1  0
  6 29  1  0
  7 24  4  0
  7 26  4  0
  8 28  1  0
  9 13  2  0
 10 18  1  0
 10 21  4  0
 10 30  4  0
 11 17  2  0
 12 18  1  0
 13 15  1  0
 14 24  1  0
 15 25  1  0
 16 28  2  0
 17 20  1  0
 19 24  4  0
 20 23  1  0
 21 22  4  0
 22 23  4  0
 25 26  4  0
 27 29  2  0
M  END
$$$$

 Created by Python create_sdf_string function

 30 33  0  0  0  0  0  0  0  0999 V2000
    8.3036    9.8571   18.4133 C   0  0  0  0  0  0  0  0  0  0  0  0
    8.3694    7.6612   22.6703 C   0  0  0  0  0  0  0  0  0  0  0  0
    8.4143    6.6863   16.2273 C   0  0  0  0  0  0  0  0  0  0  0  0
   10.7581    6.5674   21.7636 C   0  0  0  0  0  0  0  0  0  0  0  0
    8.4452    8.7960   19.2958 O   0  0  0  0  0  0  0  0  0  0  0  0
    8.7122    6.7842   24.8569 C   0  0  0  0  0  0  0  0  0  0  0  0
   10.3400    6.1726   14.3081 C   0  0  0  0  0  0  0  0  0  0  0  0
    7.4297    7.5873   24.8962 C   0  0  0  0  0  0  0  0  0  0  0  0
    8.1566   10.0536   16.0516 O   0  0  0  0  0  0  0  0  0  0  0  0
   12.4989    6.2074   20.1776 C   0  0  0  0  0  0  0  0  0  0  0  0
    6.9192    9.1053   20.9073 O   0  0  0  0  0  0  0  0  0  0  0  0
   14.3979    6.0729   18.7784 C   0  0  0  0  0  0  0  0  0  0  0  0
    8.6811    9.5354   16.9998 C   0  0  0  0  0  0  0  0  0  0  0  0
    9.2512    4.2713   13.7653 O   0  0  0  0  0  0  0  0  0  0  0  0
    9.6495    8.6317   16.8332 N   0  0  0  0  0  0  0  0  0  0  0  0
    6.2934    8.6988   23.1988 O   0  0  0  0  0  0  0  0  0  0  0  0
    7.9806    8.6543   20.5437 C   0  0  0  0  0  0  0  0  0  0  0  0
   13.7270    5.7144   19.8610 O   0  0  0  0  0  0  0  0  0  0  0  0
    8.3351    5.5235   15.4478 C   0  0  0  0  0  0  0  0  0  0  0  0
    8.7700    7.8434   21.3915 C   0  0  0  0  0  0  0  0  0  0  0  0
   11.7856    6.8851   19.2401 C   0  0  0  0  0  0  0  0  0  0  0  0
   10.5281    7.4276   19.5649 C   0  0  0  0  0  0  0  0  0  0  0  0
   10.0256    7.2907   20.8484 C   0  0  0  0  0  0  0  0  0  0  0  0
    9.3113    5.3049   14.4911 C   0  0  0  0  0  0  0  0  0  0  0  0
    9.4607    7.5646   16.0139 C   0  0  0  0  0  0  0  0  0  0  0  0
   10.4192    7.3157   15.0955 C   0  0  0  0  0  0  0  0  0  0  0  0
   10.2489    6.4227   23.0218 N   0  0  0  0  0  0  0  0  0  0  0  0
    7.2472    8.0746   23.5050 C   0  0  0  0  0  0  0  0  0  0  0  0
    9.2051    6.9101   23.4604 C   0  0  0  0  0  0  0  0  0  0  0  0
   11.9646    6.0299   21.4251 C   0  0  0  0  0  0  0  0  0  0  0  0
  1  5  1  0
  1 13  1  0
  2 20  2  0
  2 28  1  0
  2 29  1  0
  3 19  4  0
  3 25  4  0
  4 23  4  0
  4 27  1  0
  4 30  4  0
  5 17  1  0
  6  8  1  0
  6 29  1  0
  7 24  4  0
  7 26  4  0
  8 28  1  0
  9 13  2  0
 10 18  1  0
 10 21  4  0
 10 30  4  0
 11 17  2  0
 12 18  1  0
 13 15  1  0
 14 24  1  0
 15 25  1  0
 16 28  2  0
 17 20  1  0
 19 24  4  0
 20 23  1  0
 21 22  4  0
 22 23  4  0
 25 26  4  0
 27 29  2  0
M  END
$$$$

 Created by Python create_sdf_string function

 30 33  0  0  0  0  0  0  0  0999 V2000
    8.3036    9.8571   18.4133 C   0  0  0  0  0  0  0  0  0  0  0  0
    8.3694    7.6612   22.6703 C   0  0  0  0  0  0  0  0  0  0  0  0
    8.4143    6.6863   16.2273 C   0  0  0  0  0  0  0  0  0  0  0  0
   10.7581    6.5674   21.7636 C   0  0  0  0  0  0  0  0  0  0  0  0
    8.4452    8.7960   19.2958 O   0  0  0  0  0  0  0  0  0  0  0  0
    8.7122    6.7842   24.8569 C   0  0  0  0  0  0  0  0  0  0  0  0
   10.3400    6.1726   14.3081 C   0  0  0  0  0  0  0  0  0  0  0  0
    7.4297    7.5873   24.8962 C   0  0  0  0  0  0  0  0  0  0  0  0
    8.1566   10.0536   16.0516 O   0  0  0  0  0  0  0  0  0  0  0  0
   12.4989    6.2074   20.1776 C   0  0  0  0  0  0  0  0  0  0  0  0
    6.9192    9.1053   20.9073 O   0  0  0  0  0  0  0  0  0  0  0  0
   14.3979    6.0729   18.7784 C   0  0  0  0  0  0  0  0  0  0  0  0
    8.6811    9.5354   16.9998 C   0  0  0  0  0  0  0  0  0  0  0  0
    9.2512    4.2713   13.7653 O   0  0  0  0  0  0  0  0  0  0  0  0
    9.6495    8.6317   16.8332 N   0  0  0  0  0  0  0  0  0  0  0  0
    6.2934    8.6988   23.1988 O   0  0  0  0  0  0  0  0  0  0  0  0
    7.9806    8.6543   20.5437 C   0  0  0  0  0  0  0  0  0  0  0  0
   13.7270    5.7144   19.8610 O   0  0  0  0  0  0  0  0  0  0  0  0
    8.3351    5.5235   15.4478 C   0  0  0  0  0  0  0  0  0  0  0  0
    8.7700    7.8434   21.3915 C   0  0  0  0  0  0  0  0  0  0  0  0
   11.7856    6.8851   19.2401 C   0  0  0  0  0  0  0  0  0  0  0  0
   10.5281    7.4276   19.5649 C   0  0  0  0  0  0  0  0  0  0  0  0
   10.0256    7.2907   20.8484 C   0  0  0  0  0  0  0  0  0  0  0  0
    9.3113    5.3049   14.4911 C   0  0  0  0  0  0  0  0  0  0  0  0
    9.4607    7.5646   16.0139 C   0  0  0  0  0  0  0  0  0  0  0  0
   10.4192    7.3157   15.0955 C   0  0  0  0  0  0  0  0  0  0  0  0
   10.2489    6.4227   23.0218 N   0  0  0  0  0  0  0  0  0  0  0  0
    7.2472    8.0746   23.5050 C   0  0  0  0  0  0  0  0  0  0  0  0
    9.2051    6.9101   23.4604 C   0  0  0  0  0  0  0  0  0  0  0  0
   11.9646    6.0299   21.4251 C   0  0  0  0  0  0  0  0  0  0  0  0
  1  5  1  0
  1 13  1  0
  2 20  2  0
  2 28  1  0
  2 29  1  0
  3 19  4  0
  3 25  4  0
  4 23  4  0
  4 27  1  0
  4 30  4  0
  5 17  1  0
  6  8  1  0
  6 29  1  0
  7 24  4  0
  7 26  4  0
  8 28  1  0
  9 13  2  0
 10 18  1  0
 10 21  4  0
 10 30  4  0
 11 17  2  0
 12 18  1  0
 13 15  1  0
 14 24  1  0
 15 25  1  0
 16 28  2  0
 17 20  1  0
 19 24  4  0
 20 23  1  0
 21 22  4  0
 22 23  4  0
 25 26  4  0
 27 29  2  0
M  END
$$$$

 Created by Python create_sdf_string function

 30 33  0  0  0  0  0  0  0  0999 V2000
    8.3036    9.8571   18.4133 C   0  0  0  0  0  0  0  0  0  0  0  0
    8.3694    7.6612   22.6703 C   0  0  0  0  0  0  0  0  0  0  0  0
    8.4143    6.6863   16.2273 C   0  0  0  0  0  0  0  0  0  0  0  0
   10.7581    6.5674   21.7636 C   0  0  0  0  0  0  0  0  0  0  0  0
    8.4452    8.7960   19.2958 O   0  0  0  0  0  0  0  0  0  0  0  0
    8.7122    6.7842   24.8569 C   0  0  0  0  0  0  0  0  0  0  0  0
   10.3400    6.1726   14.3081 C   0  0  0  0  0  0  0  0  0  0  0  0
    7.4297    7.5873   24.8962 C   0  0  0  0  0  0  0  0  0  0  0  0
    8.1566   10.0536   16.0516 O   0  0  0  0  0  0  0  0  0  0  0  0
   12.4989    6.2074   20.1776 C   0  0  0  0  0  0  0  0  0  0  0  0
    6.9192    9.1053   20.9073 O   0  0  0  0  0  0  0  0  0  0  0  0
   14.3979    6.0729   18.7784 C   0  0  0  0  0  0  0  0  0  0  0  0
    8.6811    9.5354   16.9998 C   0  0  0  0  0  0  0  0  0  0  0  0
    9.2512    4.2713   13.7653 O   0  0  0  0  0  0  0  0  0  0  0  0
    9.6495    8.6317   16.8332 N   0  0  0  0  0  0  0  0  0  0  0  0
    6.2934    8.6988   23.1988 O   0  0  0  0  0  0  0  0  0  0  0  0
    7.9806    8.6543   20.5437 C   0  0  0  0  0  0  0  0  0  0  0  0
   13.7270    5.7144   19.8610 O   0  0  0  0  0  0  0  0  0  0  0  0
    8.3351    5.5235   15.4478 C   0  0  0  0  0  0  0  0  0  0  0  0
    8.7700    7.8434   21.3915 C   0  0  0  0  0  0  0  0  0  0  0  0
   11.7856    6.8851   19.2401 C   0  0  0  0  0  0  0  0  0  0  0  0
   10.5281    7.4276   19.5649 C   0  0  0  0  0  0  0  0  0  0  0  0
   10.0256    7.2907   20.8484 C   0  0  0  0  0  0  0  0  0  0  0  0
    9.3113    5.3049   14.4911 C   0  0  0  0  0  0  0  0  0  0  0  0
    9.4607    7.5646   16.0139 C   0  0  0  0  0  0  0  0  0  0  0  0
   10.4192    7.3157   15.0955 C   0  0  0  0  0  0  0  0  0  0  0  0
   10.2489    6.4227   23.0218 N   0  0  0  0  0  0  0  0  0  0  0  0
    7.2472    8.0746   23.5050 C   0  0  0  0  0  0  0  0  0  0  0  0
    9.2051    6.9101   23.4604 C   0  0  0  0  0  0  0  0  0  0  0  0
   11.9646    6.0299   21.4251 C   0  0  0  0  0  0  0  0  0  0  0  0
  1  5  1  0
  1 13  1  0
  2 20  2  0
  2 28  1  0
  2 29  1  0
  3 19  4  0
  3 25  4  0
  4 23  4  0
  4 27  1  0
  4 30  4  0
  5 17  1  0
  6  8  1  0
  6 29  1  0
  7 24  4  0
  7 26  4  0
  8 28  1  0
  9 13  2  0
 10 18  1  0
 10 21  4  0
 10 30  4  0
 11 17  2  0
 12 18  1  0
 13 15  1  0
 14 24  1  0
 15 25  1  0
 16 28  2  0
 17 20  1  0
 19 24  4  0
 20 23  1  0
 21 22  4  0
 22 23  4  0
 25 26  4  0
 27 29  2  0
M  END
$$$$

 Created by Python create_sdf_string function

 30 33  0  0  0  0  0  0  0  0999 V2000
    8.3036    9.8571   18.4133 C   0  0  0  0  0  0  0  0  0  0  0  0
    8.3694    7.6612   22.6703 C   0  0  0  0  0  0  0  0  0  0  0  0
    8.4143    6.6863   16.2273 C   0  0  0  0  0  0  0  0  0  0  0  0
   10.7581    6.5674   21.7636 C   0  0  0  0  0  0  0  0  0  0  0  0
    8.4452    8.7960   19.2958 O   0  0  0  0  0  0  0  0  0  0  0  0
    8.7122    6.7842   24.8569 C   0  0  0  0  0  0  0  0  0  0  0  0
   10.3400    6.1726   14.3081 C   0  0  0  0  0  0  0  0  0  0  0  0
    7.4297    7.5873   24.8962 C   0  0  0  0  0  0  0  0  0  0  0  0
    8.1566   10.0536   16.0516 O   0  0  0  0  0  0  0  0  0  0  0  0
   12.4989    6.2074   20.1776 C   0  0  0  0  0  0  0  0  0  0  0  0
    6.9192    9.1053   20.9073 O   0  0  0  0  0  0  0  0  0  0  0  0
   14.3979    6.0729   18.7784 C   0  0  0  0  0  0  0  0  0  0  0  0
    8.6811    9.5354   16.9998 C   0  0  0  0  0  0  0  0  0  0  0  0
    9.2512    4.2713   13.7653 O   0  0  0  0  0  0  0  0  0  0  0  0
    9.6495    8.6317   16.8332 N   0  0  0  0  0  0  0  0  0  0  0  0
    6.2934    8.6988   23.1988 O   0  0  0  0  0  0  0  0  0  0  0  0
    7.9806    8.6543   20.5437 C   0  0  0  0  0  0  0  0  0  0  0  0
   13.7270    5.7144   19.8610 O   0  0  0  0  0  0  0  0  0  0  0  0
    8.3351    5.5235   15.4478 C   0  0  0  0  0  0  0  0  0  0  0  0
    8.7700    7.8434   21.3915 C   0  0  0  0  0  0  0  0  0  0  0  0
   11.7856    6.8851   19.2401 C   0  0  0  0  0  0  0  0  0  0  0  0
   10.5281    7.4276   19.5649 C   0  0  0  0  0  0  0  0  0  0  0  0
   10.0256    7.2907   20.8484 C   0  0  0  0  0  0  0  0  0  0  0  0
    9.3113    5.3049   14.4911 C   0  0  0  0  0  0  0  0  0  0  0  0
    9.4607    7.5646   16.0139 C   0  0  0  0  0  0  0  0  0  0  0  0
   10.4192    7.3157   15.0955 C   0  0  0  0  0  0  0  0  0  0  0  0
   10.2489    6.4227   23.0218 N   0  0  0  0  0  0  0  0  0  0  0  0
    7.2472    8.0746   23.5050 C   0  0  0  0  0  0  0  0  0  0  0  0
    9.2051    6.9101   23.4604 C   0  0  0  0  0  0  0  0  0  0  0  0
   11.9646    6.0299   21.4251 C   0  0  0  0  0  0  0  0  0  0  0  0
  1  5  1  0
  1 13  1  0
  2 20  2  0
  2 28  1  0
  2 29  1  0
  3 19  4  0
  3 25  4  0
  4 23  4  0
  4 27  1  0
  4 30  4  0
  5 17  1  0
  6  8  1  0
  6 29  1  0
  7 24  4  0
  7 26  4  0
  8 28  1  0
  9 13  2  0
 10 18  1  0
 10 21  4  0
 10 30  4  0
 11 17  2  0
 12 18  1  0
 13 15  1  0
 14 24  1  0
 15 25  1  0
 16 28  2  0
 17 20  1  0
 19 24  4  0
 20 23  1  0
 21 22  4  0
 22 23  4  0
 25 26  4  0
 27 29  2  0
M  END
$$$$

 Created by Python create_sdf_string function

 30 33  0  0  0  0  0  0  0  0999 V2000
    8.3036    9.8571   18.4133 C   0  0  0  0  0  0  0  0  0  0  0  0
    8.3694    7.6612   22.6703 C   0  0  0  0  0  0  0  0  0  0  0  0
    8.4143    6.6863   16.2273 C   0  0  0  0  0  0  0  0  0  0  0  0
   10.7581    6.5674   21.7636 C   0  0  0  0  0  0  0  0  0  0  0  0
    8.4452    8.7960   19.2958 O   0  0  0  0  0  0  0  0  0  0  0  0
    8.7122    6.7842   24.8569 C   0  0  0  0  0  0  0  0  0  0  0  0
   10.3400    6.1726   14.3081 C   0  0  0  0  0  0  0  0  0  0  0  0
    7.4297    7.5873   24.8962 C   0  0  0  0  0  0  0  0  0  0  0  0
    8.1566   10.0536   16.0516 O   0  0  0  0  0  0  0  0  0  0  0  0
   12.4989    6.2074   20.1776 C   0  0  0  0  0  0  0  0  0  0  0  0
    6.9192    9.1053   20.9073 O   0  0  0  0  0  0  0  0  0  0  0  0
   14.3979    6.0729   18.7784 C   0  0  0  0  0  0  0  0  0  0  0  0
    8.6811    9.5354   16.9998 C   0  0  0  0  0  0  0  0  0  0  0  0
    9.2512    4.2713   13.7653 O   0  0  0  0  0  0  0  0  0  0  0  0
    9.6495    8.6317   16.8332 N   0  0  0  0  0  0  0  0  0  0  0  0
    6.2934    8.6988   23.1988 O   0  0  0  0  0  0  0  0  0  0  0  0
    7.9806    8.6543   20.5437 C   0  0  0  0  0  0  0  0  0  0  0  0
   13.7270    5.7144   19.8610 O   0  0  0  0  0  0  0  0  0  0  0  0
    8.3351    5.5235   15.4478 C   0  0  0  0  0  0  0  0  0  0  0  0
    8.7700    7.8434   21.3915 C   0  0  0  0  0  0  0  0  0  0  0  0
   11.7856    6.8851   19.2401 C   0  0  0  0  0  0  0  0  0  0  0  0
   10.5281    7.4276   19.5649 C   0  0  0  0  0  0  0  0  0  0  0  0
   10.0256    7.2907   20.8484 C   0  0  0  0  0  0  0  0  0  0  0  0
    9.3113    5.3049   14.4911 C   0  0  0  0  0  0  0  0  0  0  0  0
    9.4607    7.5646   16.0139 C   0  0  0  0  0  0  0  0  0  0  0  0
   10.4192    7.3157   15.0955 C   0  0  0  0  0  0  0  0  0  0  0  0
   10.2489    6.4227   23.0218 N   0  0  0  0  0  0  0  0  0  0  0  0
    7.2472    8.0746   23.5050 C   0  0  0  0  0  0  0  0  0  0  0  0
    9.2051    6.9101   23.4604 C   0  0  0  0  0  0  0  0  0  0  0  0
   11.9646    6.0299   21.4251 C   0  0  0  0  0  0  0  0  0  0  0  0
  1  5  1  0
  1 13  1  0
  2 20  2  0
  2 28  1  0
  2 29  1  0
  3 19  4  0
  3 25  4  0
  4 23  4  0
  4 27  1  0
  4 30  4  0
  5 17  1  0
  6  8  1  0
  6 29  1  0
  7 24  4  0
  7 26  4  0
  8 28  1  0
  9 13  2  0
 10 18  1  0
 10 21  4  0
 10 30  4  0
 11 17  2  0
 12 18  1  0
 13 15  1  0
 14 24  1  0
 15 25  1  0
 16 28  2  0
 17 20  1  0
 19 24  4  0
 20 23  1  0
 21 22  4  0
 22 23  4  0
 25 26  4  0
 27 29  2  0
M  END
$$$$

 Created by Python create_sdf_string function

 30 33  0  0  0  0  0  0  0  0999 V2000
    8.3036    9.8571   18.4133 C   0  0  0  0  0  0  0  0  0  0  0  0
    8.3694    7.6612   22.6703 C   0  0  0  0  0  0  0  0  0  0  0  0
    8.4143    6.6863   16.2273 C   0  0  0  0  0  0  0  0  0  0  0  0
   10.7581    6.5674   21.7636 C   0  0  0  0  0  0  0  0  0  0  0  0
    8.4452    8.7960   19.2958 O   0  0  0  0  0  0  0  0  0  0  0  0
    8.7122    6.7842   24.8569 C   0  0  0  0  0  0  0  0  0  0  0  0
   10.3400    6.1726   14.3081 C   0  0  0  0  0  0  0  0  0  0  0  0
    7.4297    7.5873   24.8962 C   0  0  0  0  0  0  0  0  0  0  0  0
    8.1566   10.0536   16.0516 O   0  0  0  0  0  0  0  0  0  0  0  0
   12.4989    6.2074   20.1776 C   0  0  0  0  0  0  0  0  0  0  0  0
    6.9192    9.1053   20.9073 O   0  0  0  0  0  0  0  0  0  0  0  0
   14.3979    6.0729   18.7784 C   0  0  0  0  0  0  0  0  0  0  0  0
    8.6811    9.5354   16.9998 C   0  0  0  0  0  0  0  0  0  0  0  0
    9.2512    4.2713   13.7653 O   0  0  0  0  0  0  0  0  0  0  0  0
    9.6495    8.6317   16.8332 N   0  0  0  0  0  0  0  0  0  0  0  0
    6.2934    8.6988   23.1988 O   0  0  0  0  0  0  0  0  0  0  0  0
    7.9806    8.6543   20.5437 C   0  0  0  0  0  0  0  0  0  0  0  0
   13.7270    5.7144   19.8610 O   0  0  0  0  0  0  0  0  0  0  0  0
    8.3351    5.5235   15.4478 C   0  0  0  0  0  0  0  0  0  0  0  0
    8.7700    7.8434   21.3915 C   0  0  0  0  0  0  0  0  0  0  0  0
   11.7856    6.8851   19.2401 C   0  0  0  0  0  0  0  0  0  0  0  0
   10.5281    7.4276   19.5649 C   0  0  0  0  0  0  0  0  0  0  0  0
   10.0256    7.2907   20.8484 C   0  0  0  0  0  0  0  0  0  0  0  0
    9.3113    5.3049   14.4911 C   0  0  0  0  0  0  0  0  0  0  0  0
    9.4607    7.5646   16.0139 C   0  0  0  0  0  0  0  0  0  0  0  0
   10.4192    7.3157   15.0955 C   0  0  0  0  0  0  0  0  0  0  0  0
   10.2489    6.4227   23.0218 N   0  0  0  0  0  0  0  0  0  0  0  0
    7.2472    8.0746   23.5050 C   0  0  0  0  0  0  0  0  0  0  0  0
    9.2051    6.9101   23.4604 C   0  0  0  0  0  0  0  0  0  0  0  0
   11.9646    6.0299   21.4251 C   0  0  0  0  0  0  0  0  0  0  0  0
  1  5  1  0
  1 13  1  0
  2 20  2  0
  2 28  1  0
  2 29  1  0
  3 19  4  0
  3 25  4  0
  4 23  4  0
  4 27  1  0
  4 30  4  0
  5 17  1  0
  6  8  1  0
  6 29  1  0
  7 24  4  0
  7 26  4  0
  8 28  1  0
  9 13  2  0
 10 18  1  0
 10 21  4  0
 10 30  4  0
 11 17  2  0
 12 18  1  0
 13 15  1  0
 14 24  1  0
 15 25  1  0
 16 28  2  0
 17 20  1  0
 19 24  4  0
 20 23  1  0
 21 22  4  0
 22 23  4  0
 25 26  4  0
 27 29  2  0
M  END
$$$$

 Created by Python create_sdf_string function

 30 33  0  0  0  0  0  0  0  0999 V2000
    8.3036    9.8571   18.4133 C   0  0  0  0  0  0  0  0  0  0  0  0
    8.3694    7.6612   22.6703 C   0  0  0  0  0  0  0  0  0  0  0  0
    8.4143    6.6863   16.2273 C   0  0  0  0  0  0  0  0  0  0  0  0
   10.7581    6.5674   21.7636 C   0  0  0  0  0  0  0  0  0  0  0  0
    8.4452    8.7960   19.2958 O   0  0  0  0  0  0  0  0  0  0  0  0
    8.7122    6.7842   24.8569 C   0  0  0  0  0  0  0  0  0  0  0  0
   10.3400    6.1726   14.3081 C   0  0  0  0  0  0  0  0  0  0  0  0
    7.4297    7.5873   24.8962 C   0  0  0  0  0  0  0  0  0  0  0  0
    8.1566   10.0536   16.0516 O   0  0  0  0  0  0  0  0  0  0  0  0
   12.4989    6.2074   20.1776 C   0  0  0  0  0  0  0  0  0  0  0  0
    6.9192    9.1053   20.9073 O   0  0  0  0  0  0  0  0  0  0  0  0
   14.3979    6.0729   18.7784 C   0  0  0  0  0  0  0  0  0  0  0  0
    8.6811    9.5354   16.9998 C   0  0  0  0  0  0  0  0  0  0  0  0
    9.2512    4.2713   13.7653 O   0  0  0  0  0  0  0  0  0  0  0  0
    9.6495    8.6317   16.8332 N   0  0  0  0  0  0  0  0  0  0  0  0
    6.2934    8.6988   23.1988 O   0  0  0  0  0  0  0  0  0  0  0  0
    7.9806    8.6543   20.5437 C   0  0  0  0  0  0  0  0  0  0  0  0
   13.7270    5.7144   19.8610 O   0  0  0  0  0  0  0  0  0  0  0  0
    8.3351    5.5235   15.4478 C   0  0  0  0  0  0  0  0  0  0  0  0
    8.7700    7.8434   21.3915 C   0  0  0  0  0  0  0  0  0  0  0  0
   11.7856    6.8851   19.2401 C   0  0  0  0  0  0  0  0  0  0  0  0
   10.5281    7.4276   19.5649 C   0  0  0  0  0  0  0  0  0  0  0  0
   10.0256    7.2907   20.8484 C   0  0  0  0  0  0  0  0  0  0  0  0
    9.3113    5.3049   14.4911 C   0  0  0  0  0  0  0  0  0  0  0  0
    9.4607    7.5646   16.0139 C   0  0  0  0  0  0  0  0  0  0  0  0
   10.4192    7.3157   15.0955 C   0  0  0  0  0  0  0  0  0  0  0  0
   10.2489    6.4227   23.0218 N   0  0  0  0  0  0  0  0  0  0  0  0
    7.2472    8.0746   23.5050 C   0  0  0  0  0  0  0  0  0  0  0  0
    9.2051    6.9101   23.4604 C   0  0  0  0  0  0  0  0  0  0  0  0
   11.9646    6.0299   21.4251 C   0  0  0  0  0  0  0  0  0  0  0  0
  1  5  1  0
  1 13  1  0
  2 20  2  0
  2 28  1  0
  2 29  1  0
  3 19  4  0
  3 25  4  0
  4 23  4  0
  4 27  1  0
  4 30  4  0
  5 17  1  0
  6  8  1  0
  6 29  1  0
  7 24  4  0
  7 26  4  0
  8 28  1  0
  9 13  2  0
 10 18  1  0
 10 21  4  0
 10 30  4  0
 11 17  2  0
 12 18  1  0
 13 15  1  0
 14 24  1  0
 15 25  1  0
 16 28  2  0
 17 20  1  0
 19 24  4  0
 20 23  1  0
 21 22  4  0
 22 23  4  0
 25 26  4  0
 27 29  2  0
M  END
$$$$

 Created by Python create_sdf_string function

 30 33  0  0  0  0  0  0  0  0999 V2000
    8.3036    9.8571   18.4133 C   0  0  0  0  0  0  0  0  0  0  0  0
    8.3694    7.6612   22.6703 C   0  0  0  0  0  0  0  0  0  0  0  0
    8.4143    6.6863   16.2273 C   0  0  0  0  0  0  0  0  0  0  0  0
   10.7581    6.5674   21.7636 C   0  0  0  0  0  0  0  0  0  0  0  0
    8.4452    8.7960   19.2958 O   0  0  0  0  0  0  0  0  0  0  0  0
    8.7122    6.7842   24.8569 C   0  0  0  0  0  0  0  0  0  0  0  0
   10.3400    6.1726   14.3081 C   0  0  0  0  0  0  0  0  0  0  0  0
    7.4297    7.5873   24.8962 C   0  0  0  0  0  0  0  0  0  0  0  0
    8.1566   10.0536   16.0516 O   0  0  0  0  0  0  0  0  0  0  0  0
   12.4989    6.2074   20.1776 C   0  0  0  0  0  0  0  0  0  0  0  0
    6.9192    9.1053   20.9073 O   0  0  0  0  0  0  0  0  0  0  0  0
   14.3979    6.0729   18.7784 C   0  0  0  0  0  0  0  0  0  0  0  0
    8.6811    9.5354   16.9998 C   0  0  0  0  0  0  0  0  0  0  0  0
    9.2512    4.2713   13.7653 O   0  0  0  0  0  0  0  0  0  0  0  0
    9.6495    8.6317   16.8332 N   0  0  0  0  0  0  0  0  0  0  0  0
    6.2934    8.6988   23.1988 O   0  0  0  0  0  0  0  0  0  0  0  0
    7.9806    8.6543   20.5437 C   0  0  0  0  0  0  0  0  0  0  0  0
   13.7270    5.7144   19.8610 O   0  0  0  0  0  0  0  0  0  0  0  0
    8.3351    5.5235   15.4478 C   0  0  0  0  0  0  0  0  0  0  0  0
    8.7700    7.8434   21.3915 C   0  0  0  0  0  0  0  0  0  0  0  0
   11.7856    6.8851   19.2401 C   0  0  0  0  0  0  0  0  0  0  0  0
   10.5281    7.4276   19.5649 C   0  0  0  0  0  0  0  0  0  0  0  0
   10.0256    7.2907   20.8484 C   0  0  0  0  0  0  0  0  0  0  0  0
    9.3113    5.3049   14.4911 C   0  0  0  0  0  0  0  0  0  0  0  0
    9.4607    7.5646   16.0139 C   0  0  0  0  0  0  0  0  0  0  0  0
   10.4192    7.3157   15.0955 C   0  0  0  0  0  0  0  0  0  0  0  0
   10.2489    6.4227   23.0218 N   0  0  0  0  0  0  0  0  0  0  0  0
    7.2472    8.0746   23.5050 C   0  0  0  0  0  0  0  0  0  0  0  0
    9.2051    6.9101   23.4604 C   0  0  0  0  0  0  0  0  0  0  0  0
   11.9646    6.0299   21.4251 C   0  0  0  0  0  0  0  0  0  0  0  0
  1  5  1  0
  1 13  1  0
  2 20  2  0
  2 28  1  0
  2 29  1  0
  3 19  4  0
  3 25  4  0
  4 23  4  0
  4 27  1  0
  4 30  4  0
  5 17  1  0
  6  8  1  0
  6 29  1  0
  7 24  4  0
  7 26  4  0
  8 28  1  0
  9 13  2  0
 10 18  1  0
 10 21  4  0
 10 30  4  0
 11 17  2  0
 12 18  1  0
 13 15  1  0
 14 24  1  0
 15 25  1  0
 16 28  2  0
 17 20  1  0
 19 24  4  0
 20 23  1  0
 21 22  4  0
 22 23  4  0
 25 26  4  0
 27 29  2  0
M  END
$$$$

 Created by Python create_sdf_string function

 30 33  0  0  0  0  0  0  0  0999 V2000
    8.3036    9.8571   18.4133 C   0  0  0  0  0  0  0  0  0  0  0  0
    8.3694    7.6612   22.6703 C   0  0  0  0  0  0  0  0  0  0  0  0
    8.4143    6.6863   16.2273 C   0  0  0  0  0  0  0  0  0  0  0  0
   10.7581    6.5674   21.7636 C   0  0  0  0  0  0  0  0  0  0  0  0
    8.4452    8.7960   19.2958 O   0  0  0  0  0  0  0  0  0  0  0  0
    8.7122    6.7842   24.8569 C   0  0  0  0  0  0  0  0  0  0  0  0
   10.3400    6.1726   14.3081 C   0  0  0  0  0  0  0  0  0  0  0  0
    7.4297    7.5873   24.8962 C   0  0  0  0  0  0  0  0  0  0  0  0
    8.1566   10.0536   16.0516 O   0  0  0  0  0  0  0  0  0  0  0  0
   12.4989    6.2074   20.1776 C   0  0  0  0  0  0  0  0  0  0  0  0
    6.9192    9.1053   20.9073 O   0  0  0  0  0  0  0  0  0  0  0  0
   14.3979    6.0729   18.7784 C   0  0  0  0  0  0  0  0  0  0  0  0
    8.6811    9.5354   16.9998 C   0  0  0  0  0  0  0  0  0  0  0  0
    9.2512    4.2713   13.7653 O   0  0  0  0  0  0  0  0  0  0  0  0
    9.6495    8.6317   16.8332 N   0  0  0  0  0  0  0  0  0  0  0  0
    6.2934    8.6988   23.1988 O   0  0  0  0  0  0  0  0  0  0  0  0
    7.9806    8.6543   20.5437 C   0  0  0  0  0  0  0  0  0  0  0  0
   13.7270    5.7144   19.8610 O   0  0  0  0  0  0  0  0  0  0  0  0
    8.3351    5.5235   15.4478 C   0  0  0  0  0  0  0  0  0  0  0  0
    8.7700    7.8434   21.3915 C   0  0  0  0  0  0  0  0  0  0  0  0
   11.7856    6.8851   19.2401 C   0  0  0  0  0  0  0  0  0  0  0  0
   10.5281    7.4276   19.5649 C   0  0  0  0  0  0  0  0  0  0  0  0
   10.0256    7.2907   20.8484 C   0  0  0  0  0  0  0  0  0  0  0  0
    9.3113    5.3049   14.4911 C   0  0  0  0  0  0  0  0  0  0  0  0
    9.4607    7.5646   16.0139 C   0  0  0  0  0  0  0  0  0  0  0  0
   10.4192    7.3157   15.0955 C   0  0  0  0  0  0  0  0  0  0  0  0
   10.2489    6.4227   23.0218 N   0  0  0  0  0  0  0  0  0  0  0  0
    7.2472    8.0746   23.5050 C   0  0  0  0  0  0  0  0  0  0  0  0
    9.2051    6.9101   23.4604 C   0  0  0  0  0  0  0  0  0  0  0  0
   11.9646    6.0299   21.4251 C   0  0  0  0  0  0  0  0  0  0  0  0
  1  5  1  0
  1 13  1  0
  2 20  2  0
  2 28  1  0
  2 29  1  0
  3 19  4  0
  3 25  4  0
  4 23  4  0
  4 27  1  0
  4 30  4  0
  5 17  1  0
  6  8  1  0
  6 29  1  0
  7 24  4  0
  7 26  4  0
  8 28  1  0
  9 13  2  0
 10 18  1  0
 10 21  4  0
 10 30  4  0
 11 17  2  0
 12 18  1  0
 13 15  1  0
 14 24  1  0
 15 25  1  0
 16 28  2  0
 17 20  1  0
 19 24  4  0
 20 23  1  0
 21 22  4  0
 22 23  4  0
 25 26  4  0
 27 29  2  0
M  END
$$$$

 Created by Python create_sdf_string function

 30 33  0  0  0  0  0  0  0  0999 V2000
    8.3036    9.8571   18.4133 C   0  0  0  0  0  0  0  0  0  0  0  0
    8.3694    7.6612   22.6703 C   0  0  0  0  0  0  0  0  0  0  0  0
    8.4143    6.6863   16.2273 C   0  0  0  0  0  0  0  0  0  0  0  0
   10.7581    6.5674   21.7636 C   0  0  0  0  0  0  0  0  0  0  0  0
    8.4452    8.7960   19.2958 O   0  0  0  0  0  0  0  0  0  0  0  0
    8.7122    6.7842   24.8569 C   0  0  0  0  0  0  0  0  0  0  0  0
   10.3400    6.1726   14.3081 C   0  0  0  0  0  0  0  0  0  0  0  0
    7.4297    7.5873   24.8962 C   0  0  0  0  0  0  0  0  0  0  0  0
    8.1566   10.0536   16.0516 O   0  0  0  0  0  0  0  0  0  0  0  0
   12.4989    6.2074   20.1776 C   0  0  0  0  0  0  0  0  0  0  0  0
    6.9192    9.1053   20.9073 O   0  0  0  0  0  0  0  0  0  0  0  0
   14.3979    6.0729   18.7784 C   0  0  0  0  0  0  0  0  0  0  0  0
    8.6811    9.5354   16.9998 C   0  0  0  0  0  0  0  0  0  0  0  0
    9.2512    4.2713   13.7653 O   0  0  0  0  0  0  0  0  0  0  0  0
    9.6495    8.6317   16.8332 N   0  0  0  0  0  0  0  0  0  0  0  0
    6.2934    8.6988   23.1988 O   0  0  0  0  0  0  0  0  0  0  0  0
    7.9806    8.6543   20.5437 C   0  0  0  0  0  0  0  0  0  0  0  0
   13.7270    5.7144   19.8610 O   0  0  0  0  0  0  0  0  0  0  0  0
    8.3351    5.5235   15.4478 C   0  0  0  0  0  0  0  0  0  0  0  0
    8.7700    7.8434   21.3915 C   0  0  0  0  0  0  0  0  0  0  0  0
   11.7856    6.8851   19.2401 C   0  0  0  0  0  0  0  0  0  0  0  0
   10.5281    7.4276   19.5649 C   0  0  0  0  0  0  0  0  0  0  0  0
   10.0256    7.2907   20.8484 C   0  0  0  0  0  0  0  0  0  0  0  0
    9.3113    5.3049   14.4911 C   0  0  0  0  0  0  0  0  0  0  0  0
    9.4607    7.5646   16.0139 C   0  0  0  0  0  0  0  0  0  0  0  0
   10.4192    7.3157   15.0955 C   0  0  0  0  0  0  0  0  0  0  0  0
   10.2489    6.4227   23.0218 N   0  0  0  0  0  0  0  0  0  0  0  0
    7.2472    8.0746   23.5050 C   0  0  0  0  0  0  0  0  0  0  0  0
    9.2051    6.9101   23.4604 C   0  0  0  0  0  0  0  0  0  0  0  0
   11.9646    6.0299   21.4251 C   0  0  0  0  0  0  0  0  0  0  0  0
  1  5  1  0
  1 13  1  0
  2 20  2  0
  2 28  1  0
  2 29  1  0
  3 19  4  0
  3 25  4  0
  4 23  4  0
  4 27  1  0
  4 30  4  0
  5 17  1  0
  6  8  1  0
  6 29  1  0
  7 24  4  0
  7 26  4  0
  8 28  1  0
  9 13  2  0
 10 18  1  0
 10 21  4  0
 10 30  4  0
 11 17  2  0
 12 18  1  0
 13 15  1  0
 14 24  1  0
 15 25  1  0
 16 28  2  0
 17 20  1  0
 19 24  4  0
 20 23  1  0
 21 22  4  0
 22 23  4  0
 25 26  4  0
 27 29  2  0
M  END
$$$$

 Created by Python create_sdf_string function

 30 33  0  0  0  0  0  0  0  0999 V2000
    8.3036    9.8571   18.4133 C   0  0  0  0  0  0  0  0  0  0  0  0
    8.3694    7.6612   22.6703 C   0  0  0  0  0  0  0  0  0  0  0  0
    8.4143    6.6863   16.2273 C   0  0  0  0  0  0  0  0  0  0  0  0
   10.7581    6.5674   21.7636 C   0  0  0  0  0  0  0  0  0  0  0  0
    8.4452    8.7960   19.2958 O   0  0  0  0  0  0  0  0  0  0  0  0
    8.7122    6.7842   24.8569 C   0  0  0  0  0  0  0  0  0  0  0  0
   10.3400    6.1726   14.3081 C   0  0  0  0  0  0  0  0  0  0  0  0
    7.4297    7.5873   24.8962 C   0  0  0  0  0  0  0  0  0  0  0  0
    8.1566   10.0536   16.0516 O   0  0  0  0  0  0  0  0  0  0  0  0
   12.4989    6.2074   20.1776 C   0  0  0  0  0  0  0  0  0  0  0  0
    6.9192    9.1053   20.9073 O   0  0  0  0  0  0  0  0  0  0  0  0
   14.3979    6.0729   18.7784 C   0  0  0  0  0  0  0  0  0  0  0  0
    8.6811    9.5354   16.9998 C   0  0  0  0  0  0  0  0  0  0  0  0
    9.2512    4.2713   13.7653 O   0  0  0  0  0  0  0  0  0  0  0  0
    9.6495    8.6317   16.8332 N   0  0  0  0  0  0  0  0  0  0  0  0
    6.2934    8.6988   23.1988 O   0  0  0  0  0  0  0  0  0  0  0  0
    7.9806    8.6543   20.5437 C   0  0  0  0  0  0  0  0  0  0  0  0
   13.7270    5.7144   19.8610 O   0  0  0  0  0  0  0  0  0  0  0  0
    8.3351    5.5235   15.4478 C   0  0  0  0  0  0  0  0  0  0  0  0
    8.7700    7.8434   21.3915 C   0  0  0  0  0  0  0  0  0  0  0  0
   11.7856    6.8851   19.2401 C   0  0  0  0  0  0  0  0  0  0  0  0
   10.5281    7.4276   19.5649 C   0  0  0  0  0  0  0  0  0  0  0  0
   10.0256    7.2907   20.8484 C   0  0  0  0  0  0  0  0  0  0  0  0
    9.3113    5.3049   14.4911 C   0  0  0  0  0  0  0  0  0  0  0  0
    9.4607    7.5646   16.0139 C   0  0  0  0  0  0  0  0  0  0  0  0
   10.4192    7.3157   15.0955 C   0  0  0  0  0  0  0  0  0  0  0  0
   10.2489    6.4227   23.0218 N   0  0  0  0  0  0  0  0  0  0  0  0
    7.2472    8.0746   23.5050 C   0  0  0  0  0  0  0  0  0  0  0  0
    9.2051    6.9101   23.4604 C   0  0  0  0  0  0  0  0  0  0  0  0
   11.9646    6.0299   21.4251 C   0  0  0  0  0  0  0  0  0  0  0  0
  1  5  1  0
  1 13  1  0
  2 20  2  0
  2 28  1  0
  2 29  1  0
  3 19  4  0
  3 25  4  0
  4 23  4  0
  4 27  1  0
  4 30  4  0
  5 17  1  0
  6  8  1  0
  6 29  1  0
  7 24  4  0
  7 26  4  0
  8 28  1  0
  9 13  2  0
 10 18  1  0
 10 21  4  0
 10 30  4  0
 11 17  2  0
 12 18  1  0
 13 15  1  0
 14 24  1  0
 15 25  1  0
 16 28  2  0
 17 20  1  0
 19 24  4  0
 20 23  1  0
 21 22  4  0
 22 23  4  0
 25 26  4  0
 27 29  2  0
M  END
$$$$

 Created by Python create_sdf_string function

 30 33  0  0  0  0  0  0  0  0999 V2000
    8.3036    9.8571   18.4133 C   0  0  0  0  0  0  0  0  0  0  0  0
    8.3694    7.6612   22.6703 C   0  0  0  0  0  0  0  0  0  0  0  0
    8.4143    6.6863   16.2273 C   0  0  0  0  0  0  0  0  0  0  0  0
   10.7581    6.5674   21.7636 C   0  0  0  0  0  0  0  0  0  0  0  0
    8.4452    8.7960   19.2958 O   0  0  0  0  0  0  0  0  0  0  0  0
    8.7122    6.7842   24.8569 C   0  0  0  0  0  0  0  0  0  0  0  0
   10.3400    6.1726   14.3081 C   0  0  0  0  0  0  0  0  0  0  0  0
    7.4297    7.5873   24.8962 C   0  0  0  0  0  0  0  0  0  0  0  0
    8.1566   10.0536   16.0516 O   0  0  0  0  0  0  0  0  0  0  0  0
   12.4989    6.2074   20.1776 C   0  0  0  0  0  0  0  0  0  0  0  0
    6.9192    9.1053   20.9073 O   0  0  0  0  0  0  0  0  0  0  0  0
   14.3979    6.0729   18.7784 C   0  0  0  0  0  0  0  0  0  0  0  0
    8.6811    9.5354   16.9998 C   0  0  0  0  0  0  0  0  0  0  0  0
    9.2512    4.2713   13.7653 O   0  0  0  0  0  0  0  0  0  0  0  0
    9.6495    8.6317   16.8332 N   0  0  0  0  0  0  0  0  0  0  0  0
    6.2934    8.6988   23.1988 O   0  0  0  0  0  0  0  0  0  0  0  0
    7.9806    8.6543   20.5437 C   0  0  0  0  0  0  0  0  0  0  0  0
   13.7270    5.7144   19.8610 O   0  0  0  0  0  0  0  0  0  0  0  0
    8.3351    5.5235   15.4478 C   0  0  0  0  0  0  0  0  0  0  0  0
    8.7700    7.8434   21.3915 C   0  0  0  0  0  0  0  0  0  0  0  0
   11.7856    6.8851   19.2401 C   0  0  0  0  0  0  0  0  0  0  0  0
   10.5281    7.4276   19.5649 C   0  0  0  0  0  0  0  0  0  0  0  0
   10.0256    7.2907   20.8484 C   0  0  0  0  0  0  0  0  0  0  0  0
    9.3113    5.3049   14.4911 C   0  0  0  0  0  0  0  0  0  0  0  0
    9.4607    7.5646   16.0139 C   0  0  0  0  0  0  0  0  0  0  0  0
   10.4192    7.3157   15.0955 C   0  0  0  0  0  0  0  0  0  0  0  0
   10.2489    6.4227   23.0218 N   0  0  0  0  0  0  0  0  0  0  0  0
    7.2472    8.0746   23.5050 C   0  0  0  0  0  0  0  0  0  0  0  0
    9.2051    6.9101   23.4604 C   0  0  0  0  0  0  0  0  0  0  0  0
   11.9646    6.0299   21.4251 C   0  0  0  0  0  0  0  0  0  0  0  0
  1  5  1  0
  1 13  1  0
  2 20  2  0
  2 28  1  0
  2 29  1  0
  3 19  4  0
  3 25  4  0
  4 23  4  0
  4 27  1  0
  4 30  4  0
  5 17  1  0
  6  8  1  0
  6 29  1  0
  7 24  4  0
  7 26  4  0
  8 28  1  0
  9 13  2  0
 10 18  1  0
 10 21  4  0
 10 30  4  0
 11 17  2  0
 12 18  1  0
 13 15  1  0
 14 24  1  0
 15 25  1  0
 16 28  2  0
 17 20  1  0
 19 24  4  0
 20 23  1  0
 21 22  4  0
 22 23  4  0
 25 26  4  0
 27 29  2  0
M  END
$$$$

 Created by Python create_sdf_string function

 30 33  0  0  0  0  0  0  0  0999 V2000
    8.3036    9.8571   18.4133 C   0  0  0  0  0  0  0  0  0  0  0  0
    8.3694    7.6612   22.6703 C   0  0  0  0  0  0  0  0  0  0  0  0
    8.4143    6.6863   16.2273 C   0  0  0  0  0  0  0  0  0  0  0  0
   10.7581    6.5674   21.7636 C   0  0  0  0  0  0  0  0  0  0  0  0
    8.4452    8.7960   19.2958 O   0  0  0  0  0  0  0  0  0  0  0  0
    8.7122    6.7842   24.8569 C   0  0  0  0  0  0  0  0  0  0  0  0
   10.3400    6.1726   14.3081 C   0  0  0  0  0  0  0  0  0  0  0  0
    7.4297    7.5873   24.8962 C   0  0  0  0  0  0  0  0  0  0  0  0
    8.1566   10.0536   16.0516 O   0  0  0  0  0  0  0  0  0  0  0  0
   12.4989    6.2074   20.1776 C   0  0  0  0  0  0  0  0  0  0  0  0
    6.9192    9.1053   20.9073 O   0  0  0  0  0  0  0  0  0  0  0  0
   14.3979    6.0729   18.7784 C   0  0  0  0  0  0  0  0  0  0  0  0
    8.6811    9.5354   16.9998 C   0  0  0  0  0  0  0  0  0  0  0  0
    9.2512    4.2713   13.7653 O   0  0  0  0  0  0  0  0  0  0  0  0
    9.6495    8.6317   16.8332 N   0  0  0  0  0  0  0  0  0  0  0  0
    6.2934    8.6988   23.1988 O   0  0  0  0  0  0  0  0  0  0  0  0
    7.9806    8.6543   20.5437 C   0  0  0  0  0  0  0  0  0  0  0  0
   13.7270    5.7144   19.8610 O   0  0  0  0  0  0  0  0  0  0  0  0
    8.3351    5.5235   15.4478 C   0  0  0  0  0  0  0  0  0  0  0  0
    8.7700    7.8434   21.3915 C   0  0  0  0  0  0  0  0  0  0  0  0
   11.7856    6.8851   19.2401 C   0  0  0  0  0  0  0  0  0  0  0  0
   10.5281    7.4276   19.5649 C   0  0  0  0  0  0  0  0  0  0  0  0
   10.0256    7.2907   20.8484 C   0  0  0  0  0  0  0  0  0  0  0  0
    9.3113    5.3049   14.4911 C   0  0  0  0  0  0  0  0  0  0  0  0
    9.4607    7.5646   16.0139 C   0  0  0  0  0  0  0  0  0  0  0  0
   10.4192    7.3157   15.0955 C   0  0  0  0  0  0  0  0  0  0  0  0
   10.2489    6.4227   23.0218 N   0  0  0  0  0  0  0  0  0  0  0  0
    7.2472    8.0746   23.5050 C   0  0  0  0  0  0  0  0  0  0  0  0
    9.2051    6.9101   23.4604 C   0  0  0  0  0  0  0  0  0  0  0  0
   11.9646    6.0299   21.4251 C   0  0  0  0  0  0  0  0  0  0  0  0
  1  5  1  0
  1 13  1  0
  2 20  2  0
  2 28  1  0
  2 29  1  0
  3 19  4  0
  3 25  4  0
  4 23  4  0
  4 27  1  0
  4 30  4  0
  5 17  1  0
  6  8  1  0
  6 29  1  0
  7 24  4  0
  7 26  4  0
  8 28  1  0
  9 13  2  0
 10 18  1  0
 10 21  4  0
 10 30  4  0
 11 17  2  0
 12 18  1  0
 13 15  1  0
 14 24  1  0
 15 25  1  0
 16 28  2  0
 17 20  1  0
 19 24  4  0
 20 23  1  0
 21 22  4  0
 22 23  4  0
 25 26  4  0
 27 29  2  0
M  END
$$$$

 Created by Python create_sdf_string function

 30 33  0  0  0  0  0  0  0  0999 V2000
    8.3036    9.8571   18.4133 C   0  0  0  0  0  0  0  0  0  0  0  0
    8.3694    7.6612   22.6703 C   0  0  0  0  0  0  0  0  0  0  0  0
    8.4143    6.6863   16.2273 C   0  0  0  0  0  0  0  0  0  0  0  0
   10.7581    6.5674   21.7636 C   0  0  0  0  0  0  0  0  0  0  0  0
    8.4452    8.7960   19.2958 O   0  0  0  0  0  0  0  0  0  0  0  0
    8.7122    6.7842   24.8569 C   0  0  0  0  0  0  0  0  0  0  0  0
   10.3400    6.1726   14.3081 C   0  0  0  0  0  0  0  0  0  0  0  0
    7.4297    7.5873   24.8962 C   0  0  0  0  0  0  0  0  0  0  0  0
    8.1566   10.0536   16.0516 O   0  0  0  0  0  0  0  0  0  0  0  0
   12.4989    6.2074   20.1776 C   0  0  0  0  0  0  0  0  0  0  0  0
    6.9192    9.1053   20.9073 O   0  0  0  0  0  0  0  0  0  0  0  0
   14.3979    6.0729   18.7784 C   0  0  0  0  0  0  0  0  0  0  0  0
    8.6811    9.5354   16.9998 C   0  0  0  0  0  0  0  0  0  0  0  0
    9.2512    4.2713   13.7653 O   0  0  0  0  0  0  0  0  0  0  0  0
    9.6495    8.6317   16.8332 N   0  0  0  0  0  0  0  0  0  0  0  0
    6.2934    8.6988   23.1988 O   0  0  0  0  0  0  0  0  0  0  0  0
    7.9806    8.6543   20.5437 C   0  0  0  0  0  0  0  0  0  0  0  0
   13.7270    5.7144   19.8610 O   0  0  0  0  0  0  0  0  0  0  0  0
    8.3351    5.5235   15.4478 C   0  0  0  0  0  0  0  0  0  0  0  0
    8.7700    7.8434   21.3915 C   0  0  0  0  0  0  0  0  0  0  0  0
   11.7856    6.8851   19.2401 C   0  0  0  0  0  0  0  0  0  0  0  0
   10.5281    7.4276   19.5649 C   0  0  0  0  0  0  0  0  0  0  0  0
   10.0256    7.2907   20.8484 C   0  0  0  0  0  0  0  0  0  0  0  0
    9.3113    5.3049   14.4911 C   0  0  0  0  0  0  0  0  0  0  0  0
    9.4607    7.5646   16.0139 C   0  0  0  0  0  0  0  0  0  0  0  0
   10.4192    7.3157   15.0955 C   0  0  0  0  0  0  0  0  0  0  0  0
   10.2489    6.4227   23.0218 N   0  0  0  0  0  0  0  0  0  0  0  0
    7.2472    8.0746   23.5050 C   0  0  0  0  0  0  0  0  0  0  0  0
    9.2051    6.9101   23.4604 C   0  0  0  0  0  0  0  0  0  0  0  0
   11.9646    6.0299   21.4251 C   0  0  0  0  0  0  0  0  0  0  0  0
  1  5  1  0
  1 13  1  0
  2 20  2  0
  2 28  1  0
  2 29  1  0
  3 19  4  0
  3 25  4  0
  4 23  4  0
  4 27  1  0
  4 30  4  0
  5 17  1  0
  6  8  1  0
  6 29  1  0
  7 24  4  0
  7 26  4  0
  8 28  1  0
  9 13  2  0
 10 18  1  0
 10 21  4  0
 10 30  4  0
 11 17  2  0
 12 18  1  0
 13 15  1  0
 14 24  1  0
 15 25  1  0
 16 28  2  0
 17 20  1  0
 19 24  4  0
 20 23  1  0
 21 22  4  0
 22 23  4  0
 25 26  4  0
 27 29  2  0
M  END
$$$$

 Created by Python create_sdf_string function

 30 33  0  0  0  0  0  0  0  0999 V2000
    8.3036    9.8571   18.4133 C   0  0  0  0  0  0  0  0  0  0  0  0
    8.3694    7.6612   22.6703 C   0  0  0  0  0  0  0  0  0  0  0  0
    8.4143    6.6863   16.2273 C   0  0  0  0  0  0  0  0  0  0  0  0
   10.7581    6.5674   21.7636 C   0  0  0  0  0  0  0  0  0  0  0  0
    8.4452    8.7960   19.2958 O   0  0  0  0  0  0  0  0  0  0  0  0
    8.7122    6.7842   24.8569 C   0  0  0  0  0  0  0  0  0  0  0  0
   10.3400    6.1726   14.3081 C   0  0  0  0  0  0  0  0  0  0  0  0
    7.4297    7.5873   24.8962 C   0  0  0  0  0  0  0  0  0  0  0  0
    8.1566   10.0536   16.0516 O   0  0  0  0  0  0  0  0  0  0  0  0
   12.4989    6.2074   20.1776 C   0  0  0  0  0  0  0  0  0  0  0  0
    6.9192    9.1053   20.9073 O   0  0  0  0  0  0  0  0  0  0  0  0
   14.3979    6.0729   18.7784 C   0  0  0  0  0  0  0  0  0  0  0  0
    8.6811    9.5354   16.9998 C   0  0  0  0  0  0  0  0  0  0  0  0
    9.2512    4.2713   13.7653 O   0  0  0  0  0  0  0  0  0  0  0  0
    9.6495    8.6317   16.8332 N   0  0  0  0  0  0  0  0  0  0  0  0
    6.2934    8.6988   23.1988 O   0  0  0  0  0  0  0  0  0  0  0  0
    7.9806    8.6543   20.5437 C   0  0  0  0  0  0  0  0  0  0  0  0
   13.7270    5.7144   19.8610 O   0  0  0  0  0  0  0  0  0  0  0  0
    8.3351    5.5235   15.4478 C   0  0  0  0  0  0  0  0  0  0  0  0
    8.7700    7.8434   21.3915 C   0  0  0  0  0  0  0  0  0  0  0  0
   11.7856    6.8851   19.2401 C   0  0  0  0  0  0  0  0  0  0  0  0
   10.5281    7.4276   19.5649 C   0  0  0  0  0  0  0  0  0  0  0  0
   10.0256    7.2907   20.8484 C   0  0  0  0  0  0  0  0  0  0  0  0
    9.3113    5.3049   14.4911 C   0  0  0  0  0  0  0  0  0  0  0  0
    9.4607    7.5646   16.0139 C   0  0  0  0  0  0  0  0  0  0  0  0
   10.4192    7.3157   15.0955 C   0  0  0  0  0  0  0  0  0  0  0  0
   10.2489    6.4227   23.0218 N   0  0  0  0  0  0  0  0  0  0  0  0
    7.2472    8.0746   23.5050 C   0  0  0  0  0  0  0  0  0  0  0  0
    9.2051    6.9101   23.4604 C   0  0  0  0  0  0  0  0  0  0  0  0
   11.9646    6.0299   21.4251 C   0  0  0  0  0  0  0  0  0  0  0  0
  1  5  1  0
  1 13  1  0
  2 20  2  0
  2 28  1  0
  2 29  1  0
  3 19  4  0
  3 25  4  0
  4 23  4  0
  4 27  1  0
  4 30  4  0
  5 17  1  0
  6  8  1  0
  6 29  1  0
  7 24  4  0
  7 26  4  0
  8 28  1  0
  9 13  2  0
 10 18  1  0
 10 21  4  0
 10 30  4  0
 11 17  2  0
 12 18  1  0
 13 15  1  0
 14 24  1  0
 15 25  1  0
 16 28  2  0
 17 20  1  0
 19 24  4  0
 20 23  1  0
 21 22  4  0
 22 23  4  0
 25 26  4  0
 27 29  2  0
M  END
$$$$

 Created by Python create_sdf_string function

 30 33  0  0  0  0  0  0  0  0999 V2000
    8.3036    9.8571   18.4133 C   0  0  0  0  0  0  0  0  0  0  0  0
    8.3694    7.6612   22.6703 C   0  0  0  0  0  0  0  0  0  0  0  0
    8.4143    6.6863   16.2273 C   0  0  0  0  0  0  0  0  0  0  0  0
   10.7581    6.5674   21.7636 C   0  0  0  0  0  0  0  0  0  0  0  0
    8.4452    8.7960   19.2958 O   0  0  0  0  0  0  0  0  0  0  0  0
    8.7122    6.7842   24.8569 C   0  0  0  0  0  0  0  0  0  0  0  0
   10.3400    6.1726   14.3081 C   0  0  0  0  0  0  0  0  0  0  0  0
    7.4297    7.5873   24.8962 C   0  0  0  0  0  0  0  0  0  0  0  0
    8.1566   10.0536   16.0516 O   0  0  0  0  0  0  0  0  0  0  0  0
   12.4989    6.2074   20.1776 C   0  0  0  0  0  0  0  0  0  0  0  0
    6.9192    9.1053   20.9073 O   0  0  0  0  0  0  0  0  0  0  0  0
   14.3979    6.0729   18.7784 C   0  0  0  0  0  0  0  0  0  0  0  0
    8.6811    9.5354   16.9998 C   0  0  0  0  0  0  0  0  0  0  0  0
    9.2512    4.2713   13.7653 O   0  0  0  0  0  0  0  0  0  0  0  0
    9.6495    8.6317   16.8332 N   0  0  0  0  0  0  0  0  0  0  0  0
    6.2934    8.6988   23.1988 O   0  0  0  0  0  0  0  0  0  0  0  0
    7.9806    8.6543   20.5437 C   0  0  0  0  0  0  0  0  0  0  0  0
   13.7270    5.7144   19.8610 O   0  0  0  0  0  0  0  0  0  0  0  0
    8.3351    5.5235   15.4478 C   0  0  0  0  0  0  0  0  0  0  0  0
    8.7700    7.8434   21.3915 C   0  0  0  0  0  0  0  0  0  0  0  0
   11.7856    6.8851   19.2401 C   0  0  0  0  0  0  0  0  0  0  0  0
   10.5281    7.4276   19.5649 C   0  0  0  0  0  0  0  0  0  0  0  0
   10.0256    7.2907   20.8484 C   0  0  0  0  0  0  0  0  0  0  0  0
    9.3113    5.3049   14.4911 C   0  0  0  0  0  0  0  0  0  0  0  0
    9.4607    7.5646   16.0139 C   0  0  0  0  0  0  0  0  0  0  0  0
   10.4192    7.3157   15.0955 C   0  0  0  0  0  0  0  0  0  0  0  0
   10.2489    6.4227   23.0218 N   0  0  0  0  0  0  0  0  0  0  0  0
    7.2472    8.0746   23.5050 C   0  0  0  0  0  0  0  0  0  0  0  0
    9.2051    6.9101   23.4604 C   0  0  0  0  0  0  0  0  0  0  0  0
   11.9646    6.0299   21.4251 C   0  0  0  0  0  0  0  0  0  0  0  0
  1  5  1  0
  1 13  1  0
  2 20  2  0
  2 28  1  0
  2 29  1  0
  3 19  4  0
  3 25  4  0
  4 23  4  0
  4 27  1  0
  4 30  4  0
  5 17  1  0
  6  8  1  0
  6 29  1  0
  7 24  4  0
  7 26  4  0
  8 28  1  0
  9 13  2  0
 10 18  1  0
 10 21  4  0
 10 30  4  0
 11 17  2  0
 12 18  1  0
 13 15  1  0
 14 24  1  0
 15 25  1  0
 16 28  2  0
 17 20  1  0
 19 24  4  0
 20 23  1  0
 21 22  4  0
 22 23  4  0
 25 26  4  0
 27 29  2  0
M  END
$$$$

 Created by Python create_sdf_string function

 30 33  0  0  0  0  0  0  0  0999 V2000
    8.3036    9.8571   18.4133 C   0  0  0  0  0  0  0  0  0  0  0  0
    8.3694    7.6612   22.6703 C   0  0  0  0  0  0  0  0  0  0  0  0
    8.4143    6.6863   16.2273 C   0  0  0  0  0  0  0  0  0  0  0  0
   10.7581    6.5674   21.7636 C   0  0  0  0  0  0  0  0  0  0  0  0
    8.4452    8.7960   19.2958 O   0  0  0  0  0  0  0  0  0  0  0  0
    8.7122    6.7842   24.8569 C   0  0  0  0  0  0  0  0  0  0  0  0
   10.3400    6.1726   14.3081 C   0  0  0  0  0  0  0  0  0  0  0  0
    7.4297    7.5873   24.8962 C   0  0  0  0  0  0  0  0  0  0  0  0
    8.1566   10.0536   16.0516 O   0  0  0  0  0  0  0  0  0  0  0  0
   12.4989    6.2074   20.1776 C   0  0  0  0  0  0  0  0  0  0  0  0
    6.9192    9.1053   20.9073 O   0  0  0  0  0  0  0  0  0  0  0  0
   14.3979    6.0729   18.7784 C   0  0  0  0  0  0  0  0  0  0  0  0
    8.6811    9.5354   16.9998 C   0  0  0  0  0  0  0  0  0  0  0  0
    9.2512    4.2713   13.7653 O   0  0  0  0  0  0  0  0  0  0  0  0
    9.6495    8.6317   16.8332 N   0  0  0  0  0  0  0  0  0  0  0  0
    6.2934    8.6988   23.1988 O   0  0  0  0  0  0  0  0  0  0  0  0
    7.9806    8.6543   20.5437 C   0  0  0  0  0  0  0  0  0  0  0  0
   13.7270    5.7144   19.8610 O   0  0  0  0  0  0  0  0  0  0  0  0
    8.3351    5.5235   15.4478 C   0  0  0  0  0  0  0  0  0  0  0  0
    8.7700    7.8434   21.3915 C   0  0  0  0  0  0  0  0  0  0  0  0
   11.7856    6.8851   19.2401 C   0  0  0  0  0  0  0  0  0  0  0  0
   10.5281    7.4276   19.5649 C   0  0  0  0  0  0  0  0  0  0  0  0
   10.0256    7.2907   20.8484 C   0  0  0  0  0  0  0  0  0  0  0  0
    9.3113    5.3049   14.4911 C   0  0  0  0  0  0  0  0  0  0  0  0
    9.4607    7.5646   16.0139 C   0  0  0  0  0  0  0  0  0  0  0  0
   10.4192    7.3157   15.0955 C   0  0  0  0  0  0  0  0  0  0  0  0
   10.2489    6.4227   23.0218 N   0  0  0  0  0  0  0  0  0  0  0  0
    7.2472    8.0746   23.5050 C   0  0  0  0  0  0  0  0  0  0  0  0
    9.2051    6.9101   23.4604 C   0  0  0  0  0  0  0  0  0  0  0  0
   11.9646    6.0299   21.4251 C   0  0  0  0  0  0  0  0  0  0  0  0
  1  5  1  0
  1 13  1  0
  2 20  2  0
  2 28  1  0
  2 29  1  0
  3 19  4  0
  3 25  4  0
  4 23  4  0
  4 27  1  0
  4 30  4  0
  5 17  1  0
  6  8  1  0
  6 29  1  0
  7 24  4  0
  7 26  4  0
  8 28  1  0
  9 13  2  0
 10 18  1  0
 10 21  4  0
 10 30  4  0
 11 17  2  0
 12 18  1  0
 13 15  1  0
 14 24  1  0
 15 25  1  0
 16 28  2  0
 17 20  1  0
 19 24  4  0
 20 23  1  0
 21 22  4  0
 22 23  4  0
 25 26  4  0
 27 29  2  0
M  END
$$$$

 Created by Python create_sdf_string function

 30 33  0  0  0  0  0  0  0  0999 V2000
    8.3036    9.8571   18.4133 C   0  0  0  0  0  0  0  0  0  0  0  0
    8.3694    7.6612   22.6703 C   0  0  0  0  0  0  0  0  0  0  0  0
    8.4143    6.6863   16.2273 C   0  0  0  0  0  0  0  0  0  0  0  0
   10.7581    6.5674   21.7636 C   0  0  0  0  0  0  0  0  0  0  0  0
    8.4452    8.7960   19.2958 O   0  0  0  0  0  0  0  0  0  0  0  0
    8.7122    6.7842   24.8569 C   0  0  0  0  0  0  0  0  0  0  0  0
   10.3400    6.1726   14.3081 C   0  0  0  0  0  0  0  0  0  0  0  0
    7.4297    7.5873   24.8962 C   0  0  0  0  0  0  0  0  0  0  0  0
    8.1566   10.0536   16.0516 O   0  0  0  0  0  0  0  0  0  0  0  0
   12.4989    6.2074   20.1776 C   0  0  0  0  0  0  0  0  0  0  0  0
    6.9192    9.1053   20.9073 O   0  0  0  0  0  0  0  0  0  0  0  0
   14.3979    6.0729   18.7784 C   0  0  0  0  0  0  0  0  0  0  0  0
    8.6811    9.5354   16.9998 C   0  0  0  0  0  0  0  0  0  0  0  0
    9.2512    4.2713   13.7653 O   0  0  0  0  0  0  0  0  0  0  0  0
    9.6495    8.6317   16.8332 N   0  0  0  0  0  0  0  0  0  0  0  0
    6.2934    8.6988   23.1988 O   0  0  0  0  0  0  0  0  0  0  0  0
    7.9806    8.6543   20.5437 C   0  0  0  0  0  0  0  0  0  0  0  0
   13.7270    5.7144   19.8610 O   0  0  0  0  0  0  0  0  0  0  0  0
    8.3351    5.5235   15.4478 C   0  0  0  0  0  0  0  0  0  0  0  0
    8.7700    7.8434   21.3915 C   0  0  0  0  0  0  0  0  0  0  0  0
   11.7856    6.8851   19.2401 C   0  0  0  0  0  0  0  0  0  0  0  0
   10.5281    7.4276   19.5649 C   0  0  0  0  0  0  0  0  0  0  0  0
   10.0256    7.2907   20.8484 C   0  0  0  0  0  0  0  0  0  0  0  0
    9.3113    5.3049   14.4911 C   0  0  0  0  0  0  0  0  0  0  0  0
    9.4607    7.5646   16.0139 C   0  0  0  0  0  0  0  0  0  0  0  0
   10.4192    7.3157   15.0955 C   0  0  0  0  0  0  0  0  0  0  0  0
   10.2489    6.4227   23.0218 N   0  0  0  0  0  0  0  0  0  0  0  0
    7.2472    8.0746   23.5050 C   0  0  0  0  0  0  0  0  0  0  0  0
    9.2051    6.9101   23.4604 C   0  0  0  0  0  0  0  0  0  0  0  0
   11.9646    6.0299   21.4251 C   0  0  0  0  0  0  0  0  0  0  0  0
  1  5  1  0
  1 13  1  0
  2 20  2  0
  2 28  1  0
  2 29  1  0
  3 19  4  0
  3 25  4  0
  4 23  4  0
  4 27  1  0
  4 30  4  0
  5 17  1  0
  6  8  1  0
  6 29  1  0
  7 24  4  0
  7 26  4  0
  8 28  1  0
  9 13  2  0
 10 18  1  0
 10 21  4  0
 10 30  4  0
 11 17  2  0
 12 18  1  0
 13 15  1  0
 14 24  1  0
 15 25  1  0
 16 28  2  0
 17 20  1  0
 19 24  4  0
 20 23  1  0
 21 22  4  0
 22 23  4  0
 25 26  4  0
 27 29  2  0
M  END
$$$$

 Created by Python create_sdf_string function

 30 33  0  0  0  0  0  0  0  0999 V2000
    8.3036    9.8571   18.4133 C   0  0  0  0  0  0  0  0  0  0  0  0
    8.3694    7.6612   22.6703 C   0  0  0  0  0  0  0  0  0  0  0  0
    8.4143    6.6863   16.2273 C   0  0  0  0  0  0  0  0  0  0  0  0
   10.7581    6.5674   21.7636 C   0  0  0  0  0  0  0  0  0  0  0  0
    8.4452    8.7960   19.2958 O   0  0  0  0  0  0  0  0  0  0  0  0
    8.7122    6.7842   24.8569 C   0  0  0  0  0  0  0  0  0  0  0  0
   10.3400    6.1726   14.3081 C   0  0  0  0  0  0  0  0  0  0  0  0
    7.4297    7.5873   24.8962 C   0  0  0  0  0  0  0  0  0  0  0  0
    8.1566   10.0536   16.0516 O   0  0  0  0  0  0  0  0  0  0  0  0
   12.4989    6.2074   20.1776 C   0  0  0  0  0  0  0  0  0  0  0  0
    6.9192    9.1053   20.9073 O   0  0  0  0  0  0  0  0  0  0  0  0
   14.3979    6.0729   18.7784 C   0  0  0  0  0  0  0  0  0  0  0  0
    8.6811    9.5354   16.9998 C   0  0  0  0  0  0  0  0  0  0  0  0
    9.2512    4.2713   13.7653 O   0  0  0  0  0  0  0  0  0  0  0  0
    9.6495    8.6317   16.8332 N   0  0  0  0  0  0  0  0  0  0  0  0
    6.2934    8.6988   23.1988 O   0  0  0  0  0  0  0  0  0  0  0  0
    7.9806    8.6543   20.5437 C   0  0  0  0  0  0  0  0  0  0  0  0
   13.7270    5.7144   19.8610 O   0  0  0  0  0  0  0  0  0  0  0  0
    8.3351    5.5235   15.4478 C   0  0  0  0  0  0  0  0  0  0  0  0
    8.7700    7.8434   21.3915 C   0  0  0  0  0  0  0  0  0  0  0  0
   11.7856    6.8851   19.2401 C   0  0  0  0  0  0  0  0  0  0  0  0
   10.5281    7.4276   19.5649 C   0  0  0  0  0  0  0  0  0  0  0  0
   10.0256    7.2907   20.8484 C   0  0  0  0  0  0  0  0  0  0  0  0
    9.3113    5.3049   14.4911 C   0  0  0  0  0  0  0  0  0  0  0  0
    9.4607    7.5646   16.0139 C   0  0  0  0  0  0  0  0  0  0  0  0
   10.4192    7.3157   15.0955 C   0  0  0  0  0  0  0  0  0  0  0  0
   10.2489    6.4227   23.0218 N   0  0  0  0  0  0  0  0  0  0  0  0
    7.2472    8.0746   23.5050 C   0  0  0  0  0  0  0  0  0  0  0  0
    9.2051    6.9101   23.4604 C   0  0  0  0  0  0  0  0  0  0  0  0
   11.9646    6.0299   21.4251 C   0  0  0  0  0  0  0  0  0  0  0  0
  1  5  1  0
  1 13  1  0
  2 20  2  0
  2 28  1  0
  2 29  1  0
  3 19  4  0
  3 25  4  0
  4 23  4  0
  4 27  1  0
  4 30  4  0
  5 17  1  0
  6  8  1  0
  6 29  1  0
  7 24  4  0
  7 26  4  0
  8 28  1  0
  9 13  2  0
 10 18  1  0
 10 21  4  0
 10 30  4  0
 11 17  2  0
 12 18  1  0
 13 15  1  0
 14 24  1  0
 15 25  1  0
 16 28  2  0
 17 20  1  0
 19 24  4  0
 20 23  1  0
 21 22  4  0
 22 23  4  0
 25 26  4  0
 27 29  2  0
M  END
$$$$

 Created by Python create_sdf_string function

 30 33  0  0  0  0  0  0  0  0999 V2000
    8.3036    9.8571   18.4133 C   0  0  0  0  0  0  0  0  0  0  0  0
    8.3694    7.6612   22.6703 C   0  0  0  0  0  0  0  0  0  0  0  0
    8.4143    6.6863   16.2273 C   0  0  0  0  0  0  0  0  0  0  0  0
   10.7581    6.5674   21.7636 C   0  0  0  0  0  0  0  0  0  0  0  0
    8.4452    8.7960   19.2958 O   0  0  0  0  0  0  0  0  0  0  0  0
    8.7122    6.7842   24.8569 C   0  0  0  0  0  0  0  0  0  0  0  0
   10.3400    6.1726   14.3081 C   0  0  0  0  0  0  0  0  0  0  0  0
    7.4297    7.5873   24.8962 C   0  0  0  0  0  0  0  0  0  0  0  0
    8.1566   10.0536   16.0516 O   0  0  0  0  0  0  0  0  0  0  0  0
   12.4989    6.2074   20.1776 C   0  0  0  0  0  0  0  0  0  0  0  0
    6.9192    9.1053   20.9073 O   0  0  0  0  0  0  0  0  0  0  0  0
   14.3979    6.0729   18.7784 C   0  0  0  0  0  0  0  0  0  0  0  0
    8.6811    9.5354   16.9998 C   0  0  0  0  0  0  0  0  0  0  0  0
    9.2512    4.2713   13.7653 O   0  0  0  0  0  0  0  0  0  0  0  0
    9.6495    8.6317   16.8332 N   0  0  0  0  0  0  0  0  0  0  0  0
    6.2934    8.6988   23.1988 O   0  0  0  0  0  0  0  0  0  0  0  0
    7.9806    8.6543   20.5437 C   0  0  0  0  0  0  0  0  0  0  0  0
   13.7270    5.7144   19.8610 O   0  0  0  0  0  0  0  0  0  0  0  0
    8.3351    5.5235   15.4478 C   0  0  0  0  0  0  0  0  0  0  0  0
    8.7700    7.8434   21.3915 C   0  0  0  0  0  0  0  0  0  0  0  0
   11.7856    6.8851   19.2401 C   0  0  0  0  0  0  0  0  0  0  0  0
   10.5281    7.4276   19.5649 C   0  0  0  0  0  0  0  0  0  0  0  0
   10.0256    7.2907   20.8484 C   0  0  0  0  0  0  0  0  0  0  0  0
    9.3113    5.3049   14.4911 C   0  0  0  0  0  0  0  0  0  0  0  0
    9.4607    7.5646   16.0139 C   0  0  0  0  0  0  0  0  0  0  0  0
   10.4192    7.3157   15.0955 C   0  0  0  0  0  0  0  0  0  0  0  0
   10.2489    6.4227   23.0218 N   0  0  0  0  0  0  0  0  0  0  0  0
    7.2472    8.0746   23.5050 C   0  0  0  0  0  0  0  0  0  0  0  0
    9.2051    6.9101   23.4604 C   0  0  0  0  0  0  0  0  0  0  0  0
   11.9646    6.0299   21.4251 C   0  0  0  0  0  0  0  0  0  0  0  0
  1  5  1  0
  1 13  1  0
  2 20  2  0
  2 28  1  0
  2 29  1  0
  3 19  4  0
  3 25  4  0
  4 23  4  0
  4 27  1  0
  4 30  4  0
  5 17  1  0
  6  8  1  0
  6 29  1  0
  7 24  4  0
  7 26  4  0
  8 28  1  0
  9 13  2  0
 10 18  1  0
 10 21  4  0
 10 30  4  0
 11 17  2  0
 12 18  1  0
 13 15  1  0
 14 24  1  0
 15 25  1  0
 16 28  2  0
 17 20  1  0
 19 24  4  0
 20 23  1  0
 21 22  4  0
 22 23  4  0
 25 26  4  0
 27 29  2  0
M  END
$$$$

 Created by Python create_sdf_string function

 30 33  0  0  0  0  0  0  0  0999 V2000
    8.3036    9.8571   18.4133 C   0  0  0  0  0  0  0  0  0  0  0  0
    8.3694    7.6612   22.6703 C   0  0  0  0  0  0  0  0  0  0  0  0
    8.4143    6.6863   16.2273 C   0  0  0  0  0  0  0  0  0  0  0  0
   10.7581    6.5674   21.7636 C   0  0  0  0  0  0  0  0  0  0  0  0
    8.4452    8.7960   19.2958 O   0  0  0  0  0  0  0  0  0  0  0  0
    8.7122    6.7842   24.8569 C   0  0  0  0  0  0  0  0  0  0  0  0
   10.3400    6.1726   14.3081 C   0  0  0  0  0  0  0  0  0  0  0  0
    7.4297    7.5873   24.8962 C   0  0  0  0  0  0  0  0  0  0  0  0
    8.1566   10.0536   16.0516 O   0  0  0  0  0  0  0  0  0  0  0  0
   12.4989    6.2074   20.1776 C   0  0  0  0  0  0  0  0  0  0  0  0
    6.9192    9.1053   20.9073 O   0  0  0  0  0  0  0  0  0  0  0  0
   14.3979    6.0729   18.7784 C   0  0  0  0  0  0  0  0  0  0  0  0
    8.6811    9.5354   16.9998 C   0  0  0  0  0  0  0  0  0  0  0  0
    9.2512    4.2713   13.7653 O   0  0  0  0  0  0  0  0  0  0  0  0
    9.6495    8.6317   16.8332 N   0  0  0  0  0  0  0  0  0  0  0  0
    6.2934    8.6988   23.1988 O   0  0  0  0  0  0  0  0  0  0  0  0
    7.9806    8.6543   20.5437 C   0  0  0  0  0  0  0  0  0  0  0  0
   13.7270    5.7144   19.8610 O   0  0  0  0  0  0  0  0  0  0  0  0
    8.3351    5.5235   15.4478 C   0  0  0  0  0  0  0  0  0  0  0  0
    8.7700    7.8434   21.3915 C   0  0  0  0  0  0  0  0  0  0  0  0
   11.7856    6.8851   19.2401 C   0  0  0  0  0  0  0  0  0  0  0  0
   10.5281    7.4276   19.5649 C   0  0  0  0  0  0  0  0  0  0  0  0
   10.0256    7.2907   20.8484 C   0  0  0  0  0  0  0  0  0  0  0  0
    9.3113    5.3049   14.4911 C   0  0  0  0  0  0  0  0  0  0  0  0
    9.4607    7.5646   16.0139 C   0  0  0  0  0  0  0  0  0  0  0  0
   10.4192    7.3157   15.0955 C   0  0  0  0  0  0  0  0  0  0  0  0
   10.2489    6.4227   23.0218 N   0  0  0  0  0  0  0  0  0  0  0  0
    7.2472    8.0746   23.5050 C   0  0  0  0  0  0  0  0  0  0  0  0
    9.2051    6.9101   23.4604 C   0  0  0  0  0  0  0  0  0  0  0  0
   11.9646    6.0299   21.4251 C   0  0  0  0  0  0  0  0  0  0  0  0
  1  5  1  0
  1 13  1  0
  2 20  2  0
  2 28  1  0
  2 29  1  0
  3 19  4  0
  3 25  4  0
  4 23  4  0
  4 27  1  0
  4 30  4  0
  5 17  1  0
  6  8  1  0
  6 29  1  0
  7 24  4  0
  7 26  4  0
  8 28  1  0
  9 13  2  0
 10 18  1  0
 10 21  4  0
 10 30  4  0
 11 17  2  0
 12 18  1  0
 13 15  1  0
 14 24  1  0
 15 25  1  0
 16 28  2  0
 17 20  1  0
 19 24  4  0
 20 23  1  0
 21 22  4  0
 22 23  4  0
 25 26  4  0
 27 29  2  0
M  END
$$$$

 Created by Python create_sdf_string function

 30 33  0  0  0  0  0  0  0  0999 V2000
    8.3036    9.8571   18.4133 C   0  0  0  0  0  0  0  0  0  0  0  0
    8.3694    7.6612   22.6703 C   0  0  0  0  0  0  0  0  0  0  0  0
    8.4143    6.6863   16.2273 C   0  0  0  0  0  0  0  0  0  0  0  0
   10.7581    6.5674   21.7636 C   0  0  0  0  0  0  0  0  0  0  0  0
    8.4452    8.7960   19.2958 O   0  0  0  0  0  0  0  0  0  0  0  0
    8.7122    6.7842   24.8569 C   0  0  0  0  0  0  0  0  0  0  0  0
   10.3400    6.1726   14.3081 C   0  0  0  0  0  0  0  0  0  0  0  0
    7.4297    7.5873   24.8962 C   0  0  0  0  0  0  0  0  0  0  0  0
    8.1566   10.0536   16.0516 O   0  0  0  0  0  0  0  0  0  0  0  0
   12.4989    6.2074   20.1776 C   0  0  0  0  0  0  0  0  0  0  0  0
    6.9192    9.1053   20.9073 O   0  0  0  0  0  0  0  0  0  0  0  0
   14.3979    6.0729   18.7784 C   0  0  0  0  0  0  0  0  0  0  0  0
    8.6811    9.5354   16.9998 C   0  0  0  0  0  0  0  0  0  0  0  0
    9.2512    4.2713   13.7653 O   0  0  0  0  0  0  0  0  0  0  0  0
    9.6495    8.6317   16.8332 N   0  0  0  0  0  0  0  0  0  0  0  0
    6.2934    8.6988   23.1988 O   0  0  0  0  0  0  0  0  0  0  0  0
    7.9806    8.6543   20.5437 C   0  0  0  0  0  0  0  0  0  0  0  0
   13.7270    5.7144   19.8610 O   0  0  0  0  0  0  0  0  0  0  0  0
    8.3351    5.5235   15.4478 C   0  0  0  0  0  0  0  0  0  0  0  0
    8.7700    7.8434   21.3915 C   0  0  0  0  0  0  0  0  0  0  0  0
   11.7856    6.8851   19.2401 C   0  0  0  0  0  0  0  0  0  0  0  0
   10.5281    7.4276   19.5649 C   0  0  0  0  0  0  0  0  0  0  0  0
   10.0256    7.2907   20.8484 C   0  0  0  0  0  0  0  0  0  0  0  0
    9.3113    5.3049   14.4911 C   0  0  0  0  0  0  0  0  0  0  0  0
    9.4607    7.5646   16.0139 C   0  0  0  0  0  0  0  0  0  0  0  0
   10.4192    7.3157   15.0955 C   0  0  0  0  0  0  0  0  0  0  0  0
   10.2489    6.4227   23.0218 N   0  0  0  0  0  0  0  0  0  0  0  0
    7.2472    8.0746   23.5050 C   0  0  0  0  0  0  0  0  0  0  0  0
    9.2051    6.9101   23.4604 C   0  0  0  0  0  0  0  0  0  0  0  0
   11.9646    6.0299   21.4251 C   0  0  0  0  0  0  0  0  0  0  0  0
  1  5  1  0
  1 13  1  0
  2 20  2  0
  2 28  1  0
  2 29  1  0
  3 19  4  0
  3 25  4  0
  4 23  4  0
  4 27  1  0
  4 30  4  0
  5 17  1  0
  6  8  1  0
  6 29  1  0
  7 24  4  0
  7 26  4  0
  8 28  1  0
  9 13  2  0
 10 18  1  0
 10 21  4  0
 10 30  4  0
 11 17  2  0
 12 18  1  0
 13 15  1  0
 14 24  1  0
 15 25  1  0
 16 28  2  0
 17 20  1  0
 19 24  4  0
 20 23  1  0
 21 22  4  0
 22 23  4  0
 25 26  4  0
 27 29  2  0
M  END
$$$$

 Created by Python create_sdf_string function

 30 33  0  0  0  0  0  0  0  0999 V2000
    8.3036    9.8571   18.4133 C   0  0  0  0  0  0  0  0  0  0  0  0
    8.3694    7.6612   22.6703 C   0  0  0  0  0  0  0  0  0  0  0  0
    8.4143    6.6863   16.2273 C   0  0  0  0  0  0  0  0  0  0  0  0
   10.7581    6.5674   21.7636 C   0  0  0  0  0  0  0  0  0  0  0  0
    8.4452    8.7960   19.2958 O   0  0  0  0  0  0  0  0  0  0  0  0
    8.7122    6.7842   24.8569 C   0  0  0  0  0  0  0  0  0  0  0  0
   10.3400    6.1726   14.3081 C   0  0  0  0  0  0  0  0  0  0  0  0
    7.4297    7.5873   24.8962 C   0  0  0  0  0  0  0  0  0  0  0  0
    8.1566   10.0536   16.0516 O   0  0  0  0  0  0  0  0  0  0  0  0
   12.4989    6.2074   20.1776 C   0  0  0  0  0  0  0  0  0  0  0  0
    6.9192    9.1053   20.9073 O   0  0  0  0  0  0  0  0  0  0  0  0
   14.3979    6.0729   18.7784 C   0  0  0  0  0  0  0  0  0  0  0  0
    8.6811    9.5354   16.9998 C   0  0  0  0  0  0  0  0  0  0  0  0
    9.2512    4.2713   13.7653 O   0  0  0  0  0  0  0  0  0  0  0  0
    9.6495    8.6317   16.8332 N   0  0  0  0  0  0  0  0  0  0  0  0
    6.2934    8.6988   23.1988 O   0  0  0  0  0  0  0  0  0  0  0  0
    7.9806    8.6543   20.5437 C   0  0  0  0  0  0  0  0  0  0  0  0
   13.7270    5.7144   19.8610 O   0  0  0  0  0  0  0  0  0  0  0  0
    8.3351    5.5235   15.4478 C   0  0  0  0  0  0  0  0  0  0  0  0
    8.7700    7.8434   21.3915 C   0  0  0  0  0  0  0  0  0  0  0  0
   11.7856    6.8851   19.2401 C   0  0  0  0  0  0  0  0  0  0  0  0
   10.5281    7.4276   19.5649 C   0  0  0  0  0  0  0  0  0  0  0  0
   10.0256    7.2907   20.8484 C   0  0  0  0  0  0  0  0  0  0  0  0
    9.3113    5.3049   14.4911 C   0  0  0  0  0  0  0  0  0  0  0  0
    9.4607    7.5646   16.0139 C   0  0  0  0  0  0  0  0  0  0  0  0
   10.4192    7.3157   15.0955 C   0  0  0  0  0  0  0  0  0  0  0  0
   10.2489    6.4227   23.0218 N   0  0  0  0  0  0  0  0  0  0  0  0
    7.2472    8.0746   23.5050 C   0  0  0  0  0  0  0  0  0  0  0  0
    9.2051    6.9101   23.4604 C   0  0  0  0  0  0  0  0  0  0  0  0
   11.9646    6.0299   21.4251 C   0  0  0  0  0  0  0  0  0  0  0  0
  1  5  1  0
  1 13  1  0
  2 20  2  0
  2 28  1  0
  2 29  1  0
  3 19  4  0
  3 25  4  0
  4 23  4  0
  4 27  1  0
  4 30  4  0
  5 17  1  0
  6  8  1  0
  6 29  1  0
  7 24  4  0
  7 26  4  0
  8 28  1  0
  9 13  2  0
 10 18  1  0
 10 21  4  0
 10 30  4  0
 11 17  2  0
 12 18  1  0
 13 15  1  0
 14 24  1  0
 15 25  1  0
 16 28  2  0
 17 20  1  0
 19 24  4  0
 20 23  1  0
 21 22  4  0
 22 23  4  0
 25 26  4  0
 27 29  2  0
M  END
$$$$

 Created by Python create_sdf_string function

 30 33  0  0  0  0  0  0  0  0999 V2000
    8.3036    9.8571   18.4133 C   0  0  0  0  0  0  0  0  0  0  0  0
    8.3694    7.6612   22.6703 C   0  0  0  0  0  0  0  0  0  0  0  0
    8.4143    6.6863   16.2273 C   0  0  0  0  0  0  0  0  0  0  0  0
   10.7581    6.5674   21.7636 C   0  0  0  0  0  0  0  0  0  0  0  0
    8.4452    8.7960   19.2958 O   0  0  0  0  0  0  0  0  0  0  0  0
    8.7122    6.7842   24.8569 C   0  0  0  0  0  0  0  0  0  0  0  0
   10.3400    6.1726   14.3081 C   0  0  0  0  0  0  0  0  0  0  0  0
    7.4297    7.5873   24.8962 C   0  0  0  0  0  0  0  0  0  0  0  0
    8.1566   10.0536   16.0516 O   0  0  0  0  0  0  0  0  0  0  0  0
   12.4989    6.2074   20.1776 C   0  0  0  0  0  0  0  0  0  0  0  0
    6.9192    9.1053   20.9073 O   0  0  0  0  0  0  0  0  0  0  0  0
   14.3979    6.0729   18.7784 C   0  0  0  0  0  0  0  0  0  0  0  0
    8.6811    9.5354   16.9998 C   0  0  0  0  0  0  0  0  0  0  0  0
    9.2512    4.2713   13.7653 O   0  0  0  0  0  0  0  0  0  0  0  0
    9.6495    8.6317   16.8332 N   0  0  0  0  0  0  0  0  0  0  0  0
    6.2934    8.6988   23.1988 O   0  0  0  0  0  0  0  0  0  0  0  0
    7.9806    8.6543   20.5437 C   0  0  0  0  0  0  0  0  0  0  0  0
   13.7270    5.7144   19.8610 O   0  0  0  0  0  0  0  0  0  0  0  0
    8.3351    5.5235   15.4478 C   0  0  0  0  0  0  0  0  0  0  0  0
    8.7700    7.8434   21.3915 C   0  0  0  0  0  0  0  0  0  0  0  0
   11.7856    6.8851   19.2401 C   0  0  0  0  0  0  0  0  0  0  0  0
   10.5281    7.4276   19.5649 C   0  0  0  0  0  0  0  0  0  0  0  0
   10.0256    7.2907   20.8484 C   0  0  0  0  0  0  0  0  0  0  0  0
    9.3113    5.3049   14.4911 C   0  0  0  0  0  0  0  0  0  0  0  0
    9.4607    7.5646   16.0139 C   0  0  0  0  0  0  0  0  0  0  0  0
   10.4192    7.3157   15.0955 C   0  0  0  0  0  0  0  0  0  0  0  0
   10.2489    6.4227   23.0218 N   0  0  0  0  0  0  0  0  0  0  0  0
    7.2472    8.0746   23.5050 C   0  0  0  0  0  0  0  0  0  0  0  0
    9.2051    6.9101   23.4604 C   0  0  0  0  0  0  0  0  0  0  0  0
   11.9646    6.0299   21.4251 C   0  0  0  0  0  0  0  0  0  0  0  0
  1  5  1  0
  1 13  1  0
  2 20  2  0
  2 28  1  0
  2 29  1  0
  3 19  4  0
  3 25  4  0
  4 23  4  0
  4 27  1  0
  4 30  4  0
  5 17  1  0
  6  8  1  0
  6 29  1  0
  7 24  4  0
  7 26  4  0
  8 28  1  0
  9 13  2  0
 10 18  1  0
 10 21  4  0
 10 30  4  0
 11 17  2  0
 12 18  1  0
 13 15  1  0
 14 24  1  0
 15 25  1  0
 16 28  2  0
 17 20  1  0
 19 24  4  0
 20 23  1  0
 21 22  4  0
 22 23  4  0
 25 26  4  0
 27 29  2  0
M  END
$$$$

 Created by Python create_sdf_string function

 30 33  0  0  0  0  0  0  0  0999 V2000
    8.3036    9.8571   18.4133 C   0  0  0  0  0  0  0  0  0  0  0  0
    8.3694    7.6612   22.6703 C   0  0  0  0  0  0  0  0  0  0  0  0
    8.4143    6.6863   16.2273 C   0  0  0  0  0  0  0  0  0  0  0  0
   10.7581    6.5674   21.7636 C   0  0  0  0  0  0  0  0  0  0  0  0
    8.4452    8.7960   19.2958 O   0  0  0  0  0  0  0  0  0  0  0  0
    8.7122    6.7842   24.8569 C   0  0  0  0  0  0  0  0  0  0  0  0
   10.3400    6.1726   14.3081 C   0  0  0  0  0  0  0  0  0  0  0  0
    7.4297    7.5873   24.8962 C   0  0  0  0  0  0  0  0  0  0  0  0
    8.1566   10.0536   16.0516 O   0  0  0  0  0  0  0  0  0  0  0  0
   12.4989    6.2074   20.1776 C   0  0  0  0  0  0  0  0  0  0  0  0
    6.9192    9.1053   20.9073 O   0  0  0  0  0  0  0  0  0  0  0  0
   14.3979    6.0729   18.7784 C   0  0  0  0  0  0  0  0  0  0  0  0
    8.6811    9.5354   16.9998 C   0  0  0  0  0  0  0  0  0  0  0  0
    9.2512    4.2713   13.7653 O   0  0  0  0  0  0  0  0  0  0  0  0
    9.6495    8.6317   16.8332 N   0  0  0  0  0  0  0  0  0  0  0  0
    6.2934    8.6988   23.1988 O   0  0  0  0  0  0  0  0  0  0  0  0
    7.9806    8.6543   20.5437 C   0  0  0  0  0  0  0  0  0  0  0  0
   13.7270    5.7144   19.8610 O   0  0  0  0  0  0  0  0  0  0  0  0
    8.3351    5.5235   15.4478 C   0  0  0  0  0  0  0  0  0  0  0  0
    8.7700    7.8434   21.3915 C   0  0  0  0  0  0  0  0  0  0  0  0
   11.7856    6.8851   19.2401 C   0  0  0  0  0  0  0  0  0  0  0  0
   10.5281    7.4276   19.5649 C   0  0  0  0  0  0  0  0  0  0  0  0
   10.0256    7.2907   20.8484 C   0  0  0  0  0  0  0  0  0  0  0  0
    9.3113    5.3049   14.4911 C   0  0  0  0  0  0  0  0  0  0  0  0
    9.4607    7.5646   16.0139 C   0  0  0  0  0  0  0  0  0  0  0  0
   10.4192    7.3157   15.0955 C   0  0  0  0  0  0  0  0  0  0  0  0
   10.2489    6.4227   23.0218 N   0  0  0  0  0  0  0  0  0  0  0  0
    7.2472    8.0746   23.5050 C   0  0  0  0  0  0  0  0  0  0  0  0
    9.2051    6.9101   23.4604 C   0  0  0  0  0  0  0  0  0  0  0  0
   11.9646    6.0299   21.4251 C   0  0  0  0  0  0  0  0  0  0  0  0
  1  5  1  0
  1 13  1  0
  2 20  2  0
  2 28  1  0
  2 29  1  0
  3 19  4  0
  3 25  4  0
  4 23  4  0
  4 27  1  0
  4 30  4  0
  5 17  1  0
  6  8  1  0
  6 29  1  0
  7 24  4  0
  7 26  4  0
  8 28  1  0
  9 13  2  0
 10 18  1  0
 10 21  4  0
 10 30  4  0
 11 17  2  0
 12 18  1  0
 13 15  1  0
 14 24  1  0
 15 25  1  0
 16 28  2  0
 17 20  1  0
 19 24  4  0
 20 23  1  0
 21 22  4  0
 22 23  4  0
 25 26  4  0
 27 29  2  0
M  END
$$$$

 Created by Python create_sdf_string function

 30 33  0  0  0  0  0  0  0  0999 V2000
    8.3036    9.8571   18.4133 C   0  0  0  0  0  0  0  0  0  0  0  0
    8.3694    7.6612   22.6703 C   0  0  0  0  0  0  0  0  0  0  0  0
    8.4143    6.6863   16.2273 C   0  0  0  0  0  0  0  0  0  0  0  0
   10.7581    6.5674   21.7636 C   0  0  0  0  0  0  0  0  0  0  0  0
    8.4452    8.7960   19.2958 O   0  0  0  0  0  0  0  0  0  0  0  0
    8.7122    6.7842   24.8569 C   0  0  0  0  0  0  0  0  0  0  0  0
   10.3400    6.1726   14.3081 C   0  0  0  0  0  0  0  0  0  0  0  0
    7.4297    7.5873   24.8962 C   0  0  0  0  0  0  0  0  0  0  0  0
    8.1566   10.0536   16.0516 O   0  0  0  0  0  0  0  0  0  0  0  0
   12.4989    6.2074   20.1776 C   0  0  0  0  0  0  0  0  0  0  0  0
    6.9192    9.1053   20.9073 O   0  0  0  0  0  0  0  0  0  0  0  0
   14.3979    6.0729   18.7784 C   0  0  0  0  0  0  0  0  0  0  0  0
    8.6811    9.5354   16.9998 C   0  0  0  0  0  0  0  0  0  0  0  0
    9.2512    4.2713   13.7653 O   0  0  0  0  0  0  0  0  0  0  0  0
    9.6495    8.6317   16.8332 N   0  0  0  0  0  0  0  0  0  0  0  0
    6.2934    8.6988   23.1988 O   0  0  0  0  0  0  0  0  0  0  0  0
    7.9806    8.6543   20.5437 C   0  0  0  0  0  0  0  0  0  0  0  0
   13.7270    5.7144   19.8610 O   0  0  0  0  0  0  0  0  0  0  0  0
    8.3351    5.5235   15.4478 C   0  0  0  0  0  0  0  0  0  0  0  0
    8.7700    7.8434   21.3915 C   0  0  0  0  0  0  0  0  0  0  0  0
   11.7856    6.8851   19.2401 C   0  0  0  0  0  0  0  0  0  0  0  0
   10.5281    7.4276   19.5649 C   0  0  0  0  0  0  0  0  0  0  0  0
   10.0256    7.2907   20.8484 C   0  0  0  0  0  0  0  0  0  0  0  0
    9.3113    5.3049   14.4911 C   0  0  0  0  0  0  0  0  0  0  0  0
    9.4607    7.5646   16.0139 C   0  0  0  0  0  0  0  0  0  0  0  0
   10.4192    7.3157   15.0955 C   0  0  0  0  0  0  0  0  0  0  0  0
   10.2489    6.4227   23.0218 N   0  0  0  0  0  0  0  0  0  0  0  0
    7.2472    8.0746   23.5050 C   0  0  0  0  0  0  0  0  0  0  0  0
    9.2051    6.9101   23.4604 C   0  0  0  0  0  0  0  0  0  0  0  0
   11.9646    6.0299   21.4251 C   0  0  0  0  0  0  0  0  0  0  0  0
  1  5  1  0
  1 13  1  0
  2 20  2  0
  2 28  1  0
  2 29  1  0
  3 19  4  0
  3 25  4  0
  4 23  4  0
  4 27  1  0
  4 30  4  0
  5 17  1  0
  6  8  1  0
  6 29  1  0
  7 24  4  0
  7 26  4  0
  8 28  1  0
  9 13  2  0
 10 18  1  0
 10 21  4  0
 10 30  4  0
 11 17  2  0
 12 18  1  0
 13 15  1  0
 14 24  1  0
 15 25  1  0
 16 28  2  0
 17 20  1  0
 19 24  4  0
 20 23  1  0
 21 22  4  0
 22 23  4  0
 25 26  4  0
 27 29  2  0
M  END
$$$$

 Created by Python create_sdf_string function

 30 33  0  0  0  0  0  0  0  0999 V2000
    8.3036    9.8571   18.4133 C   0  0  0  0  0  0  0  0  0  0  0  0
    8.3694    7.6612   22.6703 C   0  0  0  0  0  0  0  0  0  0  0  0
    8.4143    6.6863   16.2273 C   0  0  0  0  0  0  0  0  0  0  0  0
   10.7581    6.5674   21.7636 C   0  0  0  0  0  0  0  0  0  0  0  0
    8.4452    8.7960   19.2958 O   0  0  0  0  0  0  0  0  0  0  0  0
    8.7122    6.7842   24.8569 C   0  0  0  0  0  0  0  0  0  0  0  0
   10.3400    6.1726   14.3081 C   0  0  0  0  0  0  0  0  0  0  0  0
    7.4297    7.5873   24.8962 C   0  0  0  0  0  0  0  0  0  0  0  0
    8.1566   10.0536   16.0516 O   0  0  0  0  0  0  0  0  0  0  0  0
   12.4989    6.2074   20.1776 C   0  0  0  0  0  0  0  0  0  0  0  0
    6.9192    9.1053   20.9073 O   0  0  0  0  0  0  0  0  0  0  0  0
   14.3979    6.0729   18.7784 C   0  0  0  0  0  0  0  0  0  0  0  0
    8.6811    9.5354   16.9998 C   0  0  0  0  0  0  0  0  0  0  0  0
    9.2512    4.2713   13.7653 O   0  0  0  0  0  0  0  0  0  0  0  0
    9.6495    8.6317   16.8332 N   0  0  0  0  0  0  0  0  0  0  0  0
    6.2934    8.6988   23.1988 O   0  0  0  0  0  0  0  0  0  0  0  0
    7.9806    8.6543   20.5437 C   0  0  0  0  0  0  0  0  0  0  0  0
   13.7270    5.7144   19.8610 O   0  0  0  0  0  0  0  0  0  0  0  0
    8.3351    5.5235   15.4478 C   0  0  0  0  0  0  0  0  0  0  0  0
    8.7700    7.8434   21.3915 C   0  0  0  0  0  0  0  0  0  0  0  0
   11.7856    6.8851   19.2401 C   0  0  0  0  0  0  0  0  0  0  0  0
   10.5281    7.4276   19.5649 C   0  0  0  0  0  0  0  0  0  0  0  0
   10.0256    7.2907   20.8484 C   0  0  0  0  0  0  0  0  0  0  0  0
    9.3113    5.3049   14.4911 C   0  0  0  0  0  0  0  0  0  0  0  0
    9.4607    7.5646   16.0139 C   0  0  0  0  0  0  0  0  0  0  0  0
   10.4192    7.3157   15.0955 C   0  0  0  0  0  0  0  0  0  0  0  0
   10.2489    6.4227   23.0218 N   0  0  0  0  0  0  0  0  0  0  0  0
    7.2472    8.0746   23.5050 C   0  0  0  0  0  0  0  0  0  0  0  0
    9.2051    6.9101   23.4604 C   0  0  0  0  0  0  0  0  0  0  0  0
   11.9646    6.0299   21.4251 C   0  0  0  0  0  0  0  0  0  0  0  0
  1  5  1  0
  1 13  1  0
  2 20  2  0
  2 28  1  0
  2 29  1  0
  3 19  4  0
  3 25  4  0
  4 23  4  0
  4 27  1  0
  4 30  4  0
  5 17  1  0
  6  8  1  0
  6 29  1  0
  7 24  4  0
  7 26  4  0
  8 28  1  0
  9 13  2  0
 10 18  1  0
 10 21  4  0
 10 30  4  0
 11 17  2  0
 12 18  1  0
 13 15  1  0
 14 24  1  0
 15 25  1  0
 16 28  2  0
 17 20  1  0
 19 24  4  0
 20 23  1  0
 21 22  4  0
 22 23  4  0
 25 26  4  0
 27 29  2  0
M  END
$$$$

 Created by Python create_sdf_string function

 30 33  0  0  0  0  0  0  0  0999 V2000
    8.3036    9.8571   18.4133 C   0  0  0  0  0  0  0  0  0  0  0  0
    8.3694    7.6612   22.6703 C   0  0  0  0  0  0  0  0  0  0  0  0
    8.4143    6.6863   16.2273 C   0  0  0  0  0  0  0  0  0  0  0  0
   10.7581    6.5674   21.7636 C   0  0  0  0  0  0  0  0  0  0  0  0
    8.4452    8.7960   19.2958 O   0  0  0  0  0  0  0  0  0  0  0  0
    8.7122    6.7842   24.8569 C   0  0  0  0  0  0  0  0  0  0  0  0
   10.3400    6.1726   14.3081 C   0  0  0  0  0  0  0  0  0  0  0  0
    7.4297    7.5873   24.8962 C   0  0  0  0  0  0  0  0  0  0  0  0
    8.1566   10.0536   16.0516 O   0  0  0  0  0  0  0  0  0  0  0  0
   12.4989    6.2074   20.1776 C   0  0  0  0  0  0  0  0  0  0  0  0
    6.9192    9.1053   20.9073 O   0  0  0  0  0  0  0  0  0  0  0  0
   14.3979    6.0729   18.7784 C   0  0  0  0  0  0  0  0  0  0  0  0
    8.6811    9.5354   16.9998 C   0  0  0  0  0  0  0  0  0  0  0  0
    9.2512    4.2713   13.7653 O   0  0  0  0  0  0  0  0  0  0  0  0
    9.6495    8.6317   16.8332 N   0  0  0  0  0  0  0  0  0  0  0  0
    6.2934    8.6988   23.1988 O   0  0  0  0  0  0  0  0  0  0  0  0
    7.9806    8.6543   20.5437 C   0  0  0  0  0  0  0  0  0  0  0  0
   13.7270    5.7144   19.8610 O   0  0  0  0  0  0  0  0  0  0  0  0
    8.3351    5.5235   15.4478 C   0  0  0  0  0  0  0  0  0  0  0  0
    8.7700    7.8434   21.3915 C   0  0  0  0  0  0  0  0  0  0  0  0
   11.7856    6.8851   19.2401 C   0  0  0  0  0  0  0  0  0  0  0  0
   10.5281    7.4276   19.5649 C   0  0  0  0  0  0  0  0  0  0  0  0
   10.0256    7.2907   20.8484 C   0  0  0  0  0  0  0  0  0  0  0  0
    9.3113    5.3049   14.4911 C   0  0  0  0  0  0  0  0  0  0  0  0
    9.4607    7.5646   16.0139 C   0  0  0  0  0  0  0  0  0  0  0  0
   10.4192    7.3157   15.0955 C   0  0  0  0  0  0  0  0  0  0  0  0
   10.2489    6.4227   23.0218 N   0  0  0  0  0  0  0  0  0  0  0  0
    7.2472    8.0746   23.5050 C   0  0  0  0  0  0  0  0  0  0  0  0
    9.2051    6.9101   23.4604 C   0  0  0  0  0  0  0  0  0  0  0  0
   11.9646    6.0299   21.4251 C   0  0  0  0  0  0  0  0  0  0  0  0
  1  5  1  0
  1 13  1  0
  2 20  2  0
  2 28  1  0
  2 29  1  0
  3 19  4  0
  3 25  4  0
  4 23  4  0
  4 27  1  0
  4 30  4  0
  5 17  1  0
  6  8  1  0
  6 29  1  0
  7 24  4  0
  7 26  4  0
  8 28  1  0
  9 13  2  0
 10 18  1  0
 10 21  4  0
 10 30  4  0
 11 17  2  0
 12 18  1  0
 13 15  1  0
 14 24  1  0
 15 25  1  0
 16 28  2  0
 17 20  1  0
 19 24  4  0
 20 23  1  0
 21 22  4  0
 22 23  4  0
 25 26  4  0
 27 29  2  0
M  END
$$$$

 Created by Python create_sdf_string function

 30 33  0  0  0  0  0  0  0  0999 V2000
    8.3036    9.8571   18.4133 C   0  0  0  0  0  0  0  0  0  0  0  0
    8.3694    7.6612   22.6703 C   0  0  0  0  0  0  0  0  0  0  0  0
    8.4143    6.6863   16.2273 C   0  0  0  0  0  0  0  0  0  0  0  0
   10.7581    6.5674   21.7636 C   0  0  0  0  0  0  0  0  0  0  0  0
    8.4452    8.7960   19.2958 O   0  0  0  0  0  0  0  0  0  0  0  0
    8.7122    6.7842   24.8569 C   0  0  0  0  0  0  0  0  0  0  0  0
   10.3400    6.1726   14.3081 C   0  0  0  0  0  0  0  0  0  0  0  0
    7.4297    7.5873   24.8962 C   0  0  0  0  0  0  0  0  0  0  0  0
    8.1566   10.0536   16.0516 O   0  0  0  0  0  0  0  0  0  0  0  0
   12.4989    6.2074   20.1776 C   0  0  0  0  0  0  0  0  0  0  0  0
    6.9192    9.1053   20.9073 O   0  0  0  0  0  0  0  0  0  0  0  0
   14.3979    6.0729   18.7784 C   0  0  0  0  0  0  0  0  0  0  0  0
    8.6811    9.5354   16.9998 C   0  0  0  0  0  0  0  0  0  0  0  0
    9.2512    4.2713   13.7653 O   0  0  0  0  0  0  0  0  0  0  0  0
    9.6495    8.6317   16.8332 N   0  0  0  0  0  0  0  0  0  0  0  0
    6.2934    8.6988   23.1988 O   0  0  0  0  0  0  0  0  0  0  0  0
    7.9806    8.6543   20.5437 C   0  0  0  0  0  0  0  0  0  0  0  0
   13.7270    5.7144   19.8610 O   0  0  0  0  0  0  0  0  0  0  0  0
    8.3351    5.5235   15.4478 C   0  0  0  0  0  0  0  0  0  0  0  0
    8.7700    7.8434   21.3915 C   0  0  0  0  0  0  0  0  0  0  0  0
   11.7856    6.8851   19.2401 C   0  0  0  0  0  0  0  0  0  0  0  0
   10.5281    7.4276   19.5649 C   0  0  0  0  0  0  0  0  0  0  0  0
   10.0256    7.2907   20.8484 C   0  0  0  0  0  0  0  0  0  0  0  0
    9.3113    5.3049   14.4911 C   0  0  0  0  0  0  0  0  0  0  0  0
    9.4607    7.5646   16.0139 C   0  0  0  0  0  0  0  0  0  0  0  0
   10.4192    7.3157   15.0955 C   0  0  0  0  0  0  0  0  0  0  0  0
   10.2489    6.4227   23.0218 N   0  0  0  0  0  0  0  0  0  0  0  0
    7.2472    8.0746   23.5050 C   0  0  0  0  0  0  0  0  0  0  0  0
    9.2051    6.9101   23.4604 C   0  0  0  0  0  0  0  0  0  0  0  0
   11.9646    6.0299   21.4251 C   0  0  0  0  0  0  0  0  0  0  0  0
  1  5  1  0
  1 13  1  0
  2 20  2  0
  2 28  1  0
  2 29  1  0
  3 19  4  0
  3 25  4  0
  4 23  4  0
  4 27  1  0
  4 30  4  0
  5 17  1  0
  6  8  1  0
  6 29  1  0
  7 24  4  0
  7 26  4  0
  8 28  1  0
  9 13  2  0
 10 18  1  0
 10 21  4  0
 10 30  4  0
 11 17  2  0
 12 18  1  0
 13 15  1  0
 14 24  1  0
 15 25  1  0
 16 28  2  0
 17 20  1  0
 19 24  4  0
 20 23  1  0
 21 22  4  0
 22 23  4  0
 25 26  4  0
 27 29  2  0
M  END
$$$$

 Created by Python create_sdf_string function

 30 33  0  0  0  0  0  0  0  0999 V2000
    8.3036    9.8571   18.4133 C   0  0  0  0  0  0  0  0  0  0  0  0
    8.3694    7.6612   22.6703 C   0  0  0  0  0  0  0  0  0  0  0  0
    8.4143    6.6863   16.2273 C   0  0  0  0  0  0  0  0  0  0  0  0
   10.7581    6.5674   21.7636 C   0  0  0  0  0  0  0  0  0  0  0  0
    8.4452    8.7960   19.2958 O   0  0  0  0  0  0  0  0  0  0  0  0
    8.7122    6.7842   24.8569 C   0  0  0  0  0  0  0  0  0  0  0  0
   10.3400    6.1726   14.3081 C   0  0  0  0  0  0  0  0  0  0  0  0
    7.4297    7.5873   24.8962 C   0  0  0  0  0  0  0  0  0  0  0  0
    8.1566   10.0536   16.0516 O   0  0  0  0  0  0  0  0  0  0  0  0
   12.4989    6.2074   20.1776 C   0  0  0  0  0  0  0  0  0  0  0  0
    6.9192    9.1053   20.9073 O   0  0  0  0  0  0  0  0  0  0  0  0
   14.3979    6.0729   18.7784 C   0  0  0  0  0  0  0  0  0  0  0  0
    8.6811    9.5354   16.9998 C   0  0  0  0  0  0  0  0  0  0  0  0
    9.2512    4.2713   13.7653 O   0  0  0  0  0  0  0  0  0  0  0  0
    9.6495    8.6317   16.8332 N   0  0  0  0  0  0  0  0  0  0  0  0
    6.2934    8.6988   23.1988 O   0  0  0  0  0  0  0  0  0  0  0  0
    7.9806    8.6543   20.5437 C   0  0  0  0  0  0  0  0  0  0  0  0
   13.7270    5.7144   19.8610 O   0  0  0  0  0  0  0  0  0  0  0  0
    8.3351    5.5235   15.4478 C   0  0  0  0  0  0  0  0  0  0  0  0
    8.7700    7.8434   21.3915 C   0  0  0  0  0  0  0  0  0  0  0  0
   11.7856    6.8851   19.2401 C   0  0  0  0  0  0  0  0  0  0  0  0
   10.5281    7.4276   19.5649 C   0  0  0  0  0  0  0  0  0  0  0  0
   10.0256    7.2907   20.8484 C   0  0  0  0  0  0  0  0  0  0  0  0
    9.3113    5.3049   14.4911 C   0  0  0  0  0  0  0  0  0  0  0  0
    9.4607    7.5646   16.0139 C   0  0  0  0  0  0  0  0  0  0  0  0
   10.4192    7.3157   15.0955 C   0  0  0  0  0  0  0  0  0  0  0  0
   10.2489    6.4227   23.0218 N   0  0  0  0  0  0  0  0  0  0  0  0
    7.2472    8.0746   23.5050 C   0  0  0  0  0  0  0  0  0  0  0  0
    9.2051    6.9101   23.4604 C   0  0  0  0  0  0  0  0  0  0  0  0
   11.9646    6.0299   21.4251 C   0  0  0  0  0  0  0  0  0  0  0  0
  1  5  1  0
  1 13  1  0
  2 20  2  0
  2 28  1  0
  2 29  1  0
  3 19  4  0
  3 25  4  0
  4 23  4  0
  4 27  1  0
  4 30  4  0
  5 17  1  0
  6  8  1  0
  6 29  1  0
  7 24  4  0
  7 26  4  0
  8 28  1  0
  9 13  2  0
 10 18  1  0
 10 21  4  0
 10 30  4  0
 11 17  2  0
 12 18  1  0
 13 15  1  0
 14 24  1  0
 15 25  1  0
 16 28  2  0
 17 20  1  0
 19 24  4  0
 20 23  1  0
 21 22  4  0
 22 23  4  0
 25 26  4  0
 27 29  2  0
M  END
$$$$

 Created by Python create_sdf_string function

 30 33  0  0  0  0  0  0  0  0999 V2000
    8.3036    9.8571   18.4133 C   0  0  0  0  0  0  0  0  0  0  0  0
    8.3694    7.6612   22.6703 C   0  0  0  0  0  0  0  0  0  0  0  0
    8.4143    6.6863   16.2273 C   0  0  0  0  0  0  0  0  0  0  0  0
   10.7581    6.5674   21.7636 C   0  0  0  0  0  0  0  0  0  0  0  0
    8.4452    8.7960   19.2958 O   0  0  0  0  0  0  0  0  0  0  0  0
    8.7122    6.7842   24.8569 C   0  0  0  0  0  0  0  0  0  0  0  0
   10.3400    6.1726   14.3081 C   0  0  0  0  0  0  0  0  0  0  0  0
    7.4297    7.5873   24.8962 C   0  0  0  0  0  0  0  0  0  0  0  0
    8.1566   10.0536   16.0516 O   0  0  0  0  0  0  0  0  0  0  0  0
   12.4989    6.2074   20.1776 C   0  0  0  0  0  0  0  0  0  0  0  0
    6.9192    9.1053   20.9073 O   0  0  0  0  0  0  0  0  0  0  0  0
   14.3979    6.0729   18.7784 C   0  0  0  0  0  0  0  0  0  0  0  0
    8.6811    9.5354   16.9998 C   0  0  0  0  0  0  0  0  0  0  0  0
    9.2512    4.2713   13.7653 O   0  0  0  0  0  0  0  0  0  0  0  0
    9.6495    8.6317   16.8332 N   0  0  0  0  0  0  0  0  0  0  0  0
    6.2934    8.6988   23.1988 O   0  0  0  0  0  0  0  0  0  0  0  0
    7.9806    8.6543   20.5437 C   0  0  0  0  0  0  0  0  0  0  0  0
   13.7270    5.7144   19.8610 O   0  0  0  0  0  0  0  0  0  0  0  0
    8.3351    5.5235   15.4478 C   0  0  0  0  0  0  0  0  0  0  0  0
    8.7700    7.8434   21.3915 C   0  0  0  0  0  0  0  0  0  0  0  0
   11.7856    6.8851   19.2401 C   0  0  0  0  0  0  0  0  0  0  0  0
   10.5281    7.4276   19.5649 C   0  0  0  0  0  0  0  0  0  0  0  0
   10.0256    7.2907   20.8484 C   0  0  0  0  0  0  0  0  0  0  0  0
    9.3113    5.3049   14.4911 C   0  0  0  0  0  0  0  0  0  0  0  0
    9.4607    7.5646   16.0139 C   0  0  0  0  0  0  0  0  0  0  0  0
   10.4192    7.3157   15.0955 C   0  0  0  0  0  0  0  0  0  0  0  0
   10.2489    6.4227   23.0218 N   0  0  0  0  0  0  0  0  0  0  0  0
    7.2472    8.0746   23.5050 C   0  0  0  0  0  0  0  0  0  0  0  0
    9.2051    6.9101   23.4604 C   0  0  0  0  0  0  0  0  0  0  0  0
   11.9646    6.0299   21.4251 C   0  0  0  0  0  0  0  0  0  0  0  0
  1  5  1  0
  1 13  1  0
  2 20  2  0
  2 28  1  0
  2 29  1  0
  3 19  4  0
  3 25  4  0
  4 23  4  0
  4 27  1  0
  4 30  4  0
  5 17  1  0
  6  8  1  0
  6 29  1  0
  7 24  4  0
  7 26  4  0
  8 28  1  0
  9 13  2  0
 10 18  1  0
 10 21  4  0
 10 30  4  0
 11 17  2  0
 12 18  1  0
 13 15  1  0
 14 24  1  0
 15 25  1  0
 16 28  2  0
 17 20  1  0
 19 24  4  0
 20 23  1  0
 21 22  4  0
 22 23  4  0
 25 26  4  0
 27 29  2  0
M  END
$$$$

 Created by Python create_sdf_string function

 30 33  0  0  0  0  0  0  0  0999 V2000
    8.3036    9.8571   18.4133 C   0  0  0  0  0  0  0  0  0  0  0  0
    8.3694    7.6612   22.6703 C   0  0  0  0  0  0  0  0  0  0  0  0
    8.4143    6.6863   16.2273 C   0  0  0  0  0  0  0  0  0  0  0  0
   10.7581    6.5674   21.7636 C   0  0  0  0  0  0  0  0  0  0  0  0
    8.4452    8.7960   19.2958 O   0  0  0  0  0  0  0  0  0  0  0  0
    8.7122    6.7842   24.8569 C   0  0  0  0  0  0  0  0  0  0  0  0
   10.3400    6.1726   14.3081 C   0  0  0  0  0  0  0  0  0  0  0  0
    7.4297    7.5873   24.8962 C   0  0  0  0  0  0  0  0  0  0  0  0
    8.1566   10.0536   16.0516 O   0  0  0  0  0  0  0  0  0  0  0  0
   12.4989    6.2074   20.1776 C   0  0  0  0  0  0  0  0  0  0  0  0
    6.9192    9.1053   20.9073 O   0  0  0  0  0  0  0  0  0  0  0  0
   14.3979    6.0729   18.7784 C   0  0  0  0  0  0  0  0  0  0  0  0
    8.6811    9.5354   16.9998 C   0  0  0  0  0  0  0  0  0  0  0  0
    9.2512    4.2713   13.7653 O   0  0  0  0  0  0  0  0  0  0  0  0
    9.6495    8.6317   16.8332 N   0  0  0  0  0  0  0  0  0  0  0  0
    6.2934    8.6988   23.1988 O   0  0  0  0  0  0  0  0  0  0  0  0
    7.9806    8.6543   20.5437 C   0  0  0  0  0  0  0  0  0  0  0  0
   13.7270    5.7144   19.8610 O   0  0  0  0  0  0  0  0  0  0  0  0
    8.3351    5.5235   15.4478 C   0  0  0  0  0  0  0  0  0  0  0  0
    8.7700    7.8434   21.3915 C   0  0  0  0  0  0  0  0  0  0  0  0
   11.7856    6.8851   19.2401 C   0  0  0  0  0  0  0  0  0  0  0  0
   10.5281    7.4276   19.5649 C   0  0  0  0  0  0  0  0  0  0  0  0
   10.0256    7.2907   20.8484 C   0  0  0  0  0  0  0  0  0  0  0  0
    9.3113    5.3049   14.4911 C   0  0  0  0  0  0  0  0  0  0  0  0
    9.4607    7.5646   16.0139 C   0  0  0  0  0  0  0  0  0  0  0  0
   10.4192    7.3157   15.0955 C   0  0  0  0  0  0  0  0  0  0  0  0
   10.2489    6.4227   23.0218 N   0  0  0  0  0  0  0  0  0  0  0  0
    7.2472    8.0746   23.5050 C   0  0  0  0  0  0  0  0  0  0  0  0
    9.2051    6.9101   23.4604 C   0  0  0  0  0  0  0  0  0  0  0  0
   11.9646    6.0299   21.4251 C   0  0  0  0  0  0  0  0  0  0  0  0
  1  5  1  0
  1 13  1  0
  2 20  2  0
  2 28  1  0
  2 29  1  0
  3 19  4  0
  3 25  4  0
  4 23  4  0
  4 27  1  0
  4 30  4  0
  5 17  1  0
  6  8  1  0
  6 29  1  0
  7 24  4  0
  7 26  4  0
  8 28  1  0
  9 13  2  0
 10 18  1  0
 10 21  4  0
 10 30  4  0
 11 17  2  0
 12 18  1  0
 13 15  1  0
 14 24  1  0
 15 25  1  0
 16 28  2  0
 17 20  1  0
 19 24  4  0
 20 23  1  0
 21 22  4  0
 22 23  4  0
 25 26  4  0
 27 29  2  0
M  END
$$$$

 Created by Python create_sdf_string function

 30 33  0  0  0  0  0  0  0  0999 V2000
    8.3036    9.8571   18.4133 C   0  0  0  0  0  0  0  0  0  0  0  0
    8.3694    7.6612   22.6703 C   0  0  0  0  0  0  0  0  0  0  0  0
    8.4143    6.6863   16.2273 C   0  0  0  0  0  0  0  0  0  0  0  0
   10.7581    6.5674   21.7636 C   0  0  0  0  0  0  0  0  0  0  0  0
    8.4452    8.7960   19.2958 O   0  0  0  0  0  0  0  0  0  0  0  0
    8.7122    6.7842   24.8569 C   0  0  0  0  0  0  0  0  0  0  0  0
   10.3400    6.1726   14.3081 C   0  0  0  0  0  0  0  0  0  0  0  0
    7.4297    7.5873   24.8962 C   0  0  0  0  0  0  0  0  0  0  0  0
    8.1566   10.0536   16.0516 O   0  0  0  0  0  0  0  0  0  0  0  0
   12.4989    6.2074   20.1776 C   0  0  0  0  0  0  0  0  0  0  0  0
    6.9192    9.1053   20.9073 O   0  0  0  0  0  0  0  0  0  0  0  0
   14.3979    6.0729   18.7784 C   0  0  0  0  0  0  0  0  0  0  0  0
    8.6811    9.5354   16.9998 C   0  0  0  0  0  0  0  0  0  0  0  0
    9.2512    4.2713   13.7653 O   0  0  0  0  0  0  0  0  0  0  0  0
    9.6495    8.6317   16.8332 N   0  0  0  0  0  0  0  0  0  0  0  0
    6.2934    8.6988   23.1988 O   0  0  0  0  0  0  0  0  0  0  0  0
    7.9806    8.6543   20.5437 C   0  0  0  0  0  0  0  0  0  0  0  0
   13.7270    5.7144   19.8610 O   0  0  0  0  0  0  0  0  0  0  0  0
    8.3351    5.5235   15.4478 C   0  0  0  0  0  0  0  0  0  0  0  0
    8.7700    7.8434   21.3915 C   0  0  0  0  0  0  0  0  0  0  0  0
   11.7856    6.8851   19.2401 C   0  0  0  0  0  0  0  0  0  0  0  0
   10.5281    7.4276   19.5649 C   0  0  0  0  0  0  0  0  0  0  0  0
   10.0256    7.2907   20.8484 C   0  0  0  0  0  0  0  0  0  0  0  0
    9.3113    5.3049   14.4911 C   0  0  0  0  0  0  0  0  0  0  0  0
    9.4607    7.5646   16.0139 C   0  0  0  0  0  0  0  0  0  0  0  0
   10.4192    7.3157   15.0955 C   0  0  0  0  0  0  0  0  0  0  0  0
   10.2489    6.4227   23.0218 N   0  0  0  0  0  0  0  0  0  0  0  0
    7.2472    8.0746   23.5050 C   0  0  0  0  0  0  0  0  0  0  0  0
    9.2051    6.9101   23.4604 C   0  0  0  0  0  0  0  0  0  0  0  0
   11.9646    6.0299   21.4251 C   0  0  0  0  0  0  0  0  0  0  0  0
  1  5  1  0
  1 13  1  0
  2 20  2  0
  2 28  1  0
  2 29  1  0
  3 19  4  0
  3 25  4  0
  4 23  4  0
  4 27  1  0
  4 30  4  0
  5 17  1  0
  6  8  1  0
  6 29  1  0
  7 24  4  0
  7 26  4  0
  8 28  1  0
  9 13  2  0
 10 18  1  0
 10 21  4  0
 10 30  4  0
 11 17  2  0
 12 18  1  0
 13 15  1  0
 14 24  1  0
 15 25  1  0
 16 28  2  0
 17 20  1  0
 19 24  4  0
 20 23  1  0
 21 22  4  0
 22 23  4  0
 25 26  4  0
 27 29  2  0
M  END
$$$$

 Created by Python create_sdf_string function

 30 33  0  0  0  0  0  0  0  0999 V2000
    8.3036    9.8571   18.4133 C   0  0  0  0  0  0  0  0  0  0  0  0
    8.3694    7.6612   22.6703 C   0  0  0  0  0  0  0  0  0  0  0  0
    8.4143    6.6863   16.2273 C   0  0  0  0  0  0  0  0  0  0  0  0
   10.7581    6.5674   21.7636 C   0  0  0  0  0  0  0  0  0  0  0  0
    8.4452    8.7960   19.2958 O   0  0  0  0  0  0  0  0  0  0  0  0
    8.7122    6.7842   24.8569 C   0  0  0  0  0  0  0  0  0  0  0  0
   10.3400    6.1726   14.3081 C   0  0  0  0  0  0  0  0  0  0  0  0
    7.4297    7.5873   24.8962 C   0  0  0  0  0  0  0  0  0  0  0  0
    8.1566   10.0536   16.0516 O   0  0  0  0  0  0  0  0  0  0  0  0
   12.4989    6.2074   20.1776 C   0  0  0  0  0  0  0  0  0  0  0  0
    6.9192    9.1053   20.9073 O   0  0  0  0  0  0  0  0  0  0  0  0
   14.3979    6.0729   18.7784 C   0  0  0  0  0  0  0  0  0  0  0  0
    8.6811    9.5354   16.9998 C   0  0  0  0  0  0  0  0  0  0  0  0
    9.2512    4.2713   13.7653 O   0  0  0  0  0  0  0  0  0  0  0  0
    9.6495    8.6317   16.8332 N   0  0  0  0  0  0  0  0  0  0  0  0
    6.2934    8.6988   23.1988 O   0  0  0  0  0  0  0  0  0  0  0  0
    7.9806    8.6543   20.5437 C   0  0  0  0  0  0  0  0  0  0  0  0
   13.7270    5.7144   19.8610 O   0  0  0  0  0  0  0  0  0  0  0  0
    8.3351    5.5235   15.4478 C   0  0  0  0  0  0  0  0  0  0  0  0
    8.7700    7.8434   21.3915 C   0  0  0  0  0  0  0  0  0  0  0  0
   11.7856    6.8851   19.2401 C   0  0  0  0  0  0  0  0  0  0  0  0
   10.5281    7.4276   19.5649 C   0  0  0  0  0  0  0  0  0  0  0  0
   10.0256    7.2907   20.8484 C   0  0  0  0  0  0  0  0  0  0  0  0
    9.3113    5.3049   14.4911 C   0  0  0  0  0  0  0  0  0  0  0  0
    9.4607    7.5646   16.0139 C   0  0  0  0  0  0  0  0  0  0  0  0
   10.4192    7.3157   15.0955 C   0  0  0  0  0  0  0  0  0  0  0  0
   10.2489    6.4227   23.0218 N   0  0  0  0  0  0  0  0  0  0  0  0
    7.2472    8.0746   23.5050 C   0  0  0  0  0  0  0  0  0  0  0  0
    9.2051    6.9101   23.4604 C   0  0  0  0  0  0  0  0  0  0  0  0
   11.9646    6.0299   21.4251 C   0  0  0  0  0  0  0  0  0  0  0  0
  1  5  1  0
  1 13  1  0
  2 20  2  0
  2 28  1  0
  2 29  1  0
  3 19  4  0
  3 25  4  0
  4 23  4  0
  4 27  1  0
  4 30  4  0
  5 17  1  0
  6  8  1  0
  6 29  1  0
  7 24  4  0
  7 26  4  0
  8 28  1  0
  9 13  2  0
 10 18  1  0
 10 21  4  0
 10 30  4  0
 11 17  2  0
 12 18  1  0
 13 15  1  0
 14 24  1  0
 15 25  1  0
 16 28  2  0
 17 20  1  0
 19 24  4  0
 20 23  1  0
 21 22  4  0
 22 23  4  0
 25 26  4  0
 27 29  2  0
M  END
$$$$

 Created by Python create_sdf_string function

 30 33  0  0  0  0  0  0  0  0999 V2000
    8.3036    9.8571   18.4133 C   0  0  0  0  0  0  0  0  0  0  0  0
    8.3694    7.6612   22.6703 C   0  0  0  0  0  0  0  0  0  0  0  0
    8.4143    6.6863   16.2273 C   0  0  0  0  0  0  0  0  0  0  0  0
   10.7581    6.5674   21.7636 C   0  0  0  0  0  0  0  0  0  0  0  0
    8.4452    8.7960   19.2958 O   0  0  0  0  0  0  0  0  0  0  0  0
    8.7122    6.7842   24.8569 C   0  0  0  0  0  0  0  0  0  0  0  0
   10.3400    6.1726   14.3081 C   0  0  0  0  0  0  0  0  0  0  0  0
    7.4297    7.5873   24.8962 C   0  0  0  0  0  0  0  0  0  0  0  0
    8.1566   10.0536   16.0516 O   0  0  0  0  0  0  0  0  0  0  0  0
   12.4989    6.2074   20.1776 C   0  0  0  0  0  0  0  0  0  0  0  0
    6.9192    9.1053   20.9073 O   0  0  0  0  0  0  0  0  0  0  0  0
   14.3979    6.0729   18.7784 C   0  0  0  0  0  0  0  0  0  0  0  0
    8.6811    9.5354   16.9998 C   0  0  0  0  0  0  0  0  0  0  0  0
    9.2512    4.2713   13.7653 O   0  0  0  0  0  0  0  0  0  0  0  0
    9.6495    8.6317   16.8332 N   0  0  0  0  0  0  0  0  0  0  0  0
    6.2934    8.6988   23.1988 O   0  0  0  0  0  0  0  0  0  0  0  0
    7.9806    8.6543   20.5437 C   0  0  0  0  0  0  0  0  0  0  0  0
   13.7270    5.7144   19.8610 O   0  0  0  0  0  0  0  0  0  0  0  0
    8.3351    5.5235   15.4478 C   0  0  0  0  0  0  0  0  0  0  0  0
    8.7700    7.8434   21.3915 C   0  0  0  0  0  0  0  0  0  0  0  0
   11.7856    6.8851   19.2401 C   0  0  0  0  0  0  0  0  0  0  0  0
   10.5281    7.4276   19.5649 C   0  0  0  0  0  0  0  0  0  0  0  0
   10.0256    7.2907   20.8484 C   0  0  0  0  0  0  0  0  0  0  0  0
    9.3113    5.3049   14.4911 C   0  0  0  0  0  0  0  0  0  0  0  0
    9.4607    7.5646   16.0139 C   0  0  0  0  0  0  0  0  0  0  0  0
   10.4192    7.3157   15.0955 C   0  0  0  0  0  0  0  0  0  0  0  0
   10.2489    6.4227   23.0218 N   0  0  0  0  0  0  0  0  0  0  0  0
    7.2472    8.0746   23.5050 C   0  0  0  0  0  0  0  0  0  0  0  0
    9.2051    6.9101   23.4604 C   0  0  0  0  0  0  0  0  0  0  0  0
   11.9646    6.0299   21.4251 C   0  0  0  0  0  0  0  0  0  0  0  0
  1  5  1  0
  1 13  1  0
  2 20  2  0
  2 28  1  0
  2 29  1  0
  3 19  4  0
  3 25  4  0
  4 23  4  0
  4 27  1  0
  4 30  4  0
  5 17  1  0
  6  8  1  0
  6 29  1  0
  7 24  4  0
  7 26  4  0
  8 28  1  0
  9 13  2  0
 10 18  1  0
 10 21  4  0
 10 30  4  0
 11 17  2  0
 12 18  1  0
 13 15  1  0
 14 24  1  0
 15 25  1  0
 16 28  2  0
 17 20  1  0
 19 24  4  0
 20 23  1  0
 21 22  4  0
 22 23  4  0
 25 26  4  0
 27 29  2  0
M  END
$$$$

 Created by Python create_sdf_string function

 30 33  0  0  0  0  0  0  0  0999 V2000
    8.3036    9.8571   18.4133 C   0  0  0  0  0  0  0  0  0  0  0  0
    8.3694    7.6612   22.6703 C   0  0  0  0  0  0  0  0  0  0  0  0
    8.4143    6.6863   16.2273 C   0  0  0  0  0  0  0  0  0  0  0  0
   10.7581    6.5674   21.7636 C   0  0  0  0  0  0  0  0  0  0  0  0
    8.4452    8.7960   19.2958 O   0  0  0  0  0  0  0  0  0  0  0  0
    8.7122    6.7842   24.8569 C   0  0  0  0  0  0  0  0  0  0  0  0
   10.3400    6.1726   14.3081 C   0  0  0  0  0  0  0  0  0  0  0  0
    7.4297    7.5873   24.8962 C   0  0  0  0  0  0  0  0  0  0  0  0
    8.1566   10.0536   16.0516 O   0  0  0  0  0  0  0  0  0  0  0  0
   12.4989    6.2074   20.1776 C   0  0  0  0  0  0  0  0  0  0  0  0
    6.9192    9.1053   20.9073 O   0  0  0  0  0  0  0  0  0  0  0  0
   14.3979    6.0729   18.7784 C   0  0  0  0  0  0  0  0  0  0  0  0
    8.6811    9.5354   16.9998 C   0  0  0  0  0  0  0  0  0  0  0  0
    9.2512    4.2713   13.7653 O   0  0  0  0  0  0  0  0  0  0  0  0
    9.6495    8.6317   16.8332 N   0  0  0  0  0  0  0  0  0  0  0  0
    6.2934    8.6988   23.1988 O   0  0  0  0  0  0  0  0  0  0  0  0
    7.9806    8.6543   20.5437 C   0  0  0  0  0  0  0  0  0  0  0  0
   13.7270    5.7144   19.8610 O   0  0  0  0  0  0  0  0  0  0  0  0
    8.3351    5.5235   15.4478 C   0  0  0  0  0  0  0  0  0  0  0  0
    8.7700    7.8434   21.3915 C   0  0  0  0  0  0  0  0  0  0  0  0
   11.7856    6.8851   19.2401 C   0  0  0  0  0  0  0  0  0  0  0  0
   10.5281    7.4276   19.5649 C   0  0  0  0  0  0  0  0  0  0  0  0
   10.0256    7.2907   20.8484 C   0  0  0  0  0  0  0  0  0  0  0  0
    9.3113    5.3049   14.4911 C   0  0  0  0  0  0  0  0  0  0  0  0
    9.4607    7.5646   16.0139 C   0  0  0  0  0  0  0  0  0  0  0  0
   10.4192    7.3157   15.0955 C   0  0  0  0  0  0  0  0  0  0  0  0
   10.2489    6.4227   23.0218 N   0  0  0  0  0  0  0  0  0  0  0  0
    7.2472    8.0746   23.5050 C   0  0  0  0  0  0  0  0  0  0  0  0
    9.2051    6.9101   23.4604 C   0  0  0  0  0  0  0  0  0  0  0  0
   11.9646    6.0299   21.4251 C   0  0  0  0  0  0  0  0  0  0  0  0
  1  5  1  0
  1 13  1  0
  2 20  2  0
  2 28  1  0
  2 29  1  0
  3 19  4  0
  3 25  4  0
  4 23  4  0
  4 27  1  0
  4 30  4  0
  5 17  1  0
  6  8  1  0
  6 29  1  0
  7 24  4  0
  7 26  4  0
  8 28  1  0
  9 13  2  0
 10 18  1  0
 10 21  4  0
 10 30  4  0
 11 17  2  0
 12 18  1  0
 13 15  1  0
 14 24  1  0
 15 25  1  0
 16 28  2  0
 17 20  1  0
 19 24  4  0
 20 23  1  0
 21 22  4  0
 22 23  4  0
 25 26  4  0
 27 29  2  0
M  END
$$$$

 Created by Python create_sdf_string function

 30 33  0  0  0  0  0  0  0  0999 V2000
    8.3036    9.8571   18.4133 C   0  0  0  0  0  0  0  0  0  0  0  0
    8.3694    7.6612   22.6703 C   0  0  0  0  0  0  0  0  0  0  0  0
    8.4143    6.6863   16.2273 C   0  0  0  0  0  0  0  0  0  0  0  0
   10.7581    6.5674   21.7636 C   0  0  0  0  0  0  0  0  0  0  0  0
    8.4452    8.7960   19.2958 O   0  0  0  0  0  0  0  0  0  0  0  0
    8.7122    6.7842   24.8569 C   0  0  0  0  0  0  0  0  0  0  0  0
   10.3400    6.1726   14.3081 C   0  0  0  0  0  0  0  0  0  0  0  0
    7.4297    7.5873   24.8962 C   0  0  0  0  0  0  0  0  0  0  0  0
    8.1566   10.0536   16.0516 O   0  0  0  0  0  0  0  0  0  0  0  0
   12.4989    6.2074   20.1776 C   0  0  0  0  0  0  0  0  0  0  0  0
    6.9192    9.1053   20.9073 O   0  0  0  0  0  0  0  0  0  0  0  0
   14.3979    6.0729   18.7784 C   0  0  0  0  0  0  0  0  0  0  0  0
    8.6811    9.5354   16.9998 C   0  0  0  0  0  0  0  0  0  0  0  0
    9.2512    4.2713   13.7653 O   0  0  0  0  0  0  0  0  0  0  0  0
    9.6495    8.6317   16.8332 N   0  0  0  0  0  0  0  0  0  0  0  0
    6.2934    8.6988   23.1988 O   0  0  0  0  0  0  0  0  0  0  0  0
    7.9806    8.6543   20.5437 C   0  0  0  0  0  0  0  0  0  0  0  0
   13.7270    5.7144   19.8610 O   0  0  0  0  0  0  0  0  0  0  0  0
    8.3351    5.5235   15.4478 C   0  0  0  0  0  0  0  0  0  0  0  0
    8.7700    7.8434   21.3915 C   0  0  0  0  0  0  0  0  0  0  0  0
   11.7856    6.8851   19.2401 C   0  0  0  0  0  0  0  0  0  0  0  0
   10.5281    7.4276   19.5649 C   0  0  0  0  0  0  0  0  0  0  0  0
   10.0256    7.2907   20.8484 C   0  0  0  0  0  0  0  0  0  0  0  0
    9.3113    5.3049   14.4911 C   0  0  0  0  0  0  0  0  0  0  0  0
    9.4607    7.5646   16.0139 C   0  0  0  0  0  0  0  0  0  0  0  0
   10.4192    7.3157   15.0955 C   0  0  0  0  0  0  0  0  0  0  0  0
   10.2489    6.4227   23.0218 N   0  0  0  0  0  0  0  0  0  0  0  0
    7.2472    8.0746   23.5050 C   0  0  0  0  0  0  0  0  0  0  0  0
    9.2051    6.9101   23.4604 C   0  0  0  0  0  0  0  0  0  0  0  0
   11.9646    6.0299   21.4251 C   0  0  0  0  0  0  0  0  0  0  0  0
  1  5  1  0
  1 13  1  0
  2 20  2  0
  2 28  1  0
  2 29  1  0
  3 19  4  0
  3 25  4  0
  4 23  4  0
  4 27  1  0
  4 30  4  0
  5 17  1  0
  6  8  1  0
  6 29  1  0
  7 24  4  0
  7 26  4  0
  8 28  1  0
  9 13  2  0
 10 18  1  0
 10 21  4  0
 10 30  4  0
 11 17  2  0
 12 18  1  0
 13 15  1  0
 14 24  1  0
 15 25  1  0
 16 28  2  0
 17 20  1  0
 19 24  4  0
 20 23  1  0
 21 22  4  0
 22 23  4  0
 25 26  4  0
 27 29  2  0
M  END
$$$$

 Created by Python create_sdf_string function

 30 33  0  0  0  0  0  0  0  0999 V2000
    8.3036    9.8571   18.4133 C   0  0  0  0  0  0  0  0  0  0  0  0
    8.3694    7.6612   22.6703 C   0  0  0  0  0  0  0  0  0  0  0  0
    8.4143    6.6863   16.2273 C   0  0  0  0  0  0  0  0  0  0  0  0
   10.7581    6.5674   21.7636 C   0  0  0  0  0  0  0  0  0  0  0  0
    8.4452    8.7960   19.2958 O   0  0  0  0  0  0  0  0  0  0  0  0
    8.7122    6.7842   24.8569 C   0  0  0  0  0  0  0  0  0  0  0  0
   10.3400    6.1726   14.3081 C   0  0  0  0  0  0  0  0  0  0  0  0
    7.4297    7.5873   24.8962 C   0  0  0  0  0  0  0  0  0  0  0  0
    8.1566   10.0536   16.0516 O   0  0  0  0  0  0  0  0  0  0  0  0
   12.4989    6.2074   20.1776 C   0  0  0  0  0  0  0  0  0  0  0  0
    6.9192    9.1053   20.9073 O   0  0  0  0  0  0  0  0  0  0  0  0
   14.3979    6.0729   18.7784 C   0  0  0  0  0  0  0  0  0  0  0  0
    8.6811    9.5354   16.9998 C   0  0  0  0  0  0  0  0  0  0  0  0
    9.2512    4.2713   13.7653 O   0  0  0  0  0  0  0  0  0  0  0  0
    9.6495    8.6317   16.8332 N   0  0  0  0  0  0  0  0  0  0  0  0
    6.2934    8.6988   23.1988 O   0  0  0  0  0  0  0  0  0  0  0  0
    7.9806    8.6543   20.5437 C   0  0  0  0  0  0  0  0  0  0  0  0
   13.7270    5.7144   19.8610 O   0  0  0  0  0  0  0  0  0  0  0  0
    8.3351    5.5235   15.4478 C   0  0  0  0  0  0  0  0  0  0  0  0
    8.7700    7.8434   21.3915 C   0  0  0  0  0  0  0  0  0  0  0  0
   11.7856    6.8851   19.2401 C   0  0  0  0  0  0  0  0  0  0  0  0
   10.5281    7.4276   19.5649 C   0  0  0  0  0  0  0  0  0  0  0  0
   10.0256    7.2907   20.8484 C   0  0  0  0  0  0  0  0  0  0  0  0
    9.3113    5.3049   14.4911 C   0  0  0  0  0  0  0  0  0  0  0  0
    9.4607    7.5646   16.0139 C   0  0  0  0  0  0  0  0  0  0  0  0
   10.4192    7.3157   15.0955 C   0  0  0  0  0  0  0  0  0  0  0  0
   10.2489    6.4227   23.0218 N   0  0  0  0  0  0  0  0  0  0  0  0
    7.2472    8.0746   23.5050 C   0  0  0  0  0  0  0  0  0  0  0  0
    9.2051    6.9101   23.4604 C   0  0  0  0  0  0  0  0  0  0  0  0
   11.9646    6.0299   21.4251 C   0  0  0  0  0  0  0  0  0  0  0  0
  1  5  1  0
  1 13  1  0
  2 20  2  0
  2 28  1  0
  2 29  1  0
  3 19  4  0
  3 25  4  0
  4 23  4  0
  4 27  1  0
  4 30  4  0
  5 17  1  0
  6  8  1  0
  6 29  1  0
  7 24  4  0
  7 26  4  0
  8 28  1  0
  9 13  2  0
 10 18  1  0
 10 21  4  0
 10 30  4  0
 11 17  2  0
 12 18  1  0
 13 15  1  0
 14 24  1  0
 15 25  1  0
 16 28  2  0
 17 20  1  0
 19 24  4  0
 20 23  1  0
 21 22  4  0
 22 23  4  0
 25 26  4  0
 27 29  2  0
M  END
$$$$

 Created by Python create_sdf_string function

 30 33  0  0  0  0  0  0  0  0999 V2000
    8.3036    9.8571   18.4133 C   0  0  0  0  0  0  0  0  0  0  0  0
    8.3694    7.6612   22.6703 C   0  0  0  0  0  0  0  0  0  0  0  0
    8.4143    6.6863   16.2273 C   0  0  0  0  0  0  0  0  0  0  0  0
   10.7581    6.5674   21.7636 C   0  0  0  0  0  0  0  0  0  0  0  0
    8.4452    8.7960   19.2958 O   0  0  0  0  0  0  0  0  0  0  0  0
    8.7122    6.7842   24.8569 C   0  0  0  0  0  0  0  0  0  0  0  0
   10.3400    6.1726   14.3081 C   0  0  0  0  0  0  0  0  0  0  0  0
    7.4297    7.5873   24.8962 C   0  0  0  0  0  0  0  0  0  0  0  0
    8.1566   10.0536   16.0516 O   0  0  0  0  0  0  0  0  0  0  0  0
   12.4989    6.2074   20.1776 C   0  0  0  0  0  0  0  0  0  0  0  0
    6.9192    9.1053   20.9073 O   0  0  0  0  0  0  0  0  0  0  0  0
   14.3979    6.0729   18.7784 C   0  0  0  0  0  0  0  0  0  0  0  0
    8.6811    9.5354   16.9998 C   0  0  0  0  0  0  0  0  0  0  0  0
    9.2512    4.2713   13.7653 O   0  0  0  0  0  0  0  0  0  0  0  0
    9.6495    8.6317   16.8332 N   0  0  0  0  0  0  0  0  0  0  0  0
    6.2934    8.6988   23.1988 O   0  0  0  0  0  0  0  0  0  0  0  0
    7.9806    8.6543   20.5437 C   0  0  0  0  0  0  0  0  0  0  0  0
   13.7270    5.7144   19.8610 O   0  0  0  0  0  0  0  0  0  0  0  0
    8.3351    5.5235   15.4478 C   0  0  0  0  0  0  0  0  0  0  0  0
    8.7700    7.8434   21.3915 C   0  0  0  0  0  0  0  0  0  0  0  0
   11.7856    6.8851   19.2401 C   0  0  0  0  0  0  0  0  0  0  0  0
   10.5281    7.4276   19.5649 C   0  0  0  0  0  0  0  0  0  0  0  0
   10.0256    7.2907   20.8484 C   0  0  0  0  0  0  0  0  0  0  0  0
    9.3113    5.3049   14.4911 C   0  0  0  0  0  0  0  0  0  0  0  0
    9.4607    7.5646   16.0139 C   0  0  0  0  0  0  0  0  0  0  0  0
   10.4192    7.3157   15.0955 C   0  0  0  0  0  0  0  0  0  0  0  0
   10.2489    6.4227   23.0218 N   0  0  0  0  0  0  0  0  0  0  0  0
    7.2472    8.0746   23.5050 C   0  0  0  0  0  0  0  0  0  0  0  0
    9.2051    6.9101   23.4604 C   0  0  0  0  0  0  0  0  0  0  0  0
   11.9646    6.0299   21.4251 C   0  0  0  0  0  0  0  0  0  0  0  0
  1  5  1  0
  1 13  1  0
  2 20  2  0
  2 28  1  0
  2 29  1  0
  3 19  4  0
  3 25  4  0
  4 23  4  0
  4 27  1  0
  4 30  4  0
  5 17  1  0
  6  8  1  0
  6 29  1  0
  7 24  4  0
  7 26  4  0
  8 28  1  0
  9 13  2  0
 10 18  1  0
 10 21  4  0
 10 30  4  0
 11 17  2  0
 12 18  1  0
 13 15  1  0
 14 24  1  0
 15 25  1  0
 16 28  2  0
 17 20  1  0
 19 24  4  0
 20 23  1  0
 21 22  4  0
 22 23  4  0
 25 26  4  0
 27 29  2  0
M  END
$$$$

 Created by Python create_sdf_string function

 30 33  0  0  0  0  0  0  0  0999 V2000
    8.3036    9.8571   18.4133 C   0  0  0  0  0  0  0  0  0  0  0  0
    8.3694    7.6612   22.6703 C   0  0  0  0  0  0  0  0  0  0  0  0
    8.4143    6.6863   16.2273 C   0  0  0  0  0  0  0  0  0  0  0  0
   10.7581    6.5674   21.7636 C   0  0  0  0  0  0  0  0  0  0  0  0
    8.4452    8.7960   19.2958 O   0  0  0  0  0  0  0  0  0  0  0  0
    8.7122    6.7842   24.8569 C   0  0  0  0  0  0  0  0  0  0  0  0
   10.3400    6.1726   14.3081 C   0  0  0  0  0  0  0  0  0  0  0  0
    7.4297    7.5873   24.8962 C   0  0  0  0  0  0  0  0  0  0  0  0
    8.1566   10.0536   16.0516 O   0  0  0  0  0  0  0  0  0  0  0  0
   12.4989    6.2074   20.1776 C   0  0  0  0  0  0  0  0  0  0  0  0
    6.9192    9.1053   20.9073 O   0  0  0  0  0  0  0  0  0  0  0  0
   14.3979    6.0729   18.7784 C   0  0  0  0  0  0  0  0  0  0  0  0
    8.6811    9.5354   16.9998 C   0  0  0  0  0  0  0  0  0  0  0  0
    9.2512    4.2713   13.7653 O   0  0  0  0  0  0  0  0  0  0  0  0
    9.6495    8.6317   16.8332 N   0  0  0  0  0  0  0  0  0  0  0  0
    6.2934    8.6988   23.1988 O   0  0  0  0  0  0  0  0  0  0  0  0
    7.9806    8.6543   20.5437 C   0  0  0  0  0  0  0  0  0  0  0  0
   13.7270    5.7144   19.8610 O   0  0  0  0  0  0  0  0  0  0  0  0
    8.3351    5.5235   15.4478 C   0  0  0  0  0  0  0  0  0  0  0  0
    8.7700    7.8434   21.3915 C   0  0  0  0  0  0  0  0  0  0  0  0
   11.7856    6.8851   19.2401 C   0  0  0  0  0  0  0  0  0  0  0  0
   10.5281    7.4276   19.5649 C   0  0  0  0  0  0  0  0  0  0  0  0
   10.0256    7.2907   20.8484 C   0  0  0  0  0  0  0  0  0  0  0  0
    9.3113    5.3049   14.4911 C   0  0  0  0  0  0  0  0  0  0  0  0
    9.4607    7.5646   16.0139 C   0  0  0  0  0  0  0  0  0  0  0  0
   10.4192    7.3157   15.0955 C   0  0  0  0  0  0  0  0  0  0  0  0
   10.2489    6.4227   23.0218 N   0  0  0  0  0  0  0  0  0  0  0  0
    7.2472    8.0746   23.5050 C   0  0  0  0  0  0  0  0  0  0  0  0
    9.2051    6.9101   23.4604 C   0  0  0  0  0  0  0  0  0  0  0  0
   11.9646    6.0299   21.4251 C   0  0  0  0  0  0  0  0  0  0  0  0
  1  5  1  0
  1 13  1  0
  2 20  2  0
  2 28  1  0
  2 29  1  0
  3 19  4  0
  3 25  4  0
  4 23  4  0
  4 27  1  0
  4 30  4  0
  5 17  1  0
  6  8  1  0
  6 29  1  0
  7 24  4  0
  7 26  4  0
  8 28  1  0
  9 13  2  0
 10 18  1  0
 10 21  4  0
 10 30  4  0
 11 17  2  0
 12 18  1  0
 13 15  1  0
 14 24  1  0
 15 25  1  0
 16 28  2  0
 17 20  1  0
 19 24  4  0
 20 23  1  0
 21 22  4  0
 22 23  4  0
 25 26  4  0
 27 29  2  0
M  END
$$$$

 Created by Python create_sdf_string function

 30 33  0  0  0  0  0  0  0  0999 V2000
    8.3036    9.8571   18.4133 C   0  0  0  0  0  0  0  0  0  0  0  0
    8.3694    7.6612   22.6703 C   0  0  0  0  0  0  0  0  0  0  0  0
    8.4143    6.6863   16.2273 C   0  0  0  0  0  0  0  0  0  0  0  0
   10.7581    6.5674   21.7636 C   0  0  0  0  0  0  0  0  0  0  0  0
    8.4452    8.7960   19.2958 O   0  0  0  0  0  0  0  0  0  0  0  0
    8.7122    6.7842   24.8569 C   0  0  0  0  0  0  0  0  0  0  0  0
   10.3400    6.1726   14.3081 C   0  0  0  0  0  0  0  0  0  0  0  0
    7.4297    7.5873   24.8962 C   0  0  0  0  0  0  0  0  0  0  0  0
    8.1566   10.0536   16.0516 O   0  0  0  0  0  0  0  0  0  0  0  0
   12.4989    6.2074   20.1776 C   0  0  0  0  0  0  0  0  0  0  0  0
    6.9192    9.1053   20.9073 O   0  0  0  0  0  0  0  0  0  0  0  0
   14.3979    6.0729   18.7784 C   0  0  0  0  0  0  0  0  0  0  0  0
    8.6811    9.5354   16.9998 C   0  0  0  0  0  0  0  0  0  0  0  0
    9.2512    4.2713   13.7653 O   0  0  0  0  0  0  0  0  0  0  0  0
    9.6495    8.6317   16.8332 N   0  0  0  0  0  0  0  0  0  0  0  0
    6.2934    8.6988   23.1988 O   0  0  0  0  0  0  0  0  0  0  0  0
    7.9806    8.6543   20.5437 C   0  0  0  0  0  0  0  0  0  0  0  0
   13.7270    5.7144   19.8610 O   0  0  0  0  0  0  0  0  0  0  0  0
    8.3351    5.5235   15.4478 C   0  0  0  0  0  0  0  0  0  0  0  0
    8.7700    7.8434   21.3915 C   0  0  0  0  0  0  0  0  0  0  0  0
   11.7856    6.8851   19.2401 C   0  0  0  0  0  0  0  0  0  0  0  0
   10.5281    7.4276   19.5649 C   0  0  0  0  0  0  0  0  0  0  0  0
   10.0256    7.2907   20.8484 C   0  0  0  0  0  0  0  0  0  0  0  0
    9.3113    5.3049   14.4911 C   0  0  0  0  0  0  0  0  0  0  0  0
    9.4607    7.5646   16.0139 C   0  0  0  0  0  0  0  0  0  0  0  0
   10.4192    7.3157   15.0955 C   0  0  0  0  0  0  0  0  0  0  0  0
   10.2489    6.4227   23.0218 N   0  0  0  0  0  0  0  0  0  0  0  0
    7.2472    8.0746   23.5050 C   0  0  0  0  0  0  0  0  0  0  0  0
    9.2051    6.9101   23.4604 C   0  0  0  0  0  0  0  0  0  0  0  0
   11.9646    6.0299   21.4251 C   0  0  0  0  0  0  0  0  0  0  0  0
  1  5  1  0
  1 13  1  0
  2 20  2  0
  2 28  1  0
  2 29  1  0
  3 19  4  0
  3 25  4  0
  4 23  4  0
  4 27  1  0
  4 30  4  0
  5 17  1  0
  6  8  1  0
  6 29  1  0
  7 24  4  0
  7 26  4  0
  8 28  1  0
  9 13  2  0
 10 18  1  0
 10 21  4  0
 10 30  4  0
 11 17  2  0
 12 18  1  0
 13 15  1  0
 14 24  1  0
 15 25  1  0
 16 28  2  0
 17 20  1  0
 19 24  4  0
 20 23  1  0
 21 22  4  0
 22 23  4  0
 25 26  4  0
 27 29  2  0
M  END
$$$$

 Created by Python create_sdf_string function

 30 33  0  0  0  0  0  0  0  0999 V2000
    8.3036    9.8571   18.4133 C   0  0  0  0  0  0  0  0  0  0  0  0
    8.3694    7.6612   22.6703 C   0  0  0  0  0  0  0  0  0  0  0  0
    8.4143    6.6863   16.2273 C   0  0  0  0  0  0  0  0  0  0  0  0
   10.7581    6.5674   21.7636 C   0  0  0  0  0  0  0  0  0  0  0  0
    8.4452    8.7960   19.2958 O   0  0  0  0  0  0  0  0  0  0  0  0
    8.7122    6.7842   24.8569 C   0  0  0  0  0  0  0  0  0  0  0  0
   10.3400    6.1726   14.3081 C   0  0  0  0  0  0  0  0  0  0  0  0
    7.4297    7.5873   24.8962 C   0  0  0  0  0  0  0  0  0  0  0  0
    8.1566   10.0536   16.0516 O   0  0  0  0  0  0  0  0  0  0  0  0
   12.4989    6.2074   20.1776 C   0  0  0  0  0  0  0  0  0  0  0  0
    6.9192    9.1053   20.9073 O   0  0  0  0  0  0  0  0  0  0  0  0
   14.3979    6.0729   18.7784 C   0  0  0  0  0  0  0  0  0  0  0  0
    8.6811    9.5354   16.9998 C   0  0  0  0  0  0  0  0  0  0  0  0
    9.2512    4.2713   13.7653 O   0  0  0  0  0  0  0  0  0  0  0  0
    9.6495    8.6317   16.8332 N   0  0  0  0  0  0  0  0  0  0  0  0
    6.2934    8.6988   23.1988 O   0  0  0  0  0  0  0  0  0  0  0  0
    7.9806    8.6543   20.5437 C   0  0  0  0  0  0  0  0  0  0  0  0
   13.7270    5.7144   19.8610 O   0  0  0  0  0  0  0  0  0  0  0  0
    8.3351    5.5235   15.4478 C   0  0  0  0  0  0  0  0  0  0  0  0
    8.7700    7.8434   21.3915 C   0  0  0  0  0  0  0  0  0  0  0  0
   11.7856    6.8851   19.2401 C   0  0  0  0  0  0  0  0  0  0  0  0
   10.5281    7.4276   19.5649 C   0  0  0  0  0  0  0  0  0  0  0  0
   10.0256    7.2907   20.8484 C   0  0  0  0  0  0  0  0  0  0  0  0
    9.3113    5.3049   14.4911 C   0  0  0  0  0  0  0  0  0  0  0  0
    9.4607    7.5646   16.0139 C   0  0  0  0  0  0  0  0  0  0  0  0
   10.4192    7.3157   15.0955 C   0  0  0  0  0  0  0  0  0  0  0  0
   10.2489    6.4227   23.0218 N   0  0  0  0  0  0  0  0  0  0  0  0
    7.2472    8.0746   23.5050 C   0  0  0  0  0  0  0  0  0  0  0  0
    9.2051    6.9101   23.4604 C   0  0  0  0  0  0  0  0  0  0  0  0
   11.9646    6.0299   21.4251 C   0  0  0  0  0  0  0  0  0  0  0  0
  1  5  1  0
  1 13  1  0
  2 20  2  0
  2 28  1  0
  2 29  1  0
  3 19  4  0
  3 25  4  0
  4 23  4  0
  4 27  1  0
  4 30  4  0
  5 17  1  0
  6  8  1  0
  6 29  1  0
  7 24  4  0
  7 26  4  0
  8 28  1  0
  9 13  2  0
 10 18  1  0
 10 21  4  0
 10 30  4  0
 11 17  2  0
 12 18  1  0
 13 15  1  0
 14 24  1  0
 15 25  1  0
 16 28  2  0
 17 20  1  0
 19 24  4  0
 20 23  1  0
 21 22  4  0
 22 23  4  0
 25 26  4  0
 27 29  2  0
M  END
$$$$

 Created by Python create_sdf_string function

 30 33  0  0  0  0  0  0  0  0999 V2000
    8.3036    9.8571   18.4133 C   0  0  0  0  0  0  0  0  0  0  0  0
    8.3694    7.6612   22.6703 C   0  0  0  0  0  0  0  0  0  0  0  0
    8.4143    6.6863   16.2273 C   0  0  0  0  0  0  0  0  0  0  0  0
   10.7581    6.5674   21.7636 C   0  0  0  0  0  0  0  0  0  0  0  0
    8.4452    8.7960   19.2958 O   0  0  0  0  0  0  0  0  0  0  0  0
    8.7122    6.7842   24.8569 C   0  0  0  0  0  0  0  0  0  0  0  0
   10.3400    6.1726   14.3081 C   0  0  0  0  0  0  0  0  0  0  0  0
    7.4297    7.5873   24.8962 C   0  0  0  0  0  0  0  0  0  0  0  0
    8.1566   10.0536   16.0516 O   0  0  0  0  0  0  0  0  0  0  0  0
   12.4989    6.2074   20.1776 C   0  0  0  0  0  0  0  0  0  0  0  0
    6.9192    9.1053   20.9073 O   0  0  0  0  0  0  0  0  0  0  0  0
   14.3979    6.0729   18.7784 C   0  0  0  0  0  0  0  0  0  0  0  0
    8.6811    9.5354   16.9998 C   0  0  0  0  0  0  0  0  0  0  0  0
    9.2512    4.2713   13.7653 O   0  0  0  0  0  0  0  0  0  0  0  0
    9.6495    8.6317   16.8332 N   0  0  0  0  0  0  0  0  0  0  0  0
    6.2934    8.6988   23.1988 O   0  0  0  0  0  0  0  0  0  0  0  0
    7.9806    8.6543   20.5437 C   0  0  0  0  0  0  0  0  0  0  0  0
   13.7270    5.7144   19.8610 O   0  0  0  0  0  0  0  0  0  0  0  0
    8.3351    5.5235   15.4478 C   0  0  0  0  0  0  0  0  0  0  0  0
    8.7700    7.8434   21.3915 C   0  0  0  0  0  0  0  0  0  0  0  0
   11.7856    6.8851   19.2401 C   0  0  0  0  0  0  0  0  0  0  0  0
   10.5281    7.4276   19.5649 C   0  0  0  0  0  0  0  0  0  0  0  0
   10.0256    7.2907   20.8484 C   0  0  0  0  0  0  0  0  0  0  0  0
    9.3113    5.3049   14.4911 C   0  0  0  0  0  0  0  0  0  0  0  0
    9.4607    7.5646   16.0139 C   0  0  0  0  0  0  0  0  0  0  0  0
   10.4192    7.3157   15.0955 C   0  0  0  0  0  0  0  0  0  0  0  0
   10.2489    6.4227   23.0218 N   0  0  0  0  0  0  0  0  0  0  0  0
    7.2472    8.0746   23.5050 C   0  0  0  0  0  0  0  0  0  0  0  0
    9.2051    6.9101   23.4604 C   0  0  0  0  0  0  0  0  0  0  0  0
   11.9646    6.0299   21.4251 C   0  0  0  0  0  0  0  0  0  0  0  0
  1  5  1  0
  1 13  1  0
  2 20  2  0
  2 28  1  0
  2 29  1  0
  3 19  4  0
  3 25  4  0
  4 23  4  0
  4 27  1  0
  4 30  4  0
  5 17  1  0
  6  8  1  0
  6 29  1  0
  7 24  4  0
  7 26  4  0
  8 28  1  0
  9 13  2  0
 10 18  1  0
 10 21  4  0
 10 30  4  0
 11 17  2  0
 12 18  1  0
 13 15  1  0
 14 24  1  0
 15 25  1  0
 16 28  2  0
 17 20  1  0
 19 24  4  0
 20 23  1  0
 21 22  4  0
 22 23  4  0
 25 26  4  0
 27 29  2  0
M  END
$$$$

 Created by Python create_sdf_string function

 30 33  0  0  0  0  0  0  0  0999 V2000
    8.3036    9.8571   18.4133 C   0  0  0  0  0  0  0  0  0  0  0  0
    8.3694    7.6612   22.6703 C   0  0  0  0  0  0  0  0  0  0  0  0
    8.4143    6.6863   16.2273 C   0  0  0  0  0  0  0  0  0  0  0  0
   10.7581    6.5674   21.7636 C   0  0  0  0  0  0  0  0  0  0  0  0
    8.4452    8.7960   19.2958 O   0  0  0  0  0  0  0  0  0  0  0  0
    8.7122    6.7842   24.8569 C   0  0  0  0  0  0  0  0  0  0  0  0
   10.3400    6.1726   14.3081 C   0  0  0  0  0  0  0  0  0  0  0  0
    7.4297    7.5873   24.8962 C   0  0  0  0  0  0  0  0  0  0  0  0
    8.1566   10.0536   16.0516 O   0  0  0  0  0  0  0  0  0  0  0  0
   12.4989    6.2074   20.1776 C   0  0  0  0  0  0  0  0  0  0  0  0
    6.9192    9.1053   20.9073 O   0  0  0  0  0  0  0  0  0  0  0  0
   14.3979    6.0729   18.7784 C   0  0  0  0  0  0  0  0  0  0  0  0
    8.6811    9.5354   16.9998 C   0  0  0  0  0  0  0  0  0  0  0  0
    9.2512    4.2713   13.7653 O   0  0  0  0  0  0  0  0  0  0  0  0
    9.6495    8.6317   16.8332 N   0  0  0  0  0  0  0  0  0  0  0  0
    6.2934    8.6988   23.1988 O   0  0  0  0  0  0  0  0  0  0  0  0
    7.9806    8.6543   20.5437 C   0  0  0  0  0  0  0  0  0  0  0  0
   13.7270    5.7144   19.8610 O   0  0  0  0  0  0  0  0  0  0  0  0
    8.3351    5.5235   15.4478 C   0  0  0  0  0  0  0  0  0  0  0  0
    8.7700    7.8434   21.3915 C   0  0  0  0  0  0  0  0  0  0  0  0
   11.7856    6.8851   19.2401 C   0  0  0  0  0  0  0  0  0  0  0  0
   10.5281    7.4276   19.5649 C   0  0  0  0  0  0  0  0  0  0  0  0
   10.0256    7.2907   20.8484 C   0  0  0  0  0  0  0  0  0  0  0  0
    9.3113    5.3049   14.4911 C   0  0  0  0  0  0  0  0  0  0  0  0
    9.4607    7.5646   16.0139 C   0  0  0  0  0  0  0  0  0  0  0  0
   10.4192    7.3157   15.0955 C   0  0  0  0  0  0  0  0  0  0  0  0
   10.2489    6.4227   23.0218 N   0  0  0  0  0  0  0  0  0  0  0  0
    7.2472    8.0746   23.5050 C   0  0  0  0  0  0  0  0  0  0  0  0
    9.2051    6.9101   23.4604 C   0  0  0  0  0  0  0  0  0  0  0  0
   11.9646    6.0299   21.4251 C   0  0  0  0  0  0  0  0  0  0  0  0
  1  5  1  0
  1 13  1  0
  2 20  2  0
  2 28  1  0
  2 29  1  0
  3 19  4  0
  3 25  4  0
  4 23  4  0
  4 27  1  0
  4 30  4  0
  5 17  1  0
  6  8  1  0
  6 29  1  0
  7 24  4  0
  7 26  4  0
  8 28  1  0
  9 13  2  0
 10 18  1  0
 10 21  4  0
 10 30  4  0
 11 17  2  0
 12 18  1  0
 13 15  1  0
 14 24  1  0
 15 25  1  0
 16 28  2  0
 17 20  1  0
 19 24  4  0
 20 23  1  0
 21 22  4  0
 22 23  4  0
 25 26  4  0
 27 29  2  0
M  END
$$$$

 Created by Python create_sdf_string function

 30 33  0  0  0  0  0  0  0  0999 V2000
    8.3036    9.8571   18.4133 C   0  0  0  0  0  0  0  0  0  0  0  0
    8.3694    7.6612   22.6703 C   0  0  0  0  0  0  0  0  0  0  0  0
    8.4143    6.6863   16.2273 C   0  0  0  0  0  0  0  0  0  0  0  0
   10.7581    6.5674   21.7636 C   0  0  0  0  0  0  0  0  0  0  0  0
    8.4452    8.7960   19.2958 O   0  0  0  0  0  0  0  0  0  0  0  0
    8.7122    6.7842   24.8569 C   0  0  0  0  0  0  0  0  0  0  0  0
   10.3400    6.1726   14.3081 C   0  0  0  0  0  0  0  0  0  0  0  0
    7.4297    7.5873   24.8962 C   0  0  0  0  0  0  0  0  0  0  0  0
    8.1566   10.0536   16.0516 O   0  0  0  0  0  0  0  0  0  0  0  0
   12.4989    6.2074   20.1776 C   0  0  0  0  0  0  0  0  0  0  0  0
    6.9192    9.1053   20.9073 O   0  0  0  0  0  0  0  0  0  0  0  0
   14.3979    6.0729   18.7784 C   0  0  0  0  0  0  0  0  0  0  0  0
    8.6811    9.5354   16.9998 C   0  0  0  0  0  0  0  0  0  0  0  0
    9.2512    4.2713   13.7653 O   0  0  0  0  0  0  0  0  0  0  0  0
    9.6495    8.6317   16.8332 N   0  0  0  0  0  0  0  0  0  0  0  0
    6.2934    8.6988   23.1988 O   0  0  0  0  0  0  0  0  0  0  0  0
    7.9806    8.6543   20.5437 C   0  0  0  0  0  0  0  0  0  0  0  0
   13.7270    5.7144   19.8610 O   0  0  0  0  0  0  0  0  0  0  0  0
    8.3351    5.5235   15.4478 C   0  0  0  0  0  0  0  0  0  0  0  0
    8.7700    7.8434   21.3915 C   0  0  0  0  0  0  0  0  0  0  0  0
   11.7856    6.8851   19.2401 C   0  0  0  0  0  0  0  0  0  0  0  0
   10.5281    7.4276   19.5649 C   0  0  0  0  0  0  0  0  0  0  0  0
   10.0256    7.2907   20.8484 C   0  0  0  0  0  0  0  0  0  0  0  0
    9.3113    5.3049   14.4911 C   0  0  0  0  0  0  0  0  0  0  0  0
    9.4607    7.5646   16.0139 C   0  0  0  0  0  0  0  0  0  0  0  0
   10.4192    7.3157   15.0955 C   0  0  0  0  0  0  0  0  0  0  0  0
   10.2489    6.4227   23.0218 N   0  0  0  0  0  0  0  0  0  0  0  0
    7.2472    8.0746   23.5050 C   0  0  0  0  0  0  0  0  0  0  0  0
    9.2051    6.9101   23.4604 C   0  0  0  0  0  0  0  0  0  0  0  0
   11.9646    6.0299   21.4251 C   0  0  0  0  0  0  0  0  0  0  0  0
  1  5  1  0
  1 13  1  0
  2 20  2  0
  2 28  1  0
  2 29  1  0
  3 19  4  0
  3 25  4  0
  4 23  4  0
  4 27  1  0
  4 30  4  0
  5 17  1  0
  6  8  1  0
  6 29  1  0
  7 24  4  0
  7 26  4  0
  8 28  1  0
  9 13  2  0
 10 18  1  0
 10 21  4  0
 10 30  4  0
 11 17  2  0
 12 18  1  0
 13 15  1  0
 14 24  1  0
 15 25  1  0
 16 28  2  0
 17 20  1  0
 19 24  4  0
 20 23  1  0
 21 22  4  0
 22 23  4  0
 25 26  4  0
 27 29  2  0
M  END
$$$$

 Created by Python create_sdf_string function

 30 33  0  0  0  0  0  0  0  0999 V2000
    8.3036    9.8571   18.4133 C   0  0  0  0  0  0  0  0  0  0  0  0
    8.3694    7.6612   22.6703 C   0  0  0  0  0  0  0  0  0  0  0  0
    8.4143    6.6863   16.2273 C   0  0  0  0  0  0  0  0  0  0  0  0
   10.7581    6.5674   21.7636 C   0  0  0  0  0  0  0  0  0  0  0  0
    8.4452    8.7960   19.2958 O   0  0  0  0  0  0  0  0  0  0  0  0
    8.7122    6.7842   24.8569 C   0  0  0  0  0  0  0  0  0  0  0  0
   10.3400    6.1726   14.3081 C   0  0  0  0  0  0  0  0  0  0  0  0
    7.4297    7.5873   24.8962 C   0  0  0  0  0  0  0  0  0  0  0  0
    8.1566   10.0536   16.0516 O   0  0  0  0  0  0  0  0  0  0  0  0
   12.4989    6.2074   20.1776 C   0  0  0  0  0  0  0  0  0  0  0  0
    6.9192    9.1053   20.9073 O   0  0  0  0  0  0  0  0  0  0  0  0
   14.3979    6.0729   18.7784 C   0  0  0  0  0  0  0  0  0  0  0  0
    8.6811    9.5354   16.9998 C   0  0  0  0  0  0  0  0  0  0  0  0
    9.2512    4.2713   13.7653 O   0  0  0  0  0  0  0  0  0  0  0  0
    9.6495    8.6317   16.8332 N   0  0  0  0  0  0  0  0  0  0  0  0
    6.2934    8.6988   23.1988 O   0  0  0  0  0  0  0  0  0  0  0  0
    7.9806    8.6543   20.5437 C   0  0  0  0  0  0  0  0  0  0  0  0
   13.7270    5.7144   19.8610 O   0  0  0  0  0  0  0  0  0  0  0  0
    8.3351    5.5235   15.4478 C   0  0  0  0  0  0  0  0  0  0  0  0
    8.7700    7.8434   21.3915 C   0  0  0  0  0  0  0  0  0  0  0  0
   11.7856    6.8851   19.2401 C   0  0  0  0  0  0  0  0  0  0  0  0
   10.5281    7.4276   19.5649 C   0  0  0  0  0  0  0  0  0  0  0  0
   10.0256    7.2907   20.8484 C   0  0  0  0  0  0  0  0  0  0  0  0
    9.3113    5.3049   14.4911 C   0  0  0  0  0  0  0  0  0  0  0  0
    9.4607    7.5646   16.0139 C   0  0  0  0  0  0  0  0  0  0  0  0
   10.4192    7.3157   15.0955 C   0  0  0  0  0  0  0  0  0  0  0  0
   10.2489    6.4227   23.0218 N   0  0  0  0  0  0  0  0  0  0  0  0
    7.2472    8.0746   23.5050 C   0  0  0  0  0  0  0  0  0  0  0  0
    9.2051    6.9101   23.4604 C   0  0  0  0  0  0  0  0  0  0  0  0
   11.9646    6.0299   21.4251 C   0  0  0  0  0  0  0  0  0  0  0  0
  1  5  1  0
  1 13  1  0
  2 20  2  0
  2 28  1  0
  2 29  1  0
  3 19  4  0
  3 25  4  0
  4 23  4  0
  4 27  1  0
  4 30  4  0
  5 17  1  0
  6  8  1  0
  6 29  1  0
  7 24  4  0
  7 26  4  0
  8 28  1  0
  9 13  2  0
 10 18  1  0
 10 21  4  0
 10 30  4  0
 11 17  2  0
 12 18  1  0
 13 15  1  0
 14 24  1  0
 15 25  1  0
 16 28  2  0
 17 20  1  0
 19 24  4  0
 20 23  1  0
 21 22  4  0
 22 23  4  0
 25 26  4  0
 27 29  2  0
M  END
$$$$

 Created by Python create_sdf_string function

 30 33  0  0  0  0  0  0  0  0999 V2000
    8.3036    9.8571   18.4133 C   0  0  0  0  0  0  0  0  0  0  0  0
    8.3694    7.6612   22.6703 C   0  0  0  0  0  0  0  0  0  0  0  0
    8.4143    6.6863   16.2273 C   0  0  0  0  0  0  0  0  0  0  0  0
   10.7581    6.5674   21.7636 C   0  0  0  0  0  0  0  0  0  0  0  0
    8.4452    8.7960   19.2958 O   0  0  0  0  0  0  0  0  0  0  0  0
    8.7122    6.7842   24.8569 C   0  0  0  0  0  0  0  0  0  0  0  0
   10.3400    6.1726   14.3081 C   0  0  0  0  0  0  0  0  0  0  0  0
    7.4297    7.5873   24.8962 C   0  0  0  0  0  0  0  0  0  0  0  0
    8.1566   10.0536   16.0516 O   0  0  0  0  0  0  0  0  0  0  0  0
   12.4989    6.2074   20.1776 C   0  0  0  0  0  0  0  0  0  0  0  0
    6.9192    9.1053   20.9073 O   0  0  0  0  0  0  0  0  0  0  0  0
   14.3979    6.0729   18.7784 C   0  0  0  0  0  0  0  0  0  0  0  0
    8.6811    9.5354   16.9998 C   0  0  0  0  0  0  0  0  0  0  0  0
    9.2512    4.2713   13.7653 O   0  0  0  0  0  0  0  0  0  0  0  0
    9.6495    8.6317   16.8332 N   0  0  0  0  0  0  0  0  0  0  0  0
    6.2934    8.6988   23.1988 O   0  0  0  0  0  0  0  0  0  0  0  0
    7.9806    8.6543   20.5437 C   0  0  0  0  0  0  0  0  0  0  0  0
   13.7270    5.7144   19.8610 O   0  0  0  0  0  0  0  0  0  0  0  0
    8.3351    5.5235   15.4478 C   0  0  0  0  0  0  0  0  0  0  0  0
    8.7700    7.8434   21.3915 C   0  0  0  0  0  0  0  0  0  0  0  0
   11.7856    6.8851   19.2401 C   0  0  0  0  0  0  0  0  0  0  0  0
   10.5281    7.4276   19.5649 C   0  0  0  0  0  0  0  0  0  0  0  0
   10.0256    7.2907   20.8484 C   0  0  0  0  0  0  0  0  0  0  0  0
    9.3113    5.3049   14.4911 C   0  0  0  0  0  0  0  0  0  0  0  0
    9.4607    7.5646   16.0139 C   0  0  0  0  0  0  0  0  0  0  0  0
   10.4192    7.3157   15.0955 C   0  0  0  0  0  0  0  0  0  0  0  0
   10.2489    6.4227   23.0218 N   0  0  0  0  0  0  0  0  0  0  0  0
    7.2472    8.0746   23.5050 C   0  0  0  0  0  0  0  0  0  0  0  0
    9.2051    6.9101   23.4604 C   0  0  0  0  0  0  0  0  0  0  0  0
   11.9646    6.0299   21.4251 C   0  0  0  0  0  0  0  0  0  0  0  0
  1  5  1  0
  1 13  1  0
  2 20  2  0
  2 28  1  0
  2 29  1  0
  3 19  4  0
  3 25  4  0
  4 23  4  0
  4 27  1  0
  4 30  4  0
  5 17  1  0
  6  8  1  0
  6 29  1  0
  7 24  4  0
  7 26  4  0
  8 28  1  0
  9 13  2  0
 10 18  1  0
 10 21  4  0
 10 30  4  0
 11 17  2  0
 12 18  1  0
 13 15  1  0
 14 24  1  0
 15 25  1  0
 16 28  2  0
 17 20  1  0
 19 24  4  0
 20 23  1  0
 21 22  4  0
 22 23  4  0
 25 26  4  0
 27 29  2  0
M  END
$$$$

 Created by Python create_sdf_string function

 30 33  0  0  0  0  0  0  0  0999 V2000
    8.3036    9.8571   18.4133 C   0  0  0  0  0  0  0  0  0  0  0  0
    8.3694    7.6612   22.6703 C   0  0  0  0  0  0  0  0  0  0  0  0
    8.4143    6.6863   16.2273 C   0  0  0  0  0  0  0  0  0  0  0  0
   10.7581    6.5674   21.7636 C   0  0  0  0  0  0  0  0  0  0  0  0
    8.4452    8.7960   19.2958 O   0  0  0  0  0  0  0  0  0  0  0  0
    8.7122    6.7842   24.8569 C   0  0  0  0  0  0  0  0  0  0  0  0
   10.3400    6.1726   14.3081 C   0  0  0  0  0  0  0  0  0  0  0  0
    7.4297    7.5873   24.8962 C   0  0  0  0  0  0  0  0  0  0  0  0
    8.1566   10.0536   16.0516 O   0  0  0  0  0  0  0  0  0  0  0  0
   12.4989    6.2074   20.1776 C   0  0  0  0  0  0  0  0  0  0  0  0
    6.9192    9.1053   20.9073 O   0  0  0  0  0  0  0  0  0  0  0  0
   14.3979    6.0729   18.7784 C   0  0  0  0  0  0  0  0  0  0  0  0
    8.6811    9.5354   16.9998 C   0  0  0  0  0  0  0  0  0  0  0  0
    9.2512    4.2713   13.7653 O   0  0  0  0  0  0  0  0  0  0  0  0
    9.6495    8.6317   16.8332 N   0  0  0  0  0  0  0  0  0  0  0  0
    6.2934    8.6988   23.1988 O   0  0  0  0  0  0  0  0  0  0  0  0
    7.9806    8.6543   20.5437 C   0  0  0  0  0  0  0  0  0  0  0  0
   13.7270    5.7144   19.8610 O   0  0  0  0  0  0  0  0  0  0  0  0
    8.3351    5.5235   15.4478 C   0  0  0  0  0  0  0  0  0  0  0  0
    8.7700    7.8434   21.3915 C   0  0  0  0  0  0  0  0  0  0  0  0
   11.7856    6.8851   19.2401 C   0  0  0  0  0  0  0  0  0  0  0  0
   10.5281    7.4276   19.5649 C   0  0  0  0  0  0  0  0  0  0  0  0
   10.0256    7.2907   20.8484 C   0  0  0  0  0  0  0  0  0  0  0  0
    9.3113    5.3049   14.4911 C   0  0  0  0  0  0  0  0  0  0  0  0
    9.4607    7.5646   16.0139 C   0  0  0  0  0  0  0  0  0  0  0  0
   10.4192    7.3157   15.0955 C   0  0  0  0  0  0  0  0  0  0  0  0
   10.2489    6.4227   23.0218 N   0  0  0  0  0  0  0  0  0  0  0  0
    7.2472    8.0746   23.5050 C   0  0  0  0  0  0  0  0  0  0  0  0
    9.2051    6.9101   23.4604 C   0  0  0  0  0  0  0  0  0  0  0  0
   11.9646    6.0299   21.4251 C   0  0  0  0  0  0  0  0  0  0  0  0
  1  5  1  0
  1 13  1  0
  2 20  2  0
  2 28  1  0
  2 29  1  0
  3 19  4  0
  3 25  4  0
  4 23  4  0
  4 27  1  0
  4 30  4  0
  5 17  1  0
  6  8  1  0
  6 29  1  0
  7 24  4  0
  7 26  4  0
  8 28  1  0
  9 13  2  0
 10 18  1  0
 10 21  4  0
 10 30  4  0
 11 17  2  0
 12 18  1  0
 13 15  1  0
 14 24  1  0
 15 25  1  0
 16 28  2  0
 17 20  1  0
 19 24  4  0
 20 23  1  0
 21 22  4  0
 22 23  4  0
 25 26  4  0
 27 29  2  0
M  END
$$$$

 Created by Python create_sdf_string function

 30 33  0  0  0  0  0  0  0  0999 V2000
    8.3036    9.8571   18.4133 C   0  0  0  0  0  0  0  0  0  0  0  0
    8.3694    7.6612   22.6703 C   0  0  0  0  0  0  0  0  0  0  0  0
    8.4143    6.6863   16.2273 C   0  0  0  0  0  0  0  0  0  0  0  0
   10.7581    6.5674   21.7636 C   0  0  0  0  0  0  0  0  0  0  0  0
    8.4452    8.7960   19.2958 O   0  0  0  0  0  0  0  0  0  0  0  0
    8.7122    6.7842   24.8569 C   0  0  0  0  0  0  0  0  0  0  0  0
   10.3400    6.1726   14.3081 C   0  0  0  0  0  0  0  0  0  0  0  0
    7.4297    7.5873   24.8962 C   0  0  0  0  0  0  0  0  0  0  0  0
    8.1566   10.0536   16.0516 O   0  0  0  0  0  0  0  0  0  0  0  0
   12.4989    6.2074   20.1776 C   0  0  0  0  0  0  0  0  0  0  0  0
    6.9192    9.1053   20.9073 O   0  0  0  0  0  0  0  0  0  0  0  0
   14.3979    6.0729   18.7784 C   0  0  0  0  0  0  0  0  0  0  0  0
    8.6811    9.5354   16.9998 C   0  0  0  0  0  0  0  0  0  0  0  0
    9.2512    4.2713   13.7653 O   0  0  0  0  0  0  0  0  0  0  0  0
    9.6495    8.6317   16.8332 N   0  0  0  0  0  0  0  0  0  0  0  0
    6.2934    8.6988   23.1988 O   0  0  0  0  0  0  0  0  0  0  0  0
    7.9806    8.6543   20.5437 C   0  0  0  0  0  0  0  0  0  0  0  0
   13.7270    5.7144   19.8610 O   0  0  0  0  0  0  0  0  0  0  0  0
    8.3351    5.5235   15.4478 C   0  0  0  0  0  0  0  0  0  0  0  0
    8.7700    7.8434   21.3915 C   0  0  0  0  0  0  0  0  0  0  0  0
   11.7856    6.8851   19.2401 C   0  0  0  0  0  0  0  0  0  0  0  0
   10.5281    7.4276   19.5649 C   0  0  0  0  0  0  0  0  0  0  0  0
   10.0256    7.2907   20.8484 C   0  0  0  0  0  0  0  0  0  0  0  0
    9.3113    5.3049   14.4911 C   0  0  0  0  0  0  0  0  0  0  0  0
    9.4607    7.5646   16.0139 C   0  0  0  0  0  0  0  0  0  0  0  0
   10.4192    7.3157   15.0955 C   0  0  0  0  0  0  0  0  0  0  0  0
   10.2489    6.4227   23.0218 N   0  0  0  0  0  0  0  0  0  0  0  0
    7.2472    8.0746   23.5050 C   0  0  0  0  0  0  0  0  0  0  0  0
    9.2051    6.9101   23.4604 C   0  0  0  0  0  0  0  0  0  0  0  0
   11.9646    6.0299   21.4251 C   0  0  0  0  0  0  0  0  0  0  0  0
  1  5  1  0
  1 13  1  0
  2 20  2  0
  2 28  1  0
  2 29  1  0
  3 19  4  0
  3 25  4  0
  4 23  4  0
  4 27  1  0
  4 30  4  0
  5 17  1  0
  6  8  1  0
  6 29  1  0
  7 24  4  0
  7 26  4  0
  8 28  1  0
  9 13  2  0
 10 18  1  0
 10 21  4  0
 10 30  4  0
 11 17  2  0
 12 18  1  0
 13 15  1  0
 14 24  1  0
 15 25  1  0
 16 28  2  0
 17 20  1  0
 19 24  4  0
 20 23  1  0
 21 22  4  0
 22 23  4  0
 25 26  4  0
 27 29  2  0
M  END
$$$$

 Created by Python create_sdf_string function

 30 33  0  0  0  0  0  0  0  0999 V2000
    8.3036    9.8571   18.4133 C   0  0  0  0  0  0  0  0  0  0  0  0
    8.3694    7.6612   22.6703 C   0  0  0  0  0  0  0  0  0  0  0  0
    8.4143    6.6863   16.2273 C   0  0  0  0  0  0  0  0  0  0  0  0
   10.7581    6.5674   21.7636 C   0  0  0  0  0  0  0  0  0  0  0  0
    8.4452    8.7960   19.2958 O   0  0  0  0  0  0  0  0  0  0  0  0
    8.7122    6.7842   24.8569 C   0  0  0  0  0  0  0  0  0  0  0  0
   10.3400    6.1726   14.3081 C   0  0  0  0  0  0  0  0  0  0  0  0
    7.4297    7.5873   24.8962 C   0  0  0  0  0  0  0  0  0  0  0  0
    8.1566   10.0536   16.0516 O   0  0  0  0  0  0  0  0  0  0  0  0
   12.4989    6.2074   20.1776 C   0  0  0  0  0  0  0  0  0  0  0  0
    6.9192    9.1053   20.9073 O   0  0  0  0  0  0  0  0  0  0  0  0
   14.3979    6.0729   18.7784 C   0  0  0  0  0  0  0  0  0  0  0  0
    8.6811    9.5354   16.9998 C   0  0  0  0  0  0  0  0  0  0  0  0
    9.2512    4.2713   13.7653 O   0  0  0  0  0  0  0  0  0  0  0  0
    9.6495    8.6317   16.8332 N   0  0  0  0  0  0  0  0  0  0  0  0
    6.2934    8.6988   23.1988 O   0  0  0  0  0  0  0  0  0  0  0  0
    7.9806    8.6543   20.5437 C   0  0  0  0  0  0  0  0  0  0  0  0
   13.7270    5.7144   19.8610 O   0  0  0  0  0  0  0  0  0  0  0  0
    8.3351    5.5235   15.4478 C   0  0  0  0  0  0  0  0  0  0  0  0
    8.7700    7.8434   21.3915 C   0  0  0  0  0  0  0  0  0  0  0  0
   11.7856    6.8851   19.2401 C   0  0  0  0  0  0  0  0  0  0  0  0
   10.5281    7.4276   19.5649 C   0  0  0  0  0  0  0  0  0  0  0  0
   10.0256    7.2907   20.8484 C   0  0  0  0  0  0  0  0  0  0  0  0
    9.3113    5.3049   14.4911 C   0  0  0  0  0  0  0  0  0  0  0  0
    9.4607    7.5646   16.0139 C   0  0  0  0  0  0  0  0  0  0  0  0
   10.4192    7.3157   15.0955 C   0  0  0  0  0  0  0  0  0  0  0  0
   10.2489    6.4227   23.0218 N   0  0  0  0  0  0  0  0  0  0  0  0
    7.2472    8.0746   23.5050 C   0  0  0  0  0  0  0  0  0  0  0  0
    9.2051    6.9101   23.4604 C   0  0  0  0  0  0  0  0  0  0  0  0
   11.9646    6.0299   21.4251 C   0  0  0  0  0  0  0  0  0  0  0  0
  1  5  1  0
  1 13  1  0
  2 20  2  0
  2 28  1  0
  2 29  1  0
  3 19  4  0
  3 25  4  0
  4 23  4  0
  4 27  1  0
  4 30  4  0
  5 17  1  0
  6  8  1  0
  6 29  1  0
  7 24  4  0
  7 26  4  0
  8 28  1  0
  9 13  2  0
 10 18  1  0
 10 21  4  0
 10 30  4  0
 11 17  2  0
 12 18  1  0
 13 15  1  0
 14 24  1  0
 15 25  1  0
 16 28  2  0
 17 20  1  0
 19 24  4  0
 20 23  1  0
 21 22  4  0
 22 23  4  0
 25 26  4  0
 27 29  2  0
M  END
$$$$

 Created by Python create_sdf_string function

 30 33  0  0  0  0  0  0  0  0999 V2000
    8.3036    9.8571   18.4133 C   0  0  0  0  0  0  0  0  0  0  0  0
    8.3694    7.6612   22.6703 C   0  0  0  0  0  0  0  0  0  0  0  0
    8.4143    6.6863   16.2273 C   0  0  0  0  0  0  0  0  0  0  0  0
   10.7581    6.5674   21.7636 C   0  0  0  0  0  0  0  0  0  0  0  0
    8.4452    8.7960   19.2958 O   0  0  0  0  0  0  0  0  0  0  0  0
    8.7122    6.7842   24.8569 C   0  0  0  0  0  0  0  0  0  0  0  0
   10.3400    6.1726   14.3081 C   0  0  0  0  0  0  0  0  0  0  0  0
    7.4297    7.5873   24.8962 C   0  0  0  0  0  0  0  0  0  0  0  0
    8.1566   10.0536   16.0516 O   0  0  0  0  0  0  0  0  0  0  0  0
   12.4989    6.2074   20.1776 C   0  0  0  0  0  0  0  0  0  0  0  0
    6.9192    9.1053   20.9073 O   0  0  0  0  0  0  0  0  0  0  0  0
   14.3979    6.0729   18.7784 C   0  0  0  0  0  0  0  0  0  0  0  0
    8.6811    9.5354   16.9998 C   0  0  0  0  0  0  0  0  0  0  0  0
    9.2512    4.2713   13.7653 O   0  0  0  0  0  0  0  0  0  0  0  0
    9.6495    8.6317   16.8332 N   0  0  0  0  0  0  0  0  0  0  0  0
    6.2934    8.6988   23.1988 O   0  0  0  0  0  0  0  0  0  0  0  0
    7.9806    8.6543   20.5437 C   0  0  0  0  0  0  0  0  0  0  0  0
   13.7270    5.7144   19.8610 O   0  0  0  0  0  0  0  0  0  0  0  0
    8.3351    5.5235   15.4478 C   0  0  0  0  0  0  0  0  0  0  0  0
    8.7700    7.8434   21.3915 C   0  0  0  0  0  0  0  0  0  0  0  0
   11.7856    6.8851   19.2401 C   0  0  0  0  0  0  0  0  0  0  0  0
   10.5281    7.4276   19.5649 C   0  0  0  0  0  0  0  0  0  0  0  0
   10.0256    7.2907   20.8484 C   0  0  0  0  0  0  0  0  0  0  0  0
    9.3113    5.3049   14.4911 C   0  0  0  0  0  0  0  0  0  0  0  0
    9.4607    7.5646   16.0139 C   0  0  0  0  0  0  0  0  0  0  0  0
   10.4192    7.3157   15.0955 C   0  0  0  0  0  0  0  0  0  0  0  0
   10.2489    6.4227   23.0218 N   0  0  0  0  0  0  0  0  0  0  0  0
    7.2472    8.0746   23.5050 C   0  0  0  0  0  0  0  0  0  0  0  0
    9.2051    6.9101   23.4604 C   0  0  0  0  0  0  0  0  0  0  0  0
   11.9646    6.0299   21.4251 C   0  0  0  0  0  0  0  0  0  0  0  0
  1  5  1  0
  1 13  1  0
  2 20  2  0
  2 28  1  0
  2 29  1  0
  3 19  4  0
  3 25  4  0
  4 23  4  0
  4 27  1  0
  4 30  4  0
  5 17  1  0
  6  8  1  0
  6 29  1  0
  7 24  4  0
  7 26  4  0
  8 28  1  0
  9 13  2  0
 10 18  1  0
 10 21  4  0
 10 30  4  0
 11 17  2  0
 12 18  1  0
 13 15  1  0
 14 24  1  0
 15 25  1  0
 16 28  2  0
 17 20  1  0
 19 24  4  0
 20 23  1  0
 21 22  4  0
 22 23  4  0
 25 26  4  0
 27 29  2  0
M  END
$$$$

 Created by Python create_sdf_string function

 30 33  0  0  0  0  0  0  0  0999 V2000
    8.3036    9.8571   18.4133 C   0  0  0  0  0  0  0  0  0  0  0  0
    8.3694    7.6612   22.6703 C   0  0  0  0  0  0  0  0  0  0  0  0
    8.4143    6.6863   16.2273 C   0  0  0  0  0  0  0  0  0  0  0  0
   10.7581    6.5674   21.7636 C   0  0  0  0  0  0  0  0  0  0  0  0
    8.4452    8.7960   19.2958 O   0  0  0  0  0  0  0  0  0  0  0  0
    8.7122    6.7842   24.8569 C   0  0  0  0  0  0  0  0  0  0  0  0
   10.3400    6.1726   14.3081 C   0  0  0  0  0  0  0  0  0  0  0  0
    7.4297    7.5873   24.8962 C   0  0  0  0  0  0  0  0  0  0  0  0
    8.1566   10.0536   16.0516 O   0  0  0  0  0  0  0  0  0  0  0  0
   12.4989    6.2074   20.1776 C   0  0  0  0  0  0  0  0  0  0  0  0
    6.9192    9.1053   20.9073 O   0  0  0  0  0  0  0  0  0  0  0  0
   14.3979    6.0729   18.7784 C   0  0  0  0  0  0  0  0  0  0  0  0
    8.6811    9.5354   16.9998 C   0  0  0  0  0  0  0  0  0  0  0  0
    9.2512    4.2713   13.7653 O   0  0  0  0  0  0  0  0  0  0  0  0
    9.6495    8.6317   16.8332 N   0  0  0  0  0  0  0  0  0  0  0  0
    6.2934    8.6988   23.1988 O   0  0  0  0  0  0  0  0  0  0  0  0
    7.9806    8.6543   20.5437 C   0  0  0  0  0  0  0  0  0  0  0  0
   13.7270    5.7144   19.8610 O   0  0  0  0  0  0  0  0  0  0  0  0
    8.3351    5.5235   15.4478 C   0  0  0  0  0  0  0  0  0  0  0  0
    8.7700    7.8434   21.3915 C   0  0  0  0  0  0  0  0  0  0  0  0
   11.7856    6.8851   19.2401 C   0  0  0  0  0  0  0  0  0  0  0  0
   10.5281    7.4276   19.5649 C   0  0  0  0  0  0  0  0  0  0  0  0
   10.0256    7.2907   20.8484 C   0  0  0  0  0  0  0  0  0  0  0  0
    9.3113    5.3049   14.4911 C   0  0  0  0  0  0  0  0  0  0  0  0
    9.4607    7.5646   16.0139 C   0  0  0  0  0  0  0  0  0  0  0  0
   10.4192    7.3157   15.0955 C   0  0  0  0  0  0  0  0  0  0  0  0
   10.2489    6.4227   23.0218 N   0  0  0  0  0  0  0  0  0  0  0  0
    7.2472    8.0746   23.5050 C   0  0  0  0  0  0  0  0  0  0  0  0
    9.2051    6.9101   23.4604 C   0  0  0  0  0  0  0  0  0  0  0  0
   11.9646    6.0299   21.4251 C   0  0  0  0  0  0  0  0  0  0  0  0
  1  5  1  0
  1 13  1  0
  2 20  2  0
  2 28  1  0
  2 29  1  0
  3 19  4  0
  3 25  4  0
  4 23  4  0
  4 27  1  0
  4 30  4  0
  5 17  1  0
  6  8  1  0
  6 29  1  0
  7 24  4  0
  7 26  4  0
  8 28  1  0
  9 13  2  0
 10 18  1  0
 10 21  4  0
 10 30  4  0
 11 17  2  0
 12 18  1  0
 13 15  1  0
 14 24  1  0
 15 25  1  0
 16 28  2  0
 17 20  1  0
 19 24  4  0
 20 23  1  0
 21 22  4  0
 22 23  4  0
 25 26  4  0
 27 29  2  0
M  END
$$$$

 Created by Python create_sdf_string function

 30 33  0  0  0  0  0  0  0  0999 V2000
    8.3036    9.8571   18.4133 C   0  0  0  0  0  0  0  0  0  0  0  0
    8.3694    7.6612   22.6703 C   0  0  0  0  0  0  0  0  0  0  0  0
    8.4143    6.6863   16.2273 C   0  0  0  0  0  0  0  0  0  0  0  0
   10.7581    6.5674   21.7636 C   0  0  0  0  0  0  0  0  0  0  0  0
    8.4452    8.7960   19.2958 O   0  0  0  0  0  0  0  0  0  0  0  0
    8.7122    6.7842   24.8569 C   0  0  0  0  0  0  0  0  0  0  0  0
   10.3400    6.1726   14.3081 C   0  0  0  0  0  0  0  0  0  0  0  0
    7.4297    7.5873   24.8962 C   0  0  0  0  0  0  0  0  0  0  0  0
    8.1566   10.0536   16.0516 O   0  0  0  0  0  0  0  0  0  0  0  0
   12.4989    6.2074   20.1776 C   0  0  0  0  0  0  0  0  0  0  0  0
    6.9192    9.1053   20.9073 O   0  0  0  0  0  0  0  0  0  0  0  0
   14.3979    6.0729   18.7784 C   0  0  0  0  0  0  0  0  0  0  0  0
    8.6811    9.5354   16.9998 C   0  0  0  0  0  0  0  0  0  0  0  0
    9.2512    4.2713   13.7653 O   0  0  0  0  0  0  0  0  0  0  0  0
    9.6495    8.6317   16.8332 N   0  0  0  0  0  0  0  0  0  0  0  0
    6.2934    8.6988   23.1988 O   0  0  0  0  0  0  0  0  0  0  0  0
    7.9806    8.6543   20.5437 C   0  0  0  0  0  0  0  0  0  0  0  0
   13.7270    5.7144   19.8610 O   0  0  0  0  0  0  0  0  0  0  0  0
    8.3351    5.5235   15.4478 C   0  0  0  0  0  0  0  0  0  0  0  0
    8.7700    7.8434   21.3915 C   0  0  0  0  0  0  0  0  0  0  0  0
   11.7856    6.8851   19.2401 C   0  0  0  0  0  0  0  0  0  0  0  0
   10.5281    7.4276   19.5649 C   0  0  0  0  0  0  0  0  0  0  0  0
   10.0256    7.2907   20.8484 C   0  0  0  0  0  0  0  0  0  0  0  0
    9.3113    5.3049   14.4911 C   0  0  0  0  0  0  0  0  0  0  0  0
    9.4607    7.5646   16.0139 C   0  0  0  0  0  0  0  0  0  0  0  0
   10.4192    7.3157   15.0955 C   0  0  0  0  0  0  0  0  0  0  0  0
   10.2489    6.4227   23.0218 N   0  0  0  0  0  0  0  0  0  0  0  0
    7.2472    8.0746   23.5050 C   0  0  0  0  0  0  0  0  0  0  0  0
    9.2051    6.9101   23.4604 C   0  0  0  0  0  0  0  0  0  0  0  0
   11.9646    6.0299   21.4251 C   0  0  0  0  0  0  0  0  0  0  0  0
  1  5  1  0
  1 13  1  0
  2 20  2  0
  2 28  1  0
  2 29  1  0
  3 19  4  0
  3 25  4  0
  4 23  4  0
  4 27  1  0
  4 30  4  0
  5 17  1  0
  6  8  1  0
  6 29  1  0
  7 24  4  0
  7 26  4  0
  8 28  1  0
  9 13  2  0
 10 18  1  0
 10 21  4  0
 10 30  4  0
 11 17  2  0
 12 18  1  0
 13 15  1  0
 14 24  1  0
 15 25  1  0
 16 28  2  0
 17 20  1  0
 19 24  4  0
 20 23  1  0
 21 22  4  0
 22 23  4  0
 25 26  4  0
 27 29  2  0
M  END
$$$$

 Created by Python create_sdf_string function

 30 33  0  0  0  0  0  0  0  0999 V2000
    8.3036    9.8571   18.4133 C   0  0  0  0  0  0  0  0  0  0  0  0
    8.3694    7.6612   22.6703 C   0  0  0  0  0  0  0  0  0  0  0  0
    8.4143    6.6863   16.2273 C   0  0  0  0  0  0  0  0  0  0  0  0
   10.7581    6.5674   21.7636 C   0  0  0  0  0  0  0  0  0  0  0  0
    8.4452    8.7960   19.2958 O   0  0  0  0  0  0  0  0  0  0  0  0
    8.7122    6.7842   24.8569 C   0  0  0  0  0  0  0  0  0  0  0  0
   10.3400    6.1726   14.3081 C   0  0  0  0  0  0  0  0  0  0  0  0
    7.4297    7.5873   24.8962 C   0  0  0  0  0  0  0  0  0  0  0  0
    8.1566   10.0536   16.0516 O   0  0  0  0  0  0  0  0  0  0  0  0
   12.4989    6.2074   20.1776 C   0  0  0  0  0  0  0  0  0  0  0  0
    6.9192    9.1053   20.9073 O   0  0  0  0  0  0  0  0  0  0  0  0
   14.3979    6.0729   18.7784 C   0  0  0  0  0  0  0  0  0  0  0  0
    8.6811    9.5354   16.9998 C   0  0  0  0  0  0  0  0  0  0  0  0
    9.2512    4.2713   13.7653 O   0  0  0  0  0  0  0  0  0  0  0  0
    9.6495    8.6317   16.8332 N   0  0  0  0  0  0  0  0  0  0  0  0
    6.2934    8.6988   23.1988 O   0  0  0  0  0  0  0  0  0  0  0  0
    7.9806    8.6543   20.5437 C   0  0  0  0  0  0  0  0  0  0  0  0
   13.7270    5.7144   19.8610 O   0  0  0  0  0  0  0  0  0  0  0  0
    8.3351    5.5235   15.4478 C   0  0  0  0  0  0  0  0  0  0  0  0
    8.7700    7.8434   21.3915 C   0  0  0  0  0  0  0  0  0  0  0  0
   11.7856    6.8851   19.2401 C   0  0  0  0  0  0  0  0  0  0  0  0
   10.5281    7.4276   19.5649 C   0  0  0  0  0  0  0  0  0  0  0  0
   10.0256    7.2907   20.8484 C   0  0  0  0  0  0  0  0  0  0  0  0
    9.3113    5.3049   14.4911 C   0  0  0  0  0  0  0  0  0  0  0  0
    9.4607    7.5646   16.0139 C   0  0  0  0  0  0  0  0  0  0  0  0
   10.4192    7.3157   15.0955 C   0  0  0  0  0  0  0  0  0  0  0  0
   10.2489    6.4227   23.0218 N   0  0  0  0  0  0  0  0  0  0  0  0
    7.2472    8.0746   23.5050 C   0  0  0  0  0  0  0  0  0  0  0  0
    9.2051    6.9101   23.4604 C   0  0  0  0  0  0  0  0  0  0  0  0
   11.9646    6.0299   21.4251 C   0  0  0  0  0  0  0  0  0  0  0  0
  1  5  1  0
  1 13  1  0
  2 20  2  0
  2 28  1  0
  2 29  1  0
  3 19  4  0
  3 25  4  0
  4 23  4  0
  4 27  1  0
  4 30  4  0
  5 17  1  0
  6  8  1  0
  6 29  1  0
  7 24  4  0
  7 26  4  0
  8 28  1  0
  9 13  2  0
 10 18  1  0
 10 21  4  0
 10 30  4  0
 11 17  2  0
 12 18  1  0
 13 15  1  0
 14 24  1  0
 15 25  1  0
 16 28  2  0
 17 20  1  0
 19 24  4  0
 20 23  1  0
 21 22  4  0
 22 23  4  0
 25 26  4  0
 27 29  2  0
M  END
$$$$

 Created by Python create_sdf_string function

 30 33  0  0  0  0  0  0  0  0999 V2000
    8.3036    9.8571   18.4133 C   0  0  0  0  0  0  0  0  0  0  0  0
    8.3694    7.6612   22.6703 C   0  0  0  0  0  0  0  0  0  0  0  0
    8.4143    6.6863   16.2273 C   0  0  0  0  0  0  0  0  0  0  0  0
   10.7581    6.5674   21.7636 C   0  0  0  0  0  0  0  0  0  0  0  0
    8.4452    8.7960   19.2958 O   0  0  0  0  0  0  0  0  0  0  0  0
    8.7122    6.7842   24.8569 C   0  0  0  0  0  0  0  0  0  0  0  0
   10.3400    6.1726   14.3081 C   0  0  0  0  0  0  0  0  0  0  0  0
    7.4297    7.5873   24.8962 C   0  0  0  0  0  0  0  0  0  0  0  0
    8.1566   10.0536   16.0516 O   0  0  0  0  0  0  0  0  0  0  0  0
   12.4989    6.2074   20.1776 C   0  0  0  0  0  0  0  0  0  0  0  0
    6.9192    9.1053   20.9073 O   0  0  0  0  0  0  0  0  0  0  0  0
   14.3979    6.0729   18.7784 C   0  0  0  0  0  0  0  0  0  0  0  0
    8.6811    9.5354   16.9998 C   0  0  0  0  0  0  0  0  0  0  0  0
    9.2512    4.2713   13.7653 O   0  0  0  0  0  0  0  0  0  0  0  0
    9.6495    8.6317   16.8332 N   0  0  0  0  0  0  0  0  0  0  0  0
    6.2934    8.6988   23.1988 O   0  0  0  0  0  0  0  0  0  0  0  0
    7.9806    8.6543   20.5437 C   0  0  0  0  0  0  0  0  0  0  0  0
   13.7270    5.7144   19.8610 O   0  0  0  0  0  0  0  0  0  0  0  0
    8.3351    5.5235   15.4478 C   0  0  0  0  0  0  0  0  0  0  0  0
    8.7700    7.8434   21.3915 C   0  0  0  0  0  0  0  0  0  0  0  0
   11.7856    6.8851   19.2401 C   0  0  0  0  0  0  0  0  0  0  0  0
   10.5281    7.4276   19.5649 C   0  0  0  0  0  0  0  0  0  0  0  0
   10.0256    7.2907   20.8484 C   0  0  0  0  0  0  0  0  0  0  0  0
    9.3113    5.3049   14.4911 C   0  0  0  0  0  0  0  0  0  0  0  0
    9.4607    7.5646   16.0139 C   0  0  0  0  0  0  0  0  0  0  0  0
   10.4192    7.3157   15.0955 C   0  0  0  0  0  0  0  0  0  0  0  0
   10.2489    6.4227   23.0218 N   0  0  0  0  0  0  0  0  0  0  0  0
    7.2472    8.0746   23.5050 C   0  0  0  0  0  0  0  0  0  0  0  0
    9.2051    6.9101   23.4604 C   0  0  0  0  0  0  0  0  0  0  0  0
   11.9646    6.0299   21.4251 C   0  0  0  0  0  0  0  0  0  0  0  0
  1  5  1  0
  1 13  1  0
  2 20  2  0
  2 28  1  0
  2 29  1  0
  3 19  4  0
  3 25  4  0
  4 23  4  0
  4 27  1  0
  4 30  4  0
  5 17  1  0
  6  8  1  0
  6 29  1  0
  7 24  4  0
  7 26  4  0
  8 28  1  0
  9 13  2  0
 10 18  1  0
 10 21  4  0
 10 30  4  0
 11 17  2  0
 12 18  1  0
 13 15  1  0
 14 24  1  0
 15 25  1  0
 16 28  2  0
 17 20  1  0
 19 24  4  0
 20 23  1  0
 21 22  4  0
 22 23  4  0
 25 26  4  0
 27 29  2  0
M  END
$$$$

 Created by Python create_sdf_string function

 30 33  0  0  0  0  0  0  0  0999 V2000
    8.3036    9.8571   18.4133 C   0  0  0  0  0  0  0  0  0  0  0  0
    8.3694    7.6612   22.6703 C   0  0  0  0  0  0  0  0  0  0  0  0
    8.4143    6.6863   16.2273 C   0  0  0  0  0  0  0  0  0  0  0  0
   10.7581    6.5674   21.7636 C   0  0  0  0  0  0  0  0  0  0  0  0
    8.4452    8.7960   19.2958 O   0  0  0  0  0  0  0  0  0  0  0  0
    8.7122    6.7842   24.8569 C   0  0  0  0  0  0  0  0  0  0  0  0
   10.3400    6.1726   14.3081 C   0  0  0  0  0  0  0  0  0  0  0  0
    7.4297    7.5873   24.8962 C   0  0  0  0  0  0  0  0  0  0  0  0
    8.1566   10.0536   16.0516 O   0  0  0  0  0  0  0  0  0  0  0  0
   12.4989    6.2074   20.1776 C   0  0  0  0  0  0  0  0  0  0  0  0
    6.9192    9.1053   20.9073 O   0  0  0  0  0  0  0  0  0  0  0  0
   14.3979    6.0729   18.7784 C   0  0  0  0  0  0  0  0  0  0  0  0
    8.6811    9.5354   16.9998 C   0  0  0  0  0  0  0  0  0  0  0  0
    9.2512    4.2713   13.7653 O   0  0  0  0  0  0  0  0  0  0  0  0
    9.6495    8.6317   16.8332 N   0  0  0  0  0  0  0  0  0  0  0  0
    6.2934    8.6988   23.1988 O   0  0  0  0  0  0  0  0  0  0  0  0
    7.9806    8.6543   20.5437 C   0  0  0  0  0  0  0  0  0  0  0  0
   13.7270    5.7144   19.8610 O   0  0  0  0  0  0  0  0  0  0  0  0
    8.3351    5.5235   15.4478 C   0  0  0  0  0  0  0  0  0  0  0  0
    8.7700    7.8434   21.3915 C   0  0  0  0  0  0  0  0  0  0  0  0
   11.7856    6.8851   19.2401 C   0  0  0  0  0  0  0  0  0  0  0  0
   10.5281    7.4276   19.5649 C   0  0  0  0  0  0  0  0  0  0  0  0
   10.0256    7.2907   20.8484 C   0  0  0  0  0  0  0  0  0  0  0  0
    9.3113    5.3049   14.4911 C   0  0  0  0  0  0  0  0  0  0  0  0
    9.4607    7.5646   16.0139 C   0  0  0  0  0  0  0  0  0  0  0  0
   10.4192    7.3157   15.0955 C   0  0  0  0  0  0  0  0  0  0  0  0
   10.2489    6.4227   23.0218 N   0  0  0  0  0  0  0  0  0  0  0  0
    7.2472    8.0746   23.5050 C   0  0  0  0  0  0  0  0  0  0  0  0
    9.2051    6.9101   23.4604 C   0  0  0  0  0  0  0  0  0  0  0  0
   11.9646    6.0299   21.4251 C   0  0  0  0  0  0  0  0  0  0  0  0
  1  5  1  0
  1 13  1  0
  2 20  2  0
  2 28  1  0
  2 29  1  0
  3 19  4  0
  3 25  4  0
  4 23  4  0
  4 27  1  0
  4 30  4  0
  5 17  1  0
  6  8  1  0
  6 29  1  0
  7 24  4  0
  7 26  4  0
  8 28  1  0
  9 13  2  0
 10 18  1  0
 10 21  4  0
 10 30  4  0
 11 17  2  0
 12 18  1  0
 13 15  1  0
 14 24  1  0
 15 25  1  0
 16 28  2  0
 17 20  1  0
 19 24  4  0
 20 23  1  0
 21 22  4  0
 22 23  4  0
 25 26  4  0
 27 29  2  0
M  END
$$$$

 Created by Python create_sdf_string function

 30 33  0  0  0  0  0  0  0  0999 V2000
    8.3036    9.8571   18.4133 C   0  0  0  0  0  0  0  0  0  0  0  0
    8.3694    7.6612   22.6703 C   0  0  0  0  0  0  0  0  0  0  0  0
    8.4143    6.6863   16.2273 C   0  0  0  0  0  0  0  0  0  0  0  0
   10.7581    6.5674   21.7636 C   0  0  0  0  0  0  0  0  0  0  0  0
    8.4452    8.7960   19.2958 O   0  0  0  0  0  0  0  0  0  0  0  0
    8.7122    6.7842   24.8569 C   0  0  0  0  0  0  0  0  0  0  0  0
   10.3400    6.1726   14.3081 C   0  0  0  0  0  0  0  0  0  0  0  0
    7.4297    7.5873   24.8962 C   0  0  0  0  0  0  0  0  0  0  0  0
    8.1566   10.0536   16.0516 O   0  0  0  0  0  0  0  0  0  0  0  0
   12.4989    6.2074   20.1776 C   0  0  0  0  0  0  0  0  0  0  0  0
    6.9192    9.1053   20.9073 O   0  0  0  0  0  0  0  0  0  0  0  0
   14.3979    6.0729   18.7784 C   0  0  0  0  0  0  0  0  0  0  0  0
    8.6811    9.5354   16.9998 C   0  0  0  0  0  0  0  0  0  0  0  0
    9.2512    4.2713   13.7653 O   0  0  0  0  0  0  0  0  0  0  0  0
    9.6495    8.6317   16.8332 N   0  0  0  0  0  0  0  0  0  0  0  0
    6.2934    8.6988   23.1988 O   0  0  0  0  0  0  0  0  0  0  0  0
    7.9806    8.6543   20.5437 C   0  0  0  0  0  0  0  0  0  0  0  0
   13.7270    5.7144   19.8610 O   0  0  0  0  0  0  0  0  0  0  0  0
    8.3351    5.5235   15.4478 C   0  0  0  0  0  0  0  0  0  0  0  0
    8.7700    7.8434   21.3915 C   0  0  0  0  0  0  0  0  0  0  0  0
   11.7856    6.8851   19.2401 C   0  0  0  0  0  0  0  0  0  0  0  0
   10.5281    7.4276   19.5649 C   0  0  0  0  0  0  0  0  0  0  0  0
   10.0256    7.2907   20.8484 C   0  0  0  0  0  0  0  0  0  0  0  0
    9.3113    5.3049   14.4911 C   0  0  0  0  0  0  0  0  0  0  0  0
    9.4607    7.5646   16.0139 C   0  0  0  0  0  0  0  0  0  0  0  0
   10.4192    7.3157   15.0955 C   0  0  0  0  0  0  0  0  0  0  0  0
   10.2489    6.4227   23.0218 N   0  0  0  0  0  0  0  0  0  0  0  0
    7.2472    8.0746   23.5050 C   0  0  0  0  0  0  0  0  0  0  0  0
    9.2051    6.9101   23.4604 C   0  0  0  0  0  0  0  0  0  0  0  0
   11.9646    6.0299   21.4251 C   0  0  0  0  0  0  0  0  0  0  0  0
  1  5  1  0
  1 13  1  0
  2 20  2  0
  2 28  1  0
  2 29  1  0
  3 19  4  0
  3 25  4  0
  4 23  4  0
  4 27  1  0
  4 30  4  0
  5 17  1  0
  6  8  1  0
  6 29  1  0
  7 24  4  0
  7 26  4  0
  8 28  1  0
  9 13  2  0
 10 18  1  0
 10 21  4  0
 10 30  4  0
 11 17  2  0
 12 18  1  0
 13 15  1  0
 14 24  1  0
 15 25  1  0
 16 28  2  0
 17 20  1  0
 19 24  4  0
 20 23  1  0
 21 22  4  0
 22 23  4  0
 25 26  4  0
 27 29  2  0
M  END
$$$$

 Created by Python create_sdf_string function

 30 33  0  0  0  0  0  0  0  0999 V2000
    8.3036    9.8571   18.4133 C   0  0  0  0  0  0  0  0  0  0  0  0
    8.3694    7.6612   22.6703 C   0  0  0  0  0  0  0  0  0  0  0  0
    8.4143    6.6863   16.2273 C   0  0  0  0  0  0  0  0  0  0  0  0
   10.7581    6.5674   21.7636 C   0  0  0  0  0  0  0  0  0  0  0  0
    8.4452    8.7960   19.2958 O   0  0  0  0  0  0  0  0  0  0  0  0
    8.7122    6.7842   24.8569 C   0  0  0  0  0  0  0  0  0  0  0  0
   10.3400    6.1726   14.3081 C   0  0  0  0  0  0  0  0  0  0  0  0
    7.4297    7.5873   24.8962 C   0  0  0  0  0  0  0  0  0  0  0  0
    8.1566   10.0536   16.0516 O   0  0  0  0  0  0  0  0  0  0  0  0
   12.4989    6.2074   20.1776 C   0  0  0  0  0  0  0  0  0  0  0  0
    6.9192    9.1053   20.9073 O   0  0  0  0  0  0  0  0  0  0  0  0
   14.3979    6.0729   18.7784 C   0  0  0  0  0  0  0  0  0  0  0  0
    8.6811    9.5354   16.9998 C   0  0  0  0  0  0  0  0  0  0  0  0
    9.2512    4.2713   13.7653 O   0  0  0  0  0  0  0  0  0  0  0  0
    9.6495    8.6317   16.8332 N   0  0  0  0  0  0  0  0  0  0  0  0
    6.2934    8.6988   23.1988 O   0  0  0  0  0  0  0  0  0  0  0  0
    7.9806    8.6543   20.5437 C   0  0  0  0  0  0  0  0  0  0  0  0
   13.7270    5.7144   19.8610 O   0  0  0  0  0  0  0  0  0  0  0  0
    8.3351    5.5235   15.4478 C   0  0  0  0  0  0  0  0  0  0  0  0
    8.7700    7.8434   21.3915 C   0  0  0  0  0  0  0  0  0  0  0  0
   11.7856    6.8851   19.2401 C   0  0  0  0  0  0  0  0  0  0  0  0
   10.5281    7.4276   19.5649 C   0  0  0  0  0  0  0  0  0  0  0  0
   10.0256    7.2907   20.8484 C   0  0  0  0  0  0  0  0  0  0  0  0
    9.3113    5.3049   14.4911 C   0  0  0  0  0  0  0  0  0  0  0  0
    9.4607    7.5646   16.0139 C   0  0  0  0  0  0  0  0  0  0  0  0
   10.4192    7.3157   15.0955 C   0  0  0  0  0  0  0  0  0  0  0  0
   10.2489    6.4227   23.0218 N   0  0  0  0  0  0  0  0  0  0  0  0
    7.2472    8.0746   23.5050 C   0  0  0  0  0  0  0  0  0  0  0  0
    9.2051    6.9101   23.4604 C   0  0  0  0  0  0  0  0  0  0  0  0
   11.9646    6.0299   21.4251 C   0  0  0  0  0  0  0  0  0  0  0  0
  1  5  1  0
  1 13  1  0
  2 20  2  0
  2 28  1  0
  2 29  1  0
  3 19  4  0
  3 25  4  0
  4 23  4  0
  4 27  1  0
  4 30  4  0
  5 17  1  0
  6  8  1  0
  6 29  1  0
  7 24  4  0
  7 26  4  0
  8 28  1  0
  9 13  2  0
 10 18  1  0
 10 21  4  0
 10 30  4  0
 11 17  2  0
 12 18  1  0
 13 15  1  0
 14 24  1  0
 15 25  1  0
 16 28  2  0
 17 20  1  0
 19 24  4  0
 20 23  1  0
 21 22  4  0
 22 23  4  0
 25 26  4  0
 27 29  2  0
M  END
$$$$

 Created by Python create_sdf_string function

 30 33  0  0  0  0  0  0  0  0999 V2000
    8.3036    9.8571   18.4133 C   0  0  0  0  0  0  0  0  0  0  0  0
    8.3694    7.6612   22.6703 C   0  0  0  0  0  0  0  0  0  0  0  0
    8.4143    6.6863   16.2273 C   0  0  0  0  0  0  0  0  0  0  0  0
   10.7581    6.5674   21.7636 C   0  0  0  0  0  0  0  0  0  0  0  0
    8.4452    8.7960   19.2958 O   0  0  0  0  0  0  0  0  0  0  0  0
    8.7122    6.7842   24.8569 C   0  0  0  0  0  0  0  0  0  0  0  0
   10.3400    6.1726   14.3081 C   0  0  0  0  0  0  0  0  0  0  0  0
    7.4297    7.5873   24.8962 C   0  0  0  0  0  0  0  0  0  0  0  0
    8.1566   10.0536   16.0516 O   0  0  0  0  0  0  0  0  0  0  0  0
   12.4989    6.2074   20.1776 C   0  0  0  0  0  0  0  0  0  0  0  0
    6.9192    9.1053   20.9073 O   0  0  0  0  0  0  0  0  0  0  0  0
   14.3979    6.0729   18.7784 C   0  0  0  0  0  0  0  0  0  0  0  0
    8.6811    9.5354   16.9998 C   0  0  0  0  0  0  0  0  0  0  0  0
    9.2512    4.2713   13.7653 O   0  0  0  0  0  0  0  0  0  0  0  0
    9.6495    8.6317   16.8332 N   0  0  0  0  0  0  0  0  0  0  0  0
    6.2934    8.6988   23.1988 O   0  0  0  0  0  0  0  0  0  0  0  0
    7.9806    8.6543   20.5437 C   0  0  0  0  0  0  0  0  0  0  0  0
   13.7270    5.7144   19.8610 O   0  0  0  0  0  0  0  0  0  0  0  0
    8.3351    5.5235   15.4478 C   0  0  0  0  0  0  0  0  0  0  0  0
    8.7700    7.8434   21.3915 C   0  0  0  0  0  0  0  0  0  0  0  0
   11.7856    6.8851   19.2401 C   0  0  0  0  0  0  0  0  0  0  0  0
   10.5281    7.4276   19.5649 C   0  0  0  0  0  0  0  0  0  0  0  0
   10.0256    7.2907   20.8484 C   0  0  0  0  0  0  0  0  0  0  0  0
    9.3113    5.3049   14.4911 C   0  0  0  0  0  0  0  0  0  0  0  0
    9.4607    7.5646   16.0139 C   0  0  0  0  0  0  0  0  0  0  0  0
   10.4192    7.3157   15.0955 C   0  0  0  0  0  0  0  0  0  0  0  0
   10.2489    6.4227   23.0218 N   0  0  0  0  0  0  0  0  0  0  0  0
    7.2472    8.0746   23.5050 C   0  0  0  0  0  0  0  0  0  0  0  0
    9.2051    6.9101   23.4604 C   0  0  0  0  0  0  0  0  0  0  0  0
   11.9646    6.0299   21.4251 C   0  0  0  0  0  0  0  0  0  0  0  0
  1  5  1  0
  1 13  1  0
  2 20  2  0
  2 28  1  0
  2 29  1  0
  3 19  4  0
  3 25  4  0
  4 23  4  0
  4 27  1  0
  4 30  4  0
  5 17  1  0
  6  8  1  0
  6 29  1  0
  7 24  4  0
  7 26  4  0
  8 28  1  0
  9 13  2  0
 10 18  1  0
 10 21  4  0
 10 30  4  0
 11 17  2  0
 12 18  1  0
 13 15  1  0
 14 24  1  0
 15 25  1  0
 16 28  2  0
 17 20  1  0
 19 24  4  0
 20 23  1  0
 21 22  4  0
 22 23  4  0
 25 26  4  0
 27 29  2  0
M  END
$$$$

 Created by Python create_sdf_string function

 30 33  0  0  0  0  0  0  0  0999 V2000
    8.3036    9.8571   18.4133 C   0  0  0  0  0  0  0  0  0  0  0  0
    8.3694    7.6612   22.6703 C   0  0  0  0  0  0  0  0  0  0  0  0
    8.4143    6.6863   16.2273 C   0  0  0  0  0  0  0  0  0  0  0  0
   10.7581    6.5674   21.7636 C   0  0  0  0  0  0  0  0  0  0  0  0
    8.4452    8.7960   19.2958 O   0  0  0  0  0  0  0  0  0  0  0  0
    8.7122    6.7842   24.8569 C   0  0  0  0  0  0  0  0  0  0  0  0
   10.3400    6.1726   14.3081 C   0  0  0  0  0  0  0  0  0  0  0  0
    7.4297    7.5873   24.8962 C   0  0  0  0  0  0  0  0  0  0  0  0
    8.1566   10.0536   16.0516 O   0  0  0  0  0  0  0  0  0  0  0  0
   12.4989    6.2074   20.1776 C   0  0  0  0  0  0  0  0  0  0  0  0
    6.9192    9.1053   20.9073 O   0  0  0  0  0  0  0  0  0  0  0  0
   14.3979    6.0729   18.7784 C   0  0  0  0  0  0  0  0  0  0  0  0
    8.6811    9.5354   16.9998 C   0  0  0  0  0  0  0  0  0  0  0  0
    9.2512    4.2713   13.7653 O   0  0  0  0  0  0  0  0  0  0  0  0
    9.6495    8.6317   16.8332 N   0  0  0  0  0  0  0  0  0  0  0  0
    6.2934    8.6988   23.1988 O   0  0  0  0  0  0  0  0  0  0  0  0
    7.9806    8.6543   20.5437 C   0  0  0  0  0  0  0  0  0  0  0  0
   13.7270    5.7144   19.8610 O   0  0  0  0  0  0  0  0  0  0  0  0
    8.3351    5.5235   15.4478 C   0  0  0  0  0  0  0  0  0  0  0  0
    8.7700    7.8434   21.3915 C   0  0  0  0  0  0  0  0  0  0  0  0
   11.7856    6.8851   19.2401 C   0  0  0  0  0  0  0  0  0  0  0  0
   10.5281    7.4276   19.5649 C   0  0  0  0  0  0  0  0  0  0  0  0
   10.0256    7.2907   20.8484 C   0  0  0  0  0  0  0  0  0  0  0  0
    9.3113    5.3049   14.4911 C   0  0  0  0  0  0  0  0  0  0  0  0
    9.4607    7.5646   16.0139 C   0  0  0  0  0  0  0  0  0  0  0  0
   10.4192    7.3157   15.0955 C   0  0  0  0  0  0  0  0  0  0  0  0
   10.2489    6.4227   23.0218 N   0  0  0  0  0  0  0  0  0  0  0  0
    7.2472    8.0746   23.5050 C   0  0  0  0  0  0  0  0  0  0  0  0
    9.2051    6.9101   23.4604 C   0  0  0  0  0  0  0  0  0  0  0  0
   11.9646    6.0299   21.4251 C   0  0  0  0  0  0  0  0  0  0  0  0
  1  5  1  0
  1 13  1  0
  2 20  2  0
  2 28  1  0
  2 29  1  0
  3 19  4  0
  3 25  4  0
  4 23  4  0
  4 27  1  0
  4 30  4  0
  5 17  1  0
  6  8  1  0
  6 29  1  0
  7 24  4  0
  7 26  4  0
  8 28  1  0
  9 13  2  0
 10 18  1  0
 10 21  4  0
 10 30  4  0
 11 17  2  0
 12 18  1  0
 13 15  1  0
 14 24  1  0
 15 25  1  0
 16 28  2  0
 17 20  1  0
 19 24  4  0
 20 23  1  0
 21 22  4  0
 22 23  4  0
 25 26  4  0
 27 29  2  0
M  END
$$$$

 Created by Python create_sdf_string function

 30 33  0  0  0  0  0  0  0  0999 V2000
    8.3036    9.8571   18.4133 C   0  0  0  0  0  0  0  0  0  0  0  0
    8.3694    7.6612   22.6703 C   0  0  0  0  0  0  0  0  0  0  0  0
    8.4143    6.6863   16.2273 C   0  0  0  0  0  0  0  0  0  0  0  0
   10.7581    6.5674   21.7636 C   0  0  0  0  0  0  0  0  0  0  0  0
    8.4452    8.7960   19.2958 O   0  0  0  0  0  0  0  0  0  0  0  0
    8.7122    6.7842   24.8569 C   0  0  0  0  0  0  0  0  0  0  0  0
   10.3400    6.1726   14.3081 C   0  0  0  0  0  0  0  0  0  0  0  0
    7.4297    7.5873   24.8962 C   0  0  0  0  0  0  0  0  0  0  0  0
    8.1566   10.0536   16.0516 O   0  0  0  0  0  0  0  0  0  0  0  0
   12.4989    6.2074   20.1776 C   0  0  0  0  0  0  0  0  0  0  0  0
    6.9192    9.1053   20.9073 O   0  0  0  0  0  0  0  0  0  0  0  0
   14.3979    6.0729   18.7784 C   0  0  0  0  0  0  0  0  0  0  0  0
    8.6811    9.5354   16.9998 C   0  0  0  0  0  0  0  0  0  0  0  0
    9.2512    4.2713   13.7653 O   0  0  0  0  0  0  0  0  0  0  0  0
    9.6495    8.6317   16.8332 N   0  0  0  0  0  0  0  0  0  0  0  0
    6.2934    8.6988   23.1988 O   0  0  0  0  0  0  0  0  0  0  0  0
    7.9806    8.6543   20.5437 C   0  0  0  0  0  0  0  0  0  0  0  0
   13.7270    5.7144   19.8610 O   0  0  0  0  0  0  0  0  0  0  0  0
    8.3351    5.5235   15.4478 C   0  0  0  0  0  0  0  0  0  0  0  0
    8.7700    7.8434   21.3915 C   0  0  0  0  0  0  0  0  0  0  0  0
   11.7856    6.8851   19.2401 C   0  0  0  0  0  0  0  0  0  0  0  0
   10.5281    7.4276   19.5649 C   0  0  0  0  0  0  0  0  0  0  0  0
   10.0256    7.2907   20.8484 C   0  0  0  0  0  0  0  0  0  0  0  0
    9.3113    5.3049   14.4911 C   0  0  0  0  0  0  0  0  0  0  0  0
    9.4607    7.5646   16.0139 C   0  0  0  0  0  0  0  0  0  0  0  0
   10.4192    7.3157   15.0955 C   0  0  0  0  0  0  0  0  0  0  0  0
   10.2489    6.4227   23.0218 N   0  0  0  0  0  0  0  0  0  0  0  0
    7.2472    8.0746   23.5050 C   0  0  0  0  0  0  0  0  0  0  0  0
    9.2051    6.9101   23.4604 C   0  0  0  0  0  0  0  0  0  0  0  0
   11.9646    6.0299   21.4251 C   0  0  0  0  0  0  0  0  0  0  0  0
  1  5  1  0
  1 13  1  0
  2 20  2  0
  2 28  1  0
  2 29  1  0
  3 19  4  0
  3 25  4  0
  4 23  4  0
  4 27  1  0
  4 30  4  0
  5 17  1  0
  6  8  1  0
  6 29  1  0
  7 24  4  0
  7 26  4  0
  8 28  1  0
  9 13  2  0
 10 18  1  0
 10 21  4  0
 10 30  4  0
 11 17  2  0
 12 18  1  0
 13 15  1  0
 14 24  1  0
 15 25  1  0
 16 28  2  0
 17 20  1  0
 19 24  4  0
 20 23  1  0
 21 22  4  0
 22 23  4  0
 25 26  4  0
 27 29  2  0
M  END
$$$$

 Created by Python create_sdf_string function

 30 33  0  0  0  0  0  0  0  0999 V2000
    8.3036    9.8571   18.4133 C   0  0  0  0  0  0  0  0  0  0  0  0
    8.3694    7.6612   22.6703 C   0  0  0  0  0  0  0  0  0  0  0  0
    8.4143    6.6863   16.2273 C   0  0  0  0  0  0  0  0  0  0  0  0
   10.7581    6.5674   21.7636 C   0  0  0  0  0  0  0  0  0  0  0  0
    8.4452    8.7960   19.2958 O   0  0  0  0  0  0  0  0  0  0  0  0
    8.7122    6.7842   24.8569 C   0  0  0  0  0  0  0  0  0  0  0  0
   10.3400    6.1726   14.3081 C   0  0  0  0  0  0  0  0  0  0  0  0
    7.4297    7.5873   24.8962 C   0  0  0  0  0  0  0  0  0  0  0  0
    8.1566   10.0536   16.0516 O   0  0  0  0  0  0  0  0  0  0  0  0
   12.4989    6.2074   20.1776 C   0  0  0  0  0  0  0  0  0  0  0  0
    6.9192    9.1053   20.9073 O   0  0  0  0  0  0  0  0  0  0  0  0
   14.3979    6.0729   18.7784 C   0  0  0  0  0  0  0  0  0  0  0  0
    8.6811    9.5354   16.9998 C   0  0  0  0  0  0  0  0  0  0  0  0
    9.2512    4.2713   13.7653 O   0  0  0  0  0  0  0  0  0  0  0  0
    9.6495    8.6317   16.8332 N   0  0  0  0  0  0  0  0  0  0  0  0
    6.2934    8.6988   23.1988 O   0  0  0  0  0  0  0  0  0  0  0  0
    7.9806    8.6543   20.5437 C   0  0  0  0  0  0  0  0  0  0  0  0
   13.7270    5.7144   19.8610 O   0  0  0  0  0  0  0  0  0  0  0  0
    8.3351    5.5235   15.4478 C   0  0  0  0  0  0  0  0  0  0  0  0
    8.7700    7.8434   21.3915 C   0  0  0  0  0  0  0  0  0  0  0  0
   11.7856    6.8851   19.2401 C   0  0  0  0  0  0  0  0  0  0  0  0
   10.5281    7.4276   19.5649 C   0  0  0  0  0  0  0  0  0  0  0  0
   10.0256    7.2907   20.8484 C   0  0  0  0  0  0  0  0  0  0  0  0
    9.3113    5.3049   14.4911 C   0  0  0  0  0  0  0  0  0  0  0  0
    9.4607    7.5646   16.0139 C   0  0  0  0  0  0  0  0  0  0  0  0
   10.4192    7.3157   15.0955 C   0  0  0  0  0  0  0  0  0  0  0  0
   10.2489    6.4227   23.0218 N   0  0  0  0  0  0  0  0  0  0  0  0
    7.2472    8.0746   23.5050 C   0  0  0  0  0  0  0  0  0  0  0  0
    9.2051    6.9101   23.4604 C   0  0  0  0  0  0  0  0  0  0  0  0
   11.9646    6.0299   21.4251 C   0  0  0  0  0  0  0  0  0  0  0  0
  1  5  1  0
  1 13  1  0
  2 20  2  0
  2 28  1  0
  2 29  1  0
  3 19  4  0
  3 25  4  0
  4 23  4  0
  4 27  1  0
  4 30  4  0
  5 17  1  0
  6  8  1  0
  6 29  1  0
  7 24  4  0
  7 26  4  0
  8 28  1  0
  9 13  2  0
 10 18  1  0
 10 21  4  0
 10 30  4  0
 11 17  2  0
 12 18  1  0
 13 15  1  0
 14 24  1  0
 15 25  1  0
 16 28  2  0
 17 20  1  0
 19 24  4  0
 20 23  1  0
 21 22  4  0
 22 23  4  0
 25 26  4  0
 27 29  2  0
M  END
$$$$

 Created by Python create_sdf_string function

 30 33  0  0  0  0  0  0  0  0999 V2000
    8.3036    9.8571   18.4133 C   0  0  0  0  0  0  0  0  0  0  0  0
    8.3694    7.6612   22.6703 C   0  0  0  0  0  0  0  0  0  0  0  0
    8.4143    6.6863   16.2273 C   0  0  0  0  0  0  0  0  0  0  0  0
   10.7581    6.5674   21.7636 C   0  0  0  0  0  0  0  0  0  0  0  0
    8.4452    8.7960   19.2958 O   0  0  0  0  0  0  0  0  0  0  0  0
    8.7122    6.7842   24.8569 C   0  0  0  0  0  0  0  0  0  0  0  0
   10.3400    6.1726   14.3081 C   0  0  0  0  0  0  0  0  0  0  0  0
    7.4297    7.5873   24.8962 C   0  0  0  0  0  0  0  0  0  0  0  0
    8.1566   10.0536   16.0516 O   0  0  0  0  0  0  0  0  0  0  0  0
   12.4989    6.2074   20.1776 C   0  0  0  0  0  0  0  0  0  0  0  0
    6.9192    9.1053   20.9073 O   0  0  0  0  0  0  0  0  0  0  0  0
   14.3979    6.0729   18.7784 C   0  0  0  0  0  0  0  0  0  0  0  0
    8.6811    9.5354   16.9998 C   0  0  0  0  0  0  0  0  0  0  0  0
    9.2512    4.2713   13.7653 O   0  0  0  0  0  0  0  0  0  0  0  0
    9.6495    8.6317   16.8332 N   0  0  0  0  0  0  0  0  0  0  0  0
    6.2934    8.6988   23.1988 O   0  0  0  0  0  0  0  0  0  0  0  0
    7.9806    8.6543   20.5437 C   0  0  0  0  0  0  0  0  0  0  0  0
   13.7270    5.7144   19.8610 O   0  0  0  0  0  0  0  0  0  0  0  0
    8.3351    5.5235   15.4478 C   0  0  0  0  0  0  0  0  0  0  0  0
    8.7700    7.8434   21.3915 C   0  0  0  0  0  0  0  0  0  0  0  0
   11.7856    6.8851   19.2401 C   0  0  0  0  0  0  0  0  0  0  0  0
   10.5281    7.4276   19.5649 C   0  0  0  0  0  0  0  0  0  0  0  0
   10.0256    7.2907   20.8484 C   0  0  0  0  0  0  0  0  0  0  0  0
    9.3113    5.3049   14.4911 C   0  0  0  0  0  0  0  0  0  0  0  0
    9.4607    7.5646   16.0139 C   0  0  0  0  0  0  0  0  0  0  0  0
   10.4192    7.3157   15.0955 C   0  0  0  0  0  0  0  0  0  0  0  0
   10.2489    6.4227   23.0218 N   0  0  0  0  0  0  0  0  0  0  0  0
    7.2472    8.0746   23.5050 C   0  0  0  0  0  0  0  0  0  0  0  0
    9.2051    6.9101   23.4604 C   0  0  0  0  0  0  0  0  0  0  0  0
   11.9646    6.0299   21.4251 C   0  0  0  0  0  0  0  0  0  0  0  0
  1  5  1  0
  1 13  1  0
  2 20  2  0
  2 28  1  0
  2 29  1  0
  3 19  4  0
  3 25  4  0
  4 23  4  0
  4 27  1  0
  4 30  4  0
  5 17  1  0
  6  8  1  0
  6 29  1  0
  7 24  4  0
  7 26  4  0
  8 28  1  0
  9 13  2  0
 10 18  1  0
 10 21  4  0
 10 30  4  0
 11 17  2  0
 12 18  1  0
 13 15  1  0
 14 24  1  0
 15 25  1  0
 16 28  2  0
 17 20  1  0
 19 24  4  0
 20 23  1  0
 21 22  4  0
 22 23  4  0
 25 26  4  0
 27 29  2  0
M  END
$$$$

 Created by Python create_sdf_string function

 30 33  0  0  0  0  0  0  0  0999 V2000
    8.3036    9.8571   18.4133 C   0  0  0  0  0  0  0  0  0  0  0  0
    8.3694    7.6612   22.6703 C   0  0  0  0  0  0  0  0  0  0  0  0
    8.4143    6.6863   16.2273 C   0  0  0  0  0  0  0  0  0  0  0  0
   10.7581    6.5674   21.7636 C   0  0  0  0  0  0  0  0  0  0  0  0
    8.4452    8.7960   19.2958 O   0  0  0  0  0  0  0  0  0  0  0  0
    8.7122    6.7842   24.8569 C   0  0  0  0  0  0  0  0  0  0  0  0
   10.3400    6.1726   14.3081 C   0  0  0  0  0  0  0  0  0  0  0  0
    7.4297    7.5873   24.8962 C   0  0  0  0  0  0  0  0  0  0  0  0
    8.1566   10.0536   16.0516 O   0  0  0  0  0  0  0  0  0  0  0  0
   12.4989    6.2074   20.1776 C   0  0  0  0  0  0  0  0  0  0  0  0
    6.9192    9.1053   20.9073 O   0  0  0  0  0  0  0  0  0  0  0  0
   14.3979    6.0729   18.7784 C   0  0  0  0  0  0  0  0  0  0  0  0
    8.6811    9.5354   16.9998 C   0  0  0  0  0  0  0  0  0  0  0  0
    9.2512    4.2713   13.7653 O   0  0  0  0  0  0  0  0  0  0  0  0
    9.6495    8.6317   16.8332 N   0  0  0  0  0  0  0  0  0  0  0  0
    6.2934    8.6988   23.1988 O   0  0  0  0  0  0  0  0  0  0  0  0
    7.9806    8.6543   20.5437 C   0  0  0  0  0  0  0  0  0  0  0  0
   13.7270    5.7144   19.8610 O   0  0  0  0  0  0  0  0  0  0  0  0
    8.3351    5.5235   15.4478 C   0  0  0  0  0  0  0  0  0  0  0  0
    8.7700    7.8434   21.3915 C   0  0  0  0  0  0  0  0  0  0  0  0
   11.7856    6.8851   19.2401 C   0  0  0  0  0  0  0  0  0  0  0  0
   10.5281    7.4276   19.5649 C   0  0  0  0  0  0  0  0  0  0  0  0
   10.0256    7.2907   20.8484 C   0  0  0  0  0  0  0  0  0  0  0  0
    9.3113    5.3049   14.4911 C   0  0  0  0  0  0  0  0  0  0  0  0
    9.4607    7.5646   16.0139 C   0  0  0  0  0  0  0  0  0  0  0  0
   10.4192    7.3157   15.0955 C   0  0  0  0  0  0  0  0  0  0  0  0
   10.2489    6.4227   23.0218 N   0  0  0  0  0  0  0  0  0  0  0  0
    7.2472    8.0746   23.5050 C   0  0  0  0  0  0  0  0  0  0  0  0
    9.2051    6.9101   23.4604 C   0  0  0  0  0  0  0  0  0  0  0  0
   11.9646    6.0299   21.4251 C   0  0  0  0  0  0  0  0  0  0  0  0
  1  5  1  0
  1 13  1  0
  2 20  2  0
  2 28  1  0
  2 29  1  0
  3 19  4  0
  3 25  4  0
  4 23  4  0
  4 27  1  0
  4 30  4  0
  5 17  1  0
  6  8  1  0
  6 29  1  0
  7 24  4  0
  7 26  4  0
  8 28  1  0
  9 13  2  0
 10 18  1  0
 10 21  4  0
 10 30  4  0
 11 17  2  0
 12 18  1  0
 13 15  1  0
 14 24  1  0
 15 25  1  0
 16 28  2  0
 17 20  1  0
 19 24  4  0
 20 23  1  0
 21 22  4  0
 22 23  4  0
 25 26  4  0
 27 29  2  0
M  END
$$$$

 Created by Python create_sdf_string function

 30 33  0  0  0  0  0  0  0  0999 V2000
    8.3036    9.8571   18.4133 C   0  0  0  0  0  0  0  0  0  0  0  0
    8.3694    7.6612   22.6703 C   0  0  0  0  0  0  0  0  0  0  0  0
    8.4143    6.6863   16.2273 C   0  0  0  0  0  0  0  0  0  0  0  0
   10.7581    6.5674   21.7636 C   0  0  0  0  0  0  0  0  0  0  0  0
    8.4452    8.7960   19.2958 O   0  0  0  0  0  0  0  0  0  0  0  0
    8.7122    6.7842   24.8569 C   0  0  0  0  0  0  0  0  0  0  0  0
   10.3400    6.1726   14.3081 C   0  0  0  0  0  0  0  0  0  0  0  0
    7.4297    7.5873   24.8962 C   0  0  0  0  0  0  0  0  0  0  0  0
    8.1566   10.0536   16.0516 O   0  0  0  0  0  0  0  0  0  0  0  0
   12.4989    6.2074   20.1776 C   0  0  0  0  0  0  0  0  0  0  0  0
    6.9192    9.1053   20.9073 O   0  0  0  0  0  0  0  0  0  0  0  0
   14.3979    6.0729   18.7784 C   0  0  0  0  0  0  0  0  0  0  0  0
    8.6811    9.5354   16.9998 C   0  0  0  0  0  0  0  0  0  0  0  0
    9.2512    4.2713   13.7653 O   0  0  0  0  0  0  0  0  0  0  0  0
    9.6495    8.6317   16.8332 N   0  0  0  0  0  0  0  0  0  0  0  0
    6.2934    8.6988   23.1988 O   0  0  0  0  0  0  0  0  0  0  0  0
    7.9806    8.6543   20.5437 C   0  0  0  0  0  0  0  0  0  0  0  0
   13.7270    5.7144   19.8610 O   0  0  0  0  0  0  0  0  0  0  0  0
    8.3351    5.5235   15.4478 C   0  0  0  0  0  0  0  0  0  0  0  0
    8.7700    7.8434   21.3915 C   0  0  0  0  0  0  0  0  0  0  0  0
   11.7856    6.8851   19.2401 C   0  0  0  0  0  0  0  0  0  0  0  0
   10.5281    7.4276   19.5649 C   0  0  0  0  0  0  0  0  0  0  0  0
   10.0256    7.2907   20.8484 C   0  0  0  0  0  0  0  0  0  0  0  0
    9.3113    5.3049   14.4911 C   0  0  0  0  0  0  0  0  0  0  0  0
    9.4607    7.5646   16.0139 C   0  0  0  0  0  0  0  0  0  0  0  0
   10.4192    7.3157   15.0955 C   0  0  0  0  0  0  0  0  0  0  0  0
   10.2489    6.4227   23.0218 N   0  0  0  0  0  0  0  0  0  0  0  0
    7.2472    8.0746   23.5050 C   0  0  0  0  0  0  0  0  0  0  0  0
    9.2051    6.9101   23.4604 C   0  0  0  0  0  0  0  0  0  0  0  0
   11.9646    6.0299   21.4251 C   0  0  0  0  0  0  0  0  0  0  0  0
  1  5  1  0
  1 13  1  0
  2 20  2  0
  2 28  1  0
  2 29  1  0
  3 19  4  0
  3 25  4  0
  4 23  4  0
  4 27  1  0
  4 30  4  0
  5 17  1  0
  6  8  1  0
  6 29  1  0
  7 24  4  0
  7 26  4  0
  8 28  1  0
  9 13  2  0
 10 18  1  0
 10 21  4  0
 10 30  4  0
 11 17  2  0
 12 18  1  0
 13 15  1  0
 14 24  1  0
 15 25  1  0
 16 28  2  0
 17 20  1  0
 19 24  4  0
 20 23  1  0
 21 22  4  0
 22 23  4  0
 25 26  4  0
 27 29  2  0
M  END
$$$$

 Created by Python create_sdf_string function

 30 33  0  0  0  0  0  0  0  0999 V2000
    8.3036    9.8571   18.4133 C   0  0  0  0  0  0  0  0  0  0  0  0
    8.3694    7.6612   22.6703 C   0  0  0  0  0  0  0  0  0  0  0  0
    8.4143    6.6863   16.2273 C   0  0  0  0  0  0  0  0  0  0  0  0
   10.7581    6.5674   21.7636 C   0  0  0  0  0  0  0  0  0  0  0  0
    8.4452    8.7960   19.2958 O   0  0  0  0  0  0  0  0  0  0  0  0
    8.7122    6.7842   24.8569 C   0  0  0  0  0  0  0  0  0  0  0  0
   10.3400    6.1726   14.3081 C   0  0  0  0  0  0  0  0  0  0  0  0
    7.4297    7.5873   24.8962 C   0  0  0  0  0  0  0  0  0  0  0  0
    8.1566   10.0536   16.0516 O   0  0  0  0  0  0  0  0  0  0  0  0
   12.4989    6.2074   20.1776 C   0  0  0  0  0  0  0  0  0  0  0  0
    6.9192    9.1053   20.9073 O   0  0  0  0  0  0  0  0  0  0  0  0
   14.3979    6.0729   18.7784 C   0  0  0  0  0  0  0  0  0  0  0  0
    8.6811    9.5354   16.9998 C   0  0  0  0  0  0  0  0  0  0  0  0
    9.2512    4.2713   13.7653 O   0  0  0  0  0  0  0  0  0  0  0  0
    9.6495    8.6317   16.8332 N   0  0  0  0  0  0  0  0  0  0  0  0
    6.2934    8.6988   23.1988 O   0  0  0  0  0  0  0  0  0  0  0  0
    7.9806    8.6543   20.5437 C   0  0  0  0  0  0  0  0  0  0  0  0
   13.7270    5.7144   19.8610 O   0  0  0  0  0  0  0  0  0  0  0  0
    8.3351    5.5235   15.4478 C   0  0  0  0  0  0  0  0  0  0  0  0
    8.7700    7.8434   21.3915 C   0  0  0  0  0  0  0  0  0  0  0  0
   11.7856    6.8851   19.2401 C   0  0  0  0  0  0  0  0  0  0  0  0
   10.5281    7.4276   19.5649 C   0  0  0  0  0  0  0  0  0  0  0  0
   10.0256    7.2907   20.8484 C   0  0  0  0  0  0  0  0  0  0  0  0
    9.3113    5.3049   14.4911 C   0  0  0  0  0  0  0  0  0  0  0  0
    9.4607    7.5646   16.0139 C   0  0  0  0  0  0  0  0  0  0  0  0
   10.4192    7.3157   15.0955 C   0  0  0  0  0  0  0  0  0  0  0  0
   10.2489    6.4227   23.0218 N   0  0  0  0  0  0  0  0  0  0  0  0
    7.2472    8.0746   23.5050 C   0  0  0  0  0  0  0  0  0  0  0  0
    9.2051    6.9101   23.4604 C   0  0  0  0  0  0  0  0  0  0  0  0
   11.9646    6.0299   21.4251 C   0  0  0  0  0  0  0  0  0  0  0  0
  1  5  1  0
  1 13  1  0
  2 20  2  0
  2 28  1  0
  2 29  1  0
  3 19  4  0
  3 25  4  0
  4 23  4  0
  4 27  1  0
  4 30  4  0
  5 17  1  0
  6  8  1  0
  6 29  1  0
  7 24  4  0
  7 26  4  0
  8 28  1  0
  9 13  2  0
 10 18  1  0
 10 21  4  0
 10 30  4  0
 11 17  2  0
 12 18  1  0
 13 15  1  0
 14 24  1  0
 15 25  1  0
 16 28  2  0
 17 20  1  0
 19 24  4  0
 20 23  1  0
 21 22  4  0
 22 23  4  0
 25 26  4  0
 27 29  2  0
M  END
$$$$

 Created by Python create_sdf_string function

 30 33  0  0  0  0  0  0  0  0999 V2000
    8.3036    9.8571   18.4133 C   0  0  0  0  0  0  0  0  0  0  0  0
    8.3694    7.6612   22.6703 C   0  0  0  0  0  0  0  0  0  0  0  0
    8.4143    6.6863   16.2273 C   0  0  0  0  0  0  0  0  0  0  0  0
   10.7581    6.5674   21.7636 C   0  0  0  0  0  0  0  0  0  0  0  0
    8.4452    8.7960   19.2958 O   0  0  0  0  0  0  0  0  0  0  0  0
    8.7122    6.7842   24.8569 C   0  0  0  0  0  0  0  0  0  0  0  0
   10.3400    6.1726   14.3081 C   0  0  0  0  0  0  0  0  0  0  0  0
    7.4297    7.5873   24.8962 C   0  0  0  0  0  0  0  0  0  0  0  0
    8.1566   10.0536   16.0516 O   0  0  0  0  0  0  0  0  0  0  0  0
   12.4989    6.2074   20.1776 C   0  0  0  0  0  0  0  0  0  0  0  0
    6.9192    9.1053   20.9073 O   0  0  0  0  0  0  0  0  0  0  0  0
   14.3979    6.0729   18.7784 C   0  0  0  0  0  0  0  0  0  0  0  0
    8.6811    9.5354   16.9998 C   0  0  0  0  0  0  0  0  0  0  0  0
    9.2512    4.2713   13.7653 O   0  0  0  0  0  0  0  0  0  0  0  0
    9.6495    8.6317   16.8332 N   0  0  0  0  0  0  0  0  0  0  0  0
    6.2934    8.6988   23.1988 O   0  0  0  0  0  0  0  0  0  0  0  0
    7.9806    8.6543   20.5437 C   0  0  0  0  0  0  0  0  0  0  0  0
   13.7270    5.7144   19.8610 O   0  0  0  0  0  0  0  0  0  0  0  0
    8.3351    5.5235   15.4478 C   0  0  0  0  0  0  0  0  0  0  0  0
    8.7700    7.8434   21.3915 C   0  0  0  0  0  0  0  0  0  0  0  0
   11.7856    6.8851   19.2401 C   0  0  0  0  0  0  0  0  0  0  0  0
   10.5281    7.4276   19.5649 C   0  0  0  0  0  0  0  0  0  0  0  0
   10.0256    7.2907   20.8484 C   0  0  0  0  0  0  0  0  0  0  0  0
    9.3113    5.3049   14.4911 C   0  0  0  0  0  0  0  0  0  0  0  0
    9.4607    7.5646   16.0139 C   0  0  0  0  0  0  0  0  0  0  0  0
   10.4192    7.3157   15.0955 C   0  0  0  0  0  0  0  0  0  0  0  0
   10.2489    6.4227   23.0218 N   0  0  0  0  0  0  0  0  0  0  0  0
    7.2472    8.0746   23.5050 C   0  0  0  0  0  0  0  0  0  0  0  0
    9.2051    6.9101   23.4604 C   0  0  0  0  0  0  0  0  0  0  0  0
   11.9646    6.0299   21.4251 C   0  0  0  0  0  0  0  0  0  0  0  0
  1  5  1  0
  1 13  1  0
  2 20  2  0
  2 28  1  0
  2 29  1  0
  3 19  4  0
  3 25  4  0
  4 23  4  0
  4 27  1  0
  4 30  4  0
  5 17  1  0
  6  8  1  0
  6 29  1  0
  7 24  4  0
  7 26  4  0
  8 28  1  0
  9 13  2  0
 10 18  1  0
 10 21  4  0
 10 30  4  0
 11 17  2  0
 12 18  1  0
 13 15  1  0
 14 24  1  0
 15 25  1  0
 16 28  2  0
 17 20  1  0
 19 24  4  0
 20 23  1  0
 21 22  4  0
 22 23  4  0
 25 26  4  0
 27 29  2  0
M  END
$$$$

 Created by Python create_sdf_string function

 30 33  0  0  0  0  0  0  0  0999 V2000
    8.3036    9.8571   18.4133 C   0  0  0  0  0  0  0  0  0  0  0  0
    8.3694    7.6612   22.6703 C   0  0  0  0  0  0  0  0  0  0  0  0
    8.4143    6.6863   16.2273 C   0  0  0  0  0  0  0  0  0  0  0  0
   10.7581    6.5674   21.7636 C   0  0  0  0  0  0  0  0  0  0  0  0
    8.4452    8.7960   19.2958 O   0  0  0  0  0  0  0  0  0  0  0  0
    8.7122    6.7842   24.8569 C   0  0  0  0  0  0  0  0  0  0  0  0
   10.3400    6.1726   14.3081 C   0  0  0  0  0  0  0  0  0  0  0  0
    7.4297    7.5873   24.8962 C   0  0  0  0  0  0  0  0  0  0  0  0
    8.1566   10.0536   16.0516 O   0  0  0  0  0  0  0  0  0  0  0  0
   12.4989    6.2074   20.1776 C   0  0  0  0  0  0  0  0  0  0  0  0
    6.9192    9.1053   20.9073 O   0  0  0  0  0  0  0  0  0  0  0  0
   14.3979    6.0729   18.7784 C   0  0  0  0  0  0  0  0  0  0  0  0
    8.6811    9.5354   16.9998 C   0  0  0  0  0  0  0  0  0  0  0  0
    9.2512    4.2713   13.7653 O   0  0  0  0  0  0  0  0  0  0  0  0
    9.6495    8.6317   16.8332 N   0  0  0  0  0  0  0  0  0  0  0  0
    6.2934    8.6988   23.1988 O   0  0  0  0  0  0  0  0  0  0  0  0
    7.9806    8.6543   20.5437 C   0  0  0  0  0  0  0  0  0  0  0  0
   13.7270    5.7144   19.8610 O   0  0  0  0  0  0  0  0  0  0  0  0
    8.3351    5.5235   15.4478 C   0  0  0  0  0  0  0  0  0  0  0  0
    8.7700    7.8434   21.3915 C   0  0  0  0  0  0  0  0  0  0  0  0
   11.7856    6.8851   19.2401 C   0  0  0  0  0  0  0  0  0  0  0  0
   10.5281    7.4276   19.5649 C   0  0  0  0  0  0  0  0  0  0  0  0
   10.0256    7.2907   20.8484 C   0  0  0  0  0  0  0  0  0  0  0  0
    9.3113    5.3049   14.4911 C   0  0  0  0  0  0  0  0  0  0  0  0
    9.4607    7.5646   16.0139 C   0  0  0  0  0  0  0  0  0  0  0  0
   10.4192    7.3157   15.0955 C   0  0  0  0  0  0  0  0  0  0  0  0
   10.2489    6.4227   23.0218 N   0  0  0  0  0  0  0  0  0  0  0  0
    7.2472    8.0746   23.5050 C   0  0  0  0  0  0  0  0  0  0  0  0
    9.2051    6.9101   23.4604 C   0  0  0  0  0  0  0  0  0  0  0  0
   11.9646    6.0299   21.4251 C   0  0  0  0  0  0  0  0  0  0  0  0
  1  5  1  0
  1 13  1  0
  2 20  2  0
  2 28  1  0
  2 29  1  0
  3 19  4  0
  3 25  4  0
  4 23  4  0
  4 27  1  0
  4 30  4  0
  5 17  1  0
  6  8  1  0
  6 29  1  0
  7 24  4  0
  7 26  4  0
  8 28  1  0
  9 13  2  0
 10 18  1  0
 10 21  4  0
 10 30  4  0
 11 17  2  0
 12 18  1  0
 13 15  1  0
 14 24  1  0
 15 25  1  0
 16 28  2  0
 17 20  1  0
 19 24  4  0
 20 23  1  0
 21 22  4  0
 22 23  4  0
 25 26  4  0
 27 29  2  0
M  END
$$$$

 Created by Python create_sdf_string function

 30 33  0  0  0  0  0  0  0  0999 V2000
    8.3036    9.8571   18.4133 C   0  0  0  0  0  0  0  0  0  0  0  0
    8.3694    7.6612   22.6703 C   0  0  0  0  0  0  0  0  0  0  0  0
    8.4143    6.6863   16.2273 C   0  0  0  0  0  0  0  0  0  0  0  0
   10.7581    6.5674   21.7636 C   0  0  0  0  0  0  0  0  0  0  0  0
    8.4452    8.7960   19.2958 O   0  0  0  0  0  0  0  0  0  0  0  0
    8.7122    6.7842   24.8569 C   0  0  0  0  0  0  0  0  0  0  0  0
   10.3400    6.1726   14.3081 C   0  0  0  0  0  0  0  0  0  0  0  0
    7.4297    7.5873   24.8962 C   0  0  0  0  0  0  0  0  0  0  0  0
    8.1566   10.0536   16.0516 O   0  0  0  0  0  0  0  0  0  0  0  0
   12.4989    6.2074   20.1776 C   0  0  0  0  0  0  0  0  0  0  0  0
    6.9192    9.1053   20.9073 O   0  0  0  0  0  0  0  0  0  0  0  0
   14.3979    6.0729   18.7784 C   0  0  0  0  0  0  0  0  0  0  0  0
    8.6811    9.5354   16.9998 C   0  0  0  0  0  0  0  0  0  0  0  0
    9.2512    4.2713   13.7653 O   0  0  0  0  0  0  0  0  0  0  0  0
    9.6495    8.6317   16.8332 N   0  0  0  0  0  0  0  0  0  0  0  0
    6.2934    8.6988   23.1988 O   0  0  0  0  0  0  0  0  0  0  0  0
    7.9806    8.6543   20.5437 C   0  0  0  0  0  0  0  0  0  0  0  0
   13.7270    5.7144   19.8610 O   0  0  0  0  0  0  0  0  0  0  0  0
    8.3351    5.5235   15.4478 C   0  0  0  0  0  0  0  0  0  0  0  0
    8.7700    7.8434   21.3915 C   0  0  0  0  0  0  0  0  0  0  0  0
   11.7856    6.8851   19.2401 C   0  0  0  0  0  0  0  0  0  0  0  0
   10.5281    7.4276   19.5649 C   0  0  0  0  0  0  0  0  0  0  0  0
   10.0256    7.2907   20.8484 C   0  0  0  0  0  0  0  0  0  0  0  0
    9.3113    5.3049   14.4911 C   0  0  0  0  0  0  0  0  0  0  0  0
    9.4607    7.5646   16.0139 C   0  0  0  0  0  0  0  0  0  0  0  0
   10.4192    7.3157   15.0955 C   0  0  0  0  0  0  0  0  0  0  0  0
   10.2489    6.4227   23.0218 N   0  0  0  0  0  0  0  0  0  0  0  0
    7.2472    8.0746   23.5050 C   0  0  0  0  0  0  0  0  0  0  0  0
    9.2051    6.9101   23.4604 C   0  0  0  0  0  0  0  0  0  0  0  0
   11.9646    6.0299   21.4251 C   0  0  0  0  0  0  0  0  0  0  0  0
  1  5  1  0
  1 13  1  0
  2 20  2  0
  2 28  1  0
  2 29  1  0
  3 19  4  0
  3 25  4  0
  4 23  4  0
  4 27  1  0
  4 30  4  0
  5 17  1  0
  6  8  1  0
  6 29  1  0
  7 24  4  0
  7 26  4  0
  8 28  1  0
  9 13  2  0
 10 18  1  0
 10 21  4  0
 10 30  4  0
 11 17  2  0
 12 18  1  0
 13 15  1  0
 14 24  1  0
 15 25  1  0
 16 28  2  0
 17 20  1  0
 19 24  4  0
 20 23  1  0
 21 22  4  0
 22 23  4  0
 25 26  4  0
 27 29  2  0
M  END
$$$$

 Created by Python create_sdf_string function

 30 33  0  0  0  0  0  0  0  0999 V2000
    8.3036    9.8571   18.4133 C   0  0  0  0  0  0  0  0  0  0  0  0
    8.3694    7.6612   22.6703 C   0  0  0  0  0  0  0  0  0  0  0  0
    8.4143    6.6863   16.2273 C   0  0  0  0  0  0  0  0  0  0  0  0
   10.7581    6.5674   21.7636 C   0  0  0  0  0  0  0  0  0  0  0  0
    8.4452    8.7960   19.2958 O   0  0  0  0  0  0  0  0  0  0  0  0
    8.7122    6.7842   24.8569 C   0  0  0  0  0  0  0  0  0  0  0  0
   10.3400    6.1726   14.3081 C   0  0  0  0  0  0  0  0  0  0  0  0
    7.4297    7.5873   24.8962 C   0  0  0  0  0  0  0  0  0  0  0  0
    8.1566   10.0536   16.0516 O   0  0  0  0  0  0  0  0  0  0  0  0
   12.4989    6.2074   20.1776 C   0  0  0  0  0  0  0  0  0  0  0  0
    6.9192    9.1053   20.9073 O   0  0  0  0  0  0  0  0  0  0  0  0
   14.3979    6.0729   18.7784 C   0  0  0  0  0  0  0  0  0  0  0  0
    8.6811    9.5354   16.9998 C   0  0  0  0  0  0  0  0  0  0  0  0
    9.2512    4.2713   13.7653 O   0  0  0  0  0  0  0  0  0  0  0  0
    9.6495    8.6317   16.8332 N   0  0  0  0  0  0  0  0  0  0  0  0
    6.2934    8.6988   23.1988 O   0  0  0  0  0  0  0  0  0  0  0  0
    7.9806    8.6543   20.5437 C   0  0  0  0  0  0  0  0  0  0  0  0
   13.7270    5.7144   19.8610 O   0  0  0  0  0  0  0  0  0  0  0  0
    8.3351    5.5235   15.4478 C   0  0  0  0  0  0  0  0  0  0  0  0
    8.7700    7.8434   21.3915 C   0  0  0  0  0  0  0  0  0  0  0  0
   11.7856    6.8851   19.2401 C   0  0  0  0  0  0  0  0  0  0  0  0
   10.5281    7.4276   19.5649 C   0  0  0  0  0  0  0  0  0  0  0  0
   10.0256    7.2907   20.8484 C   0  0  0  0  0  0  0  0  0  0  0  0
    9.3113    5.3049   14.4911 C   0  0  0  0  0  0  0  0  0  0  0  0
    9.4607    7.5646   16.0139 C   0  0  0  0  0  0  0  0  0  0  0  0
   10.4192    7.3157   15.0955 C   0  0  0  0  0  0  0  0  0  0  0  0
   10.2489    6.4227   23.0218 N   0  0  0  0  0  0  0  0  0  0  0  0
    7.2472    8.0746   23.5050 C   0  0  0  0  0  0  0  0  0  0  0  0
    9.2051    6.9101   23.4604 C   0  0  0  0  0  0  0  0  0  0  0  0
   11.9646    6.0299   21.4251 C   0  0  0  0  0  0  0  0  0  0  0  0
  1  5  1  0
  1 13  1  0
  2 20  2  0
  2 28  1  0
  2 29  1  0
  3 19  4  0
  3 25  4  0
  4 23  4  0
  4 27  1  0
  4 30  4  0
  5 17  1  0
  6  8  1  0
  6 29  1  0
  7 24  4  0
  7 26  4  0
  8 28  1  0
  9 13  2  0
 10 18  1  0
 10 21  4  0
 10 30  4  0
 11 17  2  0
 12 18  1  0
 13 15  1  0
 14 24  1  0
 15 25  1  0
 16 28  2  0
 17 20  1  0
 19 24  4  0
 20 23  1  0
 21 22  4  0
 22 23  4  0
 25 26  4  0
 27 29  2  0
M  END
$$$$

 Created by Python create_sdf_string function

 30 33  0  0  0  0  0  0  0  0999 V2000
    8.3036    9.8571   18.4133 C   0  0  0  0  0  0  0  0  0  0  0  0
    8.3694    7.6612   22.6703 C   0  0  0  0  0  0  0  0  0  0  0  0
    8.4143    6.6863   16.2273 C   0  0  0  0  0  0  0  0  0  0  0  0
   10.7581    6.5674   21.7636 C   0  0  0  0  0  0  0  0  0  0  0  0
    8.4452    8.7960   19.2958 O   0  0  0  0  0  0  0  0  0  0  0  0
    8.7122    6.7842   24.8569 C   0  0  0  0  0  0  0  0  0  0  0  0
   10.3400    6.1726   14.3081 C   0  0  0  0  0  0  0  0  0  0  0  0
    7.4297    7.5873   24.8962 C   0  0  0  0  0  0  0  0  0  0  0  0
    8.1566   10.0536   16.0516 O   0  0  0  0  0  0  0  0  0  0  0  0
   12.4989    6.2074   20.1776 C   0  0  0  0  0  0  0  0  0  0  0  0
    6.9192    9.1053   20.9073 O   0  0  0  0  0  0  0  0  0  0  0  0
   14.3979    6.0729   18.7784 C   0  0  0  0  0  0  0  0  0  0  0  0
    8.6811    9.5354   16.9998 C   0  0  0  0  0  0  0  0  0  0  0  0
    9.2512    4.2713   13.7653 O   0  0  0  0  0  0  0  0  0  0  0  0
    9.6495    8.6317   16.8332 N   0  0  0  0  0  0  0  0  0  0  0  0
    6.2934    8.6988   23.1988 O   0  0  0  0  0  0  0  0  0  0  0  0
    7.9806    8.6543   20.5437 C   0  0  0  0  0  0  0  0  0  0  0  0
   13.7270    5.7144   19.8610 O   0  0  0  0  0  0  0  0  0  0  0  0
    8.3351    5.5235   15.4478 C   0  0  0  0  0  0  0  0  0  0  0  0
    8.7700    7.8434   21.3915 C   0  0  0  0  0  0  0  0  0  0  0  0
   11.7856    6.8851   19.2401 C   0  0  0  0  0  0  0  0  0  0  0  0
   10.5281    7.4276   19.5649 C   0  0  0  0  0  0  0  0  0  0  0  0
   10.0256    7.2907   20.8484 C   0  0  0  0  0  0  0  0  0  0  0  0
    9.3113    5.3049   14.4911 C   0  0  0  0  0  0  0  0  0  0  0  0
    9.4607    7.5646   16.0139 C   0  0  0  0  0  0  0  0  0  0  0  0
   10.4192    7.3157   15.0955 C   0  0  0  0  0  0  0  0  0  0  0  0
   10.2489    6.4227   23.0218 N   0  0  0  0  0  0  0  0  0  0  0  0
    7.2472    8.0746   23.5050 C   0  0  0  0  0  0  0  0  0  0  0  0
    9.2051    6.9101   23.4604 C   0  0  0  0  0  0  0  0  0  0  0  0
   11.9646    6.0299   21.4251 C   0  0  0  0  0  0  0  0  0  0  0  0
  1  5  1  0
  1 13  1  0
  2 20  2  0
  2 28  1  0
  2 29  1  0
  3 19  4  0
  3 25  4  0
  4 23  4  0
  4 27  1  0
  4 30  4  0
  5 17  1  0
  6  8  1  0
  6 29  1  0
  7 24  4  0
  7 26  4  0
  8 28  1  0
  9 13  2  0
 10 18  1  0
 10 21  4  0
 10 30  4  0
 11 17  2  0
 12 18  1  0
 13 15  1  0
 14 24  1  0
 15 25  1  0
 16 28  2  0
 17 20  1  0
 19 24  4  0
 20 23  1  0
 21 22  4  0
 22 23  4  0
 25 26  4  0
 27 29  2  0
M  END
$$$$

 Created by Python create_sdf_string function

 30 33  0  0  0  0  0  0  0  0999 V2000
    8.3036    9.8571   18.4133 C   0  0  0  0  0  0  0  0  0  0  0  0
    8.3694    7.6612   22.6703 C   0  0  0  0  0  0  0  0  0  0  0  0
    8.4143    6.6863   16.2273 C   0  0  0  0  0  0  0  0  0  0  0  0
   10.7581    6.5674   21.7636 C   0  0  0  0  0  0  0  0  0  0  0  0
    8.4452    8.7960   19.2958 O   0  0  0  0  0  0  0  0  0  0  0  0
    8.7122    6.7842   24.8569 C   0  0  0  0  0  0  0  0  0  0  0  0
   10.3400    6.1726   14.3081 C   0  0  0  0  0  0  0  0  0  0  0  0
    7.4297    7.5873   24.8962 C   0  0  0  0  0  0  0  0  0  0  0  0
    8.1566   10.0536   16.0516 O   0  0  0  0  0  0  0  0  0  0  0  0
   12.4989    6.2074   20.1776 C   0  0  0  0  0  0  0  0  0  0  0  0
    6.9192    9.1053   20.9073 O   0  0  0  0  0  0  0  0  0  0  0  0
   14.3979    6.0729   18.7784 C   0  0  0  0  0  0  0  0  0  0  0  0
    8.6811    9.5354   16.9998 C   0  0  0  0  0  0  0  0  0  0  0  0
    9.2512    4.2713   13.7653 O   0  0  0  0  0  0  0  0  0  0  0  0
    9.6495    8.6317   16.8332 N   0  0  0  0  0  0  0  0  0  0  0  0
    6.2934    8.6988   23.1988 O   0  0  0  0  0  0  0  0  0  0  0  0
    7.9806    8.6543   20.5437 C   0  0  0  0  0  0  0  0  0  0  0  0
   13.7270    5.7144   19.8610 O   0  0  0  0  0  0  0  0  0  0  0  0
    8.3351    5.5235   15.4478 C   0  0  0  0  0  0  0  0  0  0  0  0
    8.7700    7.8434   21.3915 C   0  0  0  0  0  0  0  0  0  0  0  0
   11.7856    6.8851   19.2401 C   0  0  0  0  0  0  0  0  0  0  0  0
   10.5281    7.4276   19.5649 C   0  0  0  0  0  0  0  0  0  0  0  0
   10.0256    7.2907   20.8484 C   0  0  0  0  0  0  0  0  0  0  0  0
    9.3113    5.3049   14.4911 C   0  0  0  0  0  0  0  0  0  0  0  0
    9.4607    7.5646   16.0139 C   0  0  0  0  0  0  0  0  0  0  0  0
   10.4192    7.3157   15.0955 C   0  0  0  0  0  0  0  0  0  0  0  0
   10.2489    6.4227   23.0218 N   0  0  0  0  0  0  0  0  0  0  0  0
    7.2472    8.0746   23.5050 C   0  0  0  0  0  0  0  0  0  0  0  0
    9.2051    6.9101   23.4604 C   0  0  0  0  0  0  0  0  0  0  0  0
   11.9646    6.0299   21.4251 C   0  0  0  0  0  0  0  0  0  0  0  0
  1  5  1  0
  1 13  1  0
  2 20  2  0
  2 28  1  0
  2 29  1  0
  3 19  4  0
  3 25  4  0
  4 23  4  0
  4 27  1  0
  4 30  4  0
  5 17  1  0
  6  8  1  0
  6 29  1  0
  7 24  4  0
  7 26  4  0
  8 28  1  0
  9 13  2  0
 10 18  1  0
 10 21  4  0
 10 30  4  0
 11 17  2  0
 12 18  1  0
 13 15  1  0
 14 24  1  0
 15 25  1  0
 16 28  2  0
 17 20  1  0
 19 24  4  0
 20 23  1  0
 21 22  4  0
 22 23  4  0
 25 26  4  0
 27 29  2  0
M  END
$$$$

 Created by Python create_sdf_string function

 30 33  0  0  0  0  0  0  0  0999 V2000
    8.3036    9.8571   18.4133 C   0  0  0  0  0  0  0  0  0  0  0  0
    8.3694    7.6612   22.6703 C   0  0  0  0  0  0  0  0  0  0  0  0
    8.4143    6.6863   16.2273 C   0  0  0  0  0  0  0  0  0  0  0  0
   10.7581    6.5674   21.7636 C   0  0  0  0  0  0  0  0  0  0  0  0
    8.4452    8.7960   19.2958 O   0  0  0  0  0  0  0  0  0  0  0  0
    8.7122    6.7842   24.8569 C   0  0  0  0  0  0  0  0  0  0  0  0
   10.3400    6.1726   14.3081 C   0  0  0  0  0  0  0  0  0  0  0  0
    7.4297    7.5873   24.8962 C   0  0  0  0  0  0  0  0  0  0  0  0
    8.1566   10.0536   16.0516 O   0  0  0  0  0  0  0  0  0  0  0  0
   12.4989    6.2074   20.1776 C   0  0  0  0  0  0  0  0  0  0  0  0
    6.9192    9.1053   20.9073 O   0  0  0  0  0  0  0  0  0  0  0  0
   14.3979    6.0729   18.7784 C   0  0  0  0  0  0  0  0  0  0  0  0
    8.6811    9.5354   16.9998 C   0  0  0  0  0  0  0  0  0  0  0  0
    9.2512    4.2713   13.7653 O   0  0  0  0  0  0  0  0  0  0  0  0
    9.6495    8.6317   16.8332 N   0  0  0  0  0  0  0  0  0  0  0  0
    6.2934    8.6988   23.1988 O   0  0  0  0  0  0  0  0  0  0  0  0
    7.9806    8.6543   20.5437 C   0  0  0  0  0  0  0  0  0  0  0  0
   13.7270    5.7144   19.8610 O   0  0  0  0  0  0  0  0  0  0  0  0
    8.3351    5.5235   15.4478 C   0  0  0  0  0  0  0  0  0  0  0  0
    8.7700    7.8434   21.3915 C   0  0  0  0  0  0  0  0  0  0  0  0
   11.7856    6.8851   19.2401 C   0  0  0  0  0  0  0  0  0  0  0  0
   10.5281    7.4276   19.5649 C   0  0  0  0  0  0  0  0  0  0  0  0
   10.0256    7.2907   20.8484 C   0  0  0  0  0  0  0  0  0  0  0  0
    9.3113    5.3049   14.4911 C   0  0  0  0  0  0  0  0  0  0  0  0
    9.4607    7.5646   16.0139 C   0  0  0  0  0  0  0  0  0  0  0  0
   10.4192    7.3157   15.0955 C   0  0  0  0  0  0  0  0  0  0  0  0
   10.2489    6.4227   23.0218 N   0  0  0  0  0  0  0  0  0  0  0  0
    7.2472    8.0746   23.5050 C   0  0  0  0  0  0  0  0  0  0  0  0
    9.2051    6.9101   23.4604 C   0  0  0  0  0  0  0  0  0  0  0  0
   11.9646    6.0299   21.4251 C   0  0  0  0  0  0  0  0  0  0  0  0
  1  5  1  0
  1 13  1  0
  2 20  2  0
  2 28  1  0
  2 29  1  0
  3 19  4  0
  3 25  4  0
  4 23  4  0
  4 27  1  0
  4 30  4  0
  5 17  1  0
  6  8  1  0
  6 29  1  0
  7 24  4  0
  7 26  4  0
  8 28  1  0
  9 13  2  0
 10 18  1  0
 10 21  4  0
 10 30  4  0
 11 17  2  0
 12 18  1  0
 13 15  1  0
 14 24  1  0
 15 25  1  0
 16 28  2  0
 17 20  1  0
 19 24  4  0
 20 23  1  0
 21 22  4  0
 22 23  4  0
 25 26  4  0
 27 29  2  0
M  END
$$$$

 Created by Python create_sdf_string function

 30 33  0  0  0  0  0  0  0  0999 V2000
    8.3036    9.8571   18.4133 C   0  0  0  0  0  0  0  0  0  0  0  0
    8.3694    7.6612   22.6703 C   0  0  0  0  0  0  0  0  0  0  0  0
    8.4143    6.6863   16.2273 C   0  0  0  0  0  0  0  0  0  0  0  0
   10.7581    6.5674   21.7636 C   0  0  0  0  0  0  0  0  0  0  0  0
    8.4452    8.7960   19.2958 O   0  0  0  0  0  0  0  0  0  0  0  0
    8.7122    6.7842   24.8569 C   0  0  0  0  0  0  0  0  0  0  0  0
   10.3400    6.1726   14.3081 C   0  0  0  0  0  0  0  0  0  0  0  0
    7.4297    7.5873   24.8962 C   0  0  0  0  0  0  0  0  0  0  0  0
    8.1566   10.0536   16.0516 O   0  0  0  0  0  0  0  0  0  0  0  0
   12.4989    6.2074   20.1776 C   0  0  0  0  0  0  0  0  0  0  0  0
    6.9192    9.1053   20.9073 O   0  0  0  0  0  0  0  0  0  0  0  0
   14.3979    6.0729   18.7784 C   0  0  0  0  0  0  0  0  0  0  0  0
    8.6811    9.5354   16.9998 C   0  0  0  0  0  0  0  0  0  0  0  0
    9.2512    4.2713   13.7653 O   0  0  0  0  0  0  0  0  0  0  0  0
    9.6495    8.6317   16.8332 N   0  0  0  0  0  0  0  0  0  0  0  0
    6.2934    8.6988   23.1988 O   0  0  0  0  0  0  0  0  0  0  0  0
    7.9806    8.6543   20.5437 C   0  0  0  0  0  0  0  0  0  0  0  0
   13.7270    5.7144   19.8610 O   0  0  0  0  0  0  0  0  0  0  0  0
    8.3351    5.5235   15.4478 C   0  0  0  0  0  0  0  0  0  0  0  0
    8.7700    7.8434   21.3915 C   0  0  0  0  0  0  0  0  0  0  0  0
   11.7856    6.8851   19.2401 C   0  0  0  0  0  0  0  0  0  0  0  0
   10.5281    7.4276   19.5649 C   0  0  0  0  0  0  0  0  0  0  0  0
   10.0256    7.2907   20.8484 C   0  0  0  0  0  0  0  0  0  0  0  0
    9.3113    5.3049   14.4911 C   0  0  0  0  0  0  0  0  0  0  0  0
    9.4607    7.5646   16.0139 C   0  0  0  0  0  0  0  0  0  0  0  0
   10.4192    7.3157   15.0955 C   0  0  0  0  0  0  0  0  0  0  0  0
   10.2489    6.4227   23.0218 N   0  0  0  0  0  0  0  0  0  0  0  0
    7.2472    8.0746   23.5050 C   0  0  0  0  0  0  0  0  0  0  0  0
    9.2051    6.9101   23.4604 C   0  0  0  0  0  0  0  0  0  0  0  0
   11.9646    6.0299   21.4251 C   0  0  0  0  0  0  0  0  0  0  0  0
  1  5  1  0
  1 13  1  0
  2 20  2  0
  2 28  1  0
  2 29  1  0
  3 19  4  0
  3 25  4  0
  4 23  4  0
  4 27  1  0
  4 30  4  0
  5 17  1  0
  6  8  1  0
  6 29  1  0
  7 24  4  0
  7 26  4  0
  8 28  1  0
  9 13  2  0
 10 18  1  0
 10 21  4  0
 10 30  4  0
 11 17  2  0
 12 18  1  0
 13 15  1  0
 14 24  1  0
 15 25  1  0
 16 28  2  0
 17 20  1  0
 19 24  4  0
 20 23  1  0
 21 22  4  0
 22 23  4  0
 25 26  4  0
 27 29  2  0
M  END
$$$$

 Created by Python create_sdf_string function

 30 33  0  0  0  0  0  0  0  0999 V2000
    8.3036    9.8571   18.4133 C   0  0  0  0  0  0  0  0  0  0  0  0
    8.3694    7.6612   22.6703 C   0  0  0  0  0  0  0  0  0  0  0  0
    8.4143    6.6863   16.2273 C   0  0  0  0  0  0  0  0  0  0  0  0
   10.7581    6.5674   21.7636 C   0  0  0  0  0  0  0  0  0  0  0  0
    8.4452    8.7960   19.2958 O   0  0  0  0  0  0  0  0  0  0  0  0
    8.7122    6.7842   24.8569 C   0  0  0  0  0  0  0  0  0  0  0  0
   10.3400    6.1726   14.3081 C   0  0  0  0  0  0  0  0  0  0  0  0
    7.4297    7.5873   24.8962 C   0  0  0  0  0  0  0  0  0  0  0  0
    8.1566   10.0536   16.0516 O   0  0  0  0  0  0  0  0  0  0  0  0
   12.4989    6.2074   20.1776 C   0  0  0  0  0  0  0  0  0  0  0  0
    6.9192    9.1053   20.9073 O   0  0  0  0  0  0  0  0  0  0  0  0
   14.3979    6.0729   18.7784 C   0  0  0  0  0  0  0  0  0  0  0  0
    8.6811    9.5354   16.9998 C   0  0  0  0  0  0  0  0  0  0  0  0
    9.2512    4.2713   13.7653 O   0  0  0  0  0  0  0  0  0  0  0  0
    9.6495    8.6317   16.8332 N   0  0  0  0  0  0  0  0  0  0  0  0
    6.2934    8.6988   23.1988 O   0  0  0  0  0  0  0  0  0  0  0  0
    7.9806    8.6543   20.5437 C   0  0  0  0  0  0  0  0  0  0  0  0
   13.7270    5.7144   19.8610 O   0  0  0  0  0  0  0  0  0  0  0  0
    8.3351    5.5235   15.4478 C   0  0  0  0  0  0  0  0  0  0  0  0
    8.7700    7.8434   21.3915 C   0  0  0  0  0  0  0  0  0  0  0  0
   11.7856    6.8851   19.2401 C   0  0  0  0  0  0  0  0  0  0  0  0
   10.5281    7.4276   19.5649 C   0  0  0  0  0  0  0  0  0  0  0  0
   10.0256    7.2907   20.8484 C   0  0  0  0  0  0  0  0  0  0  0  0
    9.3113    5.3049   14.4911 C   0  0  0  0  0  0  0  0  0  0  0  0
    9.4607    7.5646   16.0139 C   0  0  0  0  0  0  0  0  0  0  0  0
   10.4192    7.3157   15.0955 C   0  0  0  0  0  0  0  0  0  0  0  0
   10.2489    6.4227   23.0218 N   0  0  0  0  0  0  0  0  0  0  0  0
    7.2472    8.0746   23.5050 C   0  0  0  0  0  0  0  0  0  0  0  0
    9.2051    6.9101   23.4604 C   0  0  0  0  0  0  0  0  0  0  0  0
   11.9646    6.0299   21.4251 C   0  0  0  0  0  0  0  0  0  0  0  0
  1  5  1  0
  1 13  1  0
  2 20  2  0
  2 28  1  0
  2 29  1  0
  3 19  4  0
  3 25  4  0
  4 23  4  0
  4 27  1  0
  4 30  4  0
  5 17  1  0
  6  8  1  0
  6 29  1  0
  7 24  4  0
  7 26  4  0
  8 28  1  0
  9 13  2  0
 10 18  1  0
 10 21  4  0
 10 30  4  0
 11 17  2  0
 12 18  1  0
 13 15  1  0
 14 24  1  0
 15 25  1  0
 16 28  2  0
 17 20  1  0
 19 24  4  0
 20 23  1  0
 21 22  4  0
 22 23  4  0
 25 26  4  0
 27 29  2  0
M  END
$$$$

 Created by Python create_sdf_string function

 30 33  0  0  0  0  0  0  0  0999 V2000
    8.3036    9.8571   18.4133 C   0  0  0  0  0  0  0  0  0  0  0  0
    8.3694    7.6612   22.6703 C   0  0  0  0  0  0  0  0  0  0  0  0
    8.4143    6.6863   16.2273 C   0  0  0  0  0  0  0  0  0  0  0  0
   10.7581    6.5674   21.7636 C   0  0  0  0  0  0  0  0  0  0  0  0
    8.4452    8.7960   19.2958 O   0  0  0  0  0  0  0  0  0  0  0  0
    8.7122    6.7842   24.8569 C   0  0  0  0  0  0  0  0  0  0  0  0
   10.3400    6.1726   14.3081 C   0  0  0  0  0  0  0  0  0  0  0  0
    7.4297    7.5873   24.8962 C   0  0  0  0  0  0  0  0  0  0  0  0
    8.1566   10.0536   16.0516 O   0  0  0  0  0  0  0  0  0  0  0  0
   12.4989    6.2074   20.1776 C   0  0  0  0  0  0  0  0  0  0  0  0
    6.9192    9.1053   20.9073 O   0  0  0  0  0  0  0  0  0  0  0  0
   14.3979    6.0729   18.7784 C   0  0  0  0  0  0  0  0  0  0  0  0
    8.6811    9.5354   16.9998 C   0  0  0  0  0  0  0  0  0  0  0  0
    9.2512    4.2713   13.7653 O   0  0  0  0  0  0  0  0  0  0  0  0
    9.6495    8.6317   16.8332 N   0  0  0  0  0  0  0  0  0  0  0  0
    6.2934    8.6988   23.1988 O   0  0  0  0  0  0  0  0  0  0  0  0
    7.9806    8.6543   20.5437 C   0  0  0  0  0  0  0  0  0  0  0  0
   13.7270    5.7144   19.8610 O   0  0  0  0  0  0  0  0  0  0  0  0
    8.3351    5.5235   15.4478 C   0  0  0  0  0  0  0  0  0  0  0  0
    8.7700    7.8434   21.3915 C   0  0  0  0  0  0  0  0  0  0  0  0
   11.7856    6.8851   19.2401 C   0  0  0  0  0  0  0  0  0  0  0  0
   10.5281    7.4276   19.5649 C   0  0  0  0  0  0  0  0  0  0  0  0
   10.0256    7.2907   20.8484 C   0  0  0  0  0  0  0  0  0  0  0  0
    9.3113    5.3049   14.4911 C   0  0  0  0  0  0  0  0  0  0  0  0
    9.4607    7.5646   16.0139 C   0  0  0  0  0  0  0  0  0  0  0  0
   10.4192    7.3157   15.0955 C   0  0  0  0  0  0  0  0  0  0  0  0
   10.2489    6.4227   23.0218 N   0  0  0  0  0  0  0  0  0  0  0  0
    7.2472    8.0746   23.5050 C   0  0  0  0  0  0  0  0  0  0  0  0
    9.2051    6.9101   23.4604 C   0  0  0  0  0  0  0  0  0  0  0  0
   11.9646    6.0299   21.4251 C   0  0  0  0  0  0  0  0  0  0  0  0
  1  5  1  0
  1 13  1  0
  2 20  2  0
  2 28  1  0
  2 29  1  0
  3 19  4  0
  3 25  4  0
  4 23  4  0
  4 27  1  0
  4 30  4  0
  5 17  1  0
  6  8  1  0
  6 29  1  0
  7 24  4  0
  7 26  4  0
  8 28  1  0
  9 13  2  0
 10 18  1  0
 10 21  4  0
 10 30  4  0
 11 17  2  0
 12 18  1  0
 13 15  1  0
 14 24  1  0
 15 25  1  0
 16 28  2  0
 17 20  1  0
 19 24  4  0
 20 23  1  0
 21 22  4  0
 22 23  4  0
 25 26  4  0
 27 29  2  0
M  END
