
 Created by Python create_sdf_string function

 30 25  0  0  0  0  0  0  0  0999 V2000
    8.2183    8.3757   22.0003 F   0  0  0  0  0  0  0  0  0  0  0  0
   10.2843    7.4571   20.2240 F   0  0  0  0  0  0  0  0  0  0  0  0
    8.9320    8.5391   21.9249 C   0  0  0  0  0  0  0  0  0  0  0  0
   10.0525    5.6402   21.0015 N   0  0  0  0  0  0  0  0  0  0  0  0
    9.2416    8.3724   20.8368 N   0  0  0  0  0  0  0  0  0  0  0  0
    7.1195    5.7601   20.4698 F   0  0  0  0  0  0  0  0  0  0  0  0
    9.0048    6.1450   20.9553 F   0  0  0  0  0  0  0  0  0  0  0  0
    9.0427    8.3981   19.6712 P   0  0  0  0  0  0  0  0  0  0  0  0
    7.7933    8.5183   19.9553 C   0  0  0  0  0  0  0  0  0  0  0  0
    8.3488    5.3975   19.5763 Br  0  0  0  0  0  0  0  0  0  0  0  0
   10.4233    9.1565   22.6164 Cl  0  0  0  0  0  0  0  0  0  0  0  0
    8.1527    7.0415   21.5040 He  0  0  0  0  0  0  0  0  0  0  0  0
   11.3489    7.3933   19.9446 He  0  0  0  0  0  0  0  0  0  0  0  0
   11.4603    6.3907   20.0756 He  0  0  0  0  0  0  0  0  0  0  0  0
    7.8110    7.2505   21.6324 He  0  0  0  0  0  0  0  0  0  0  0  0
    8.6059    6.4799   21.1133 He  0  0  0  0  0  0  0  0  0  0  0  0
   10.7878    6.5486   21.2084 He  0  0  0  0  0  0  0  0  0  0  0  0
    9.6676    6.8287   19.2035 He  0  0  0  0  0  0  0  0  0  0  0  0
    9.8179    7.2459   21.3599 He  0  0  0  0  0  0  0  0  0  0  0  0
   11.2229    8.6742   21.8806 He  0  0  0  0  0  0  0  0  0  0  0  0
   10.7061    8.6841   21.5037 He  0  0  0  0  0  0  0  0  0  0  0  0
    8.1084    6.1353   22.5781 He  0  0  0  0  0  0  0  0  0  0  0  0
   10.3628    6.2400   21.7458 He  0  0  0  0  0  0  0  0  0  0  0  0
    9.2424    6.9501   21.4310 He  0  0  0  0  0  0  0  0  0  0  0  0
    9.3616    7.4612   19.8664 He  0  0  0  0  0  0  0  0  0  0  0  0
    7.9449    8.2919   21.0121 He  0  0  0  0  0  0  0  0  0  0  0  0
   10.2729    7.0748   20.7465 He  0  0  0  0  0  0  0  0  0  0  0  0
    9.7758    8.0663   20.9278 He  0  0  0  0  0  0  0  0  0  0  0  0
    8.6868    5.9228   23.2363 He  0  0  0  0  0  0  0  0  0  0  0  0
    8.7347    4.9044   19.5955 He  0  0  0  0  0  0  0  0  0  0  0  0
  1  4  3  0
  1  6  1  0
  1  8  2  0
  2  3  1  0
  2  4  4  0
  2  5  4  0
  2  8  4  0
  2 11  4  0
  3  6  2  0
  3  7  2  0
  3  8  4  0
  4  7  4  0
  4  8  2  0
  4  9  4  0
  4 10  2  0
  4 11  3  0
  5  6  4  0
  5  7  1  0
  5  8  1  0
  5 11  4  0
  7 10  4  0
  7 11  3  0
  8  9  3  0
  8 10  1  0
  8 11  2  0
M  END
$$$$

 Created by Python create_sdf_string function

 30 23  0  0  0  0  0  0  0  0999 V2000
   12.1589    8.9460   19.4877 C   0  0  0  0  0  0  0  0  0  0  0  0
    5.5829   10.2176   21.3852 C   0  0  0  0  0  0  0  0  0  0  0  0
    7.2639    8.3762   22.5435 N   0  0  0  0  0  0  0  0  0  0  0  0
   10.4384    8.2734   22.3391 C   0  0  0  0  0  0  0  0  0  0  0  0
   12.0912    9.1789   21.4264 F   0  0  0  0  0  0  0  0  0  0  0  0
    8.1980    6.8056   20.7298 P   0  0  0  0  0  0  0  0  0  0  0  0
    8.4137    4.9860   20.4598 F   0  0  0  0  0  0  0  0  0  0  0  0
    9.9331    5.5313   22.3875 N   0  0  0  0  0  0  0  0  0  0  0  0
    6.9251    9.7179   22.7164 Cl  0  0  0  0  0  0  0  0  0  0  0  0
   10.9431    6.9979   21.9578 P   0  0  0  0  0  0  0  0  0  0  0  0
    9.5811    6.3975   23.1783 N   0  0  0  0  0  0  0  0  0  0  0  0
    8.8821    2.3520   20.0843 N   0  0  0  0  0  0  0  0  0  0  0  0
    7.4998    5.7485   22.0572 He  0  0  0  0  0  0  0  0  0  0  0  0
   12.8417    6.9223   17.2453 He  0  0  0  0  0  0  0  0  0  0  0  0
    7.0878    4.9406   21.9692 He  0  0  0  0  0  0  0  0  0  0  0  0
   12.1248    7.1263   20.3295 He  0  0  0  0  0  0  0  0  0  0  0  0
   12.6938    8.2087   18.0199 He  0  0  0  0  0  0  0  0  0  0  0  0
    7.3556    6.2335   19.2970 He  0  0  0  0  0  0  0  0  0  0  0  0
   10.7529    6.3113   21.5614 He  0  0  0  0  0  0  0  0  0  0  0  0
   10.2749    8.9352   22.2448 He  0  0  0  0  0  0  0  0  0  0  0  0
   10.1741    5.7479   21.7900 He  0  0  0  0  0  0  0  0  0  0  0  0
    8.8388   11.0022   18.6698 He  0  0  0  0  0  0  0  0  0  0  0  0
    7.5580    5.5374   23.0695 He  0  0  0  0  0  0  0  0  0  0  0  0
   10.1353    5.3441   22.2236 He  0  0  0  0  0  0  0  0  0  0  0  0
    9.6034    6.6561   19.7385 He  0  0  0  0  0  0  0  0  0  0  0  0
    7.2053    9.7944   19.8430 He  0  0  0  0  0  0  0  0  0  0  0  0
    9.0074    9.5774   21.6006 He  0  0  0  0  0  0  0  0  0  0  0  0
    9.8565    5.7281   20.2964 He  0  0  0  0  0  0  0  0  0  0  0  0
    8.7872    6.6424   19.4490 He  0  0  0  0  0  0  0  0  0  0  0  0
    9.3807    9.5458   22.7629 He  0  0  0  0  0  0  0  0  0  0  0  0
  1  2  1  0
  1  3  3  0
  1 10  4  0
  2  7  1  0
  2  8  1  0
  2  9  4  0
  2 11  4  0
  3  5  4  0
  3  6  4  0
  3  7  4  0
  3 11  4  0
  4  5  3  0
  4 10  1  0
  4 11  1  0
  5  8  2  0
  6  8  3  0
  6 11  2  0
  6 12  4  0
  7 11  3  0
  8  9  4  0
  8 12  3  0
  9 11  3  0
 10 12  3  0
M  END
$$$$

 Created by Python create_sdf_string function

 30 58  0  0  0  0  0  0  0  0999 V2000
   12.4559    8.4728   20.6953 O   0  0  0  0  0  0  0  0  0  0  0  0
   10.0915    8.7333   18.7415 F   0  0  0  0  0  0  0  0  0  0  0  0
    6.0362    9.6092   22.4680 Cl  0  0  0  0  0  0  0  0  0  0  0  0
    6.6537    8.6943   21.9553 C   0  0  0  0  0  0  0  0  0  0  0  0
   11.0462    7.4456   21.8351 Cl  0  0  0  0  0  0  0  0  0  0  0  0
    9.2322    9.7868   23.1537 C   0  0  0  0  0  0  0  0  0  0  0  0
   11.3768    9.0418   22.1554 O   0  0  0  0  0  0  0  0  0  0  0  0
    7.6398    6.2039   23.9771 C   0  0  0  0  0  0  0  0  0  0  0  0
    8.7117    4.6317   22.3307 N   0  0  0  0  0  0  0  0  0  0  0  0
    8.5310    6.4885   20.1515 O   0  0  0  0  0  0  0  0  0  0  0  0
    8.1604    6.6172   20.8972 S   0  0  0  0  0  0  0  0  0  0  0  0
   11.1752    5.5444   19.8013 I   0  0  0  0  0  0  0  0  0  0  0  0
    5.9292    7.4756   22.0077 F   0  0  0  0  0  0  0  0  0  0  0  0
    9.9506   10.2484   22.1307 O   0  0  0  0  0  0  0  0  0  0  0  0
    9.6188    5.5501   18.8101 N   0  0  0  0  0  0  0  0  0  0  0  0
    9.7426    7.4599   22.0726 F   0  0  0  0  0  0  0  0  0  0  0  0
    7.2323    7.4149   19.4636 C   0  0  0  0  0  0  0  0  0  0  0  0
    6.8127    4.4357   22.1678 He  0  0  0  0  0  0  0  0  0  0  0  0
    5.9696    3.6721   19.5832 He  0  0  0  0  0  0  0  0  0  0  0  0
   11.5220    6.8838   17.5937 He  0  0  0  0  0  0  0  0  0  0  0  0
    7.9168    4.9507   19.9738 He  0  0  0  0  0  0  0  0  0  0  0  0
   10.2247    6.8036   22.3522 He  0  0  0  0  0  0  0  0  0  0  0  0
   11.1063    7.1843   21.9302 He  0  0  0  0  0  0  0  0  0  0  0  0
    8.9828    5.5026   22.7485 He  0  0  0  0  0  0  0  0  0  0  0  0
    8.7298    9.4904   19.3311 He  0  0  0  0  0  0  0  0  0  0  0  0
   10.1007    6.5577   20.9815 He  0  0  0  0  0  0  0  0  0  0  0  0
    6.2742    8.9947   20.2349 He  0  0  0  0  0  0  0  0  0  0  0  0
   12.0873    8.3425   21.1385 He  0  0  0  0  0  0  0  0  0  0  0  0
    8.2667    4.6003   20.8789 He  0  0  0  0  0  0  0  0  0  0  0  0
    9.5628   10.2515   20.2358 He  0  0  0  0  0  0  0  0  0  0  0  0
  1  4  1  0
  1  5  2  0
  1  6  1  0
  1  7  1  0
  1  9  3  0
  1 11  2  0
  1 12  2  0
  1 16  1  0
  2  3  1  0
  2  7  2  0
  2  9  1  0
  2 11  4  0
  2 16  4  0
  2 17  3  0
  3  4  3  0
  3 10  3  0
  3 11  4  0
  3 13  1  0
  3 14  4  0
  3 16  3  0
  3 17  3  0
  4 12  1  0
  4 13  2  0
  4 15  2  0
  4 16  2  0
  5  7  2  0
  5  9  4  0
  5 10  2  0
  5 12  2  0
  5 14  4  0
  6 14  2  0
  6 15  2  0
  6 16  3  0
  6 17  4  0
  7  8  1  0
  7  9  2  0
  7 11  1  0
  7 15  4  0
  7 16  2  0
  7 17  4  0
  8 12  3  0
  8 13  3  0
  8 17  4  0
  9 11  3  0
  9 13  2  0
  9 16  4  0
 10 13  3  0
 10 14  2  0
 10 16  3  0
 10 17  2  0
 11 12  1  0
 11 14  2  0
 11 16  4  0
 11 17  4  0
 12 14  1  0
 12 16  2  0
 13 14  1  0
 14 15  3  0
M  END
$$$$

 Created by Python create_sdf_string function

 30 21  0  0  0  0  0  0  0  0999 V2000
    6.5147    8.1859   22.3749 F   0  0  0  0  0  0  0  0  0  0  0  0
   12.8574    5.5982   17.4356 C   0  0  0  0  0  0  0  0  0  0  0  0
   11.2013    8.7759   21.3606 C   0  0  0  0  0  0  0  0  0  0  0  0
    8.7908   10.1924   24.2926 Cl  0  0  0  0  0  0  0  0  0  0  0  0
    7.7770    4.9459   22.3301 N   0  0  0  0  0  0  0  0  0  0  0  0
    7.5324    8.9493   18.9541 Se  0  0  0  0  0  0  0  0  0  0  0  0
    7.3478    3.1243   21.7508 S   0  0  0  0  0  0  0  0  0  0  0  0
    6.9159    6.6324   20.2341 F   0  0  0  0  0  0  0  0  0  0  0  0
    6.6403    8.8503   19.4879 C   0  0  0  0  0  0  0  0  0  0  0  0
    6.0828    7.4924   19.4067 C   0  0  0  0  0  0  0  0  0  0  0  0
    8.2203    7.2258   20.1504 C   0  0  0  0  0  0  0  0  0  0  0  0
    5.4019    3.9176   21.5251 He  0  0  0  0  0  0  0  0  0  0  0  0
   12.5941    9.2221   21.6473 He  0  0  0  0  0  0  0  0  0  0  0  0
   10.2292    8.9100   17.6676 He  0  0  0  0  0  0  0  0  0  0  0  0
    5.5403    8.8054   22.0596 He  0  0  0  0  0  0  0  0  0  0  0  0
    7.2637    5.4040   18.6445 He  0  0  0  0  0  0  0  0  0  0  0  0
   11.9833    7.1260   21.3795 He  0  0  0  0  0  0  0  0  0  0  0  0
    7.2296    5.3706   17.9314 He  0  0  0  0  0  0  0  0  0  0  0  0
   11.2679    8.5186   23.7750 He  0  0  0  0  0  0  0  0  0  0  0  0
   10.5783    8.2090   22.9443 He  0  0  0  0  0  0  0  0  0  0  0  0
    7.6494    7.0165   23.9083 He  0  0  0  0  0  0  0  0  0  0  0  0
    9.0840    6.4863   19.8105 He  0  0  0  0  0  0  0  0  0  0  0  0
    9.9483    5.8516   18.1416 He  0  0  0  0  0  0  0  0  0  0  0  0
    9.5654    5.0207   20.1167 He  0  0  0  0  0  0  0  0  0  0  0  0
    7.8355    9.8520   21.8028 He  0  0  0  0  0  0  0  0  0  0  0  0
   10.4916    3.8095   17.6807 He  0  0  0  0  0  0  0  0  0  0  0  0
   11.5511    7.8163   20.7357 He  0  0  0  0  0  0  0  0  0  0  0  0
   10.3519    6.9636   22.2088 He  0  0  0  0  0  0  0  0  0  0  0  0
    8.1173    3.6884   20.6778 He  0  0  0  0  0  0  0  0  0  0  0  0
    9.3421   10.1656   20.3219 He  0  0  0  0  0  0  0  0  0  0  0  0
  1  2  1  0
  1  5  3  0
  1  6  1  0
  1  8  4  0
  1 11  1  0
  2  4  1  0
  2  6  1  0
  2 10  4  0
  3 11  1  0
  4  5  4  0
  4  6  1  0
  4  7  2  0
  4  8  1  0
  4  9  4  0
  4 11  2  0
  5  8  2  0
  5 11  2  0
  7  9  4  0
  7 10  4  0
  8 11  4  0
  9 11  4  0
M  END
$$$$

 Created by Python create_sdf_string function

 30 55  0  0  0  0  0  0  0  0999 V2000
   11.0112    9.0348   22.5657 F   0  0  0  0  0  0  0  0  0  0  0  0
    5.5598    8.2371   22.8767 C   0  0  0  0  0  0  0  0  0  0  0  0
   12.6077    7.7415   20.7436 S   0  0  0  0  0  0  0  0  0  0  0  0
   11.4239    6.6042   16.5716 N   0  0  0  0  0  0  0  0  0  0  0  0
    4.9435    4.2981   18.8938 N   0  0  0  0  0  0  0  0  0  0  0  0
    7.8380    9.5274   24.6343 C   0  0  0  0  0  0  0  0  0  0  0  0
   11.0467    9.0132   23.6693 S   0  0  0  0  0  0  0  0  0  0  0  0
   10.2809    8.9182   22.0043 O   0  0  0  0  0  0  0  0  0  0  0  0
    6.1594    3.7752   20.6893 F   0  0  0  0  0  0  0  0  0  0  0  0
    8.1605    8.0768   22.9433 N   0  0  0  0  0  0  0  0  0  0  0  0
    6.3682    9.5691   18.0815 O   0  0  0  0  0  0  0  0  0  0  0  0
    6.3608    7.2675   19.5437 C   0  0  0  0  0  0  0  0  0  0  0  0
    8.1516    9.7354   21.5525 O   0  0  0  0  0  0  0  0  0  0  0  0
   11.7941    8.0407   18.8879 O   0  0  0  0  0  0  0  0  0  0  0  0
    8.5570    7.9986   22.3749 F   0  0  0  0  0  0  0  0  0  0  0  0
    7.5642    7.6564   19.2959 S   0  0  0  0  0  0  0  0  0  0  0  0
    8.5829    7.2945   20.2853 F   0  0  0  0  0  0  0  0  0  0  0  0
    4.5472    2.8666   22.0009 He  0  0  0  0  0  0  0  0  0  0  0  0
    8.8554    8.1314   18.8884 He  0  0  0  0  0  0  0  0  0  0  0  0
    7.0749    9.9358   21.8316 He  0  0  0  0  0  0  0  0  0  0  0  0
    7.0123    6.8292   18.9679 He  0  0  0  0  0  0  0  0  0  0  0  0
   11.3869   10.0103   21.4510 He  0  0  0  0  0  0  0  0  0  0  0  0
    7.5285    6.8483   18.8062 He  0  0  0  0  0  0  0  0  0  0  0  0
    8.7834    3.2119   21.2928 He  0  0  0  0  0  0  0  0  0  0  0  0
    9.3728    5.2461   21.9452 He  0  0  0  0  0  0  0  0  0  0  0  0
    7.5995    6.0992   20.9688 He  0  0  0  0  0  0  0  0  0  0  0  0
   11.5622    5.3997   16.4165 He  0  0  0  0  0  0  0  0  0  0  0  0
    9.4689    4.3659   18.1655 He  0  0  0  0  0  0  0  0  0  0  0  0
    8.3267    5.9141   18.3980 He  0  0  0  0  0  0  0  0  0  0  0  0
    9.6350   10.3984   19.9058 He  0  0  0  0  0  0  0  0  0  0  0  0
  1  5  2  0
  1  9  1  0
  1 13  2  0
  2  3  2  0
  2  7  2  0
  2  8  2  0
  2 11  2  0
  2 12  1  0
  2 14  1  0
  2 15  2  0
  2 16  4  0
  2 17  3  0
  3  6  1  0
  3 11  1  0
  3 12  3  0
  4  5  1  0
  4  8  1  0
  4  9  2  0
  4 11  2  0
  4 14  2  0
  5 11  2  0
  5 13  3  0
  5 14  2  0
  5 15  2  0
  5 16  1  0
  6  8  4  0
  6 11  4  0
  6 12  2  0
  6 14  2  0
  6 16  2  0
  7  9  2  0
  7 14  3  0
  7 15  1  0
  7 17  4  0
  8 10  4  0
  8 11  1  0
  8 15  2  0
  9 11  1  0
  9 13  1  0
  9 14  2  0
 10 11  4  0
 10 12  1  0
 10 13  4  0
 11 12  1  0
 11 13  3  0
 11 14  1  0
 11 16  4  0
 12 16  1  0
 12 17  4  0
 13 14  2  0
 13 16  4  0
 13 17  1  0
 14 15  2  0
 14 16  4  0
 14 17  1  0
M  END
$$$$

 Created by Python create_sdf_string function

 30 51  0  0  0  0  0  0  0  0999 V2000
    6.5894    4.1677   20.5714 F   0  0  0  0  0  0  0  0  0  0  0  0
    8.0975    6.0952   21.5848 N   0  0  0  0  0  0  0  0  0  0  0  0
    6.4912    3.7410   18.2034 F   0  0  0  0  0  0  0  0  0  0  0  0
    6.6602    9.7941   23.8135 C   0  0  0  0  0  0  0  0  0  0  0  0
   12.4284    9.9834   23.4513 I   0  0  0  0  0  0  0  0  0  0  0  0
    5.5993    4.0923   20.5650 Br  0  0  0  0  0  0  0  0  0  0  0  0
    6.2872    5.7982   20.1242 Cl  0  0  0  0  0  0  0  0  0  0  0  0
    6.5358    8.0805   23.0005 C   0  0  0  0  0  0  0  0  0  0  0  0
    8.0279    6.5205   20.8234 N   0  0  0  0  0  0  0  0  0  0  0  0
    6.3416    6.9825   19.1925 C   0  0  0  0  0  0  0  0  0  0  0  0
    9.3770    4.7349   17.5476 C   0  0  0  0  0  0  0  0  0  0  0  0
    6.5910    8.8754   17.7976 F   0  0  0  0  0  0  0  0  0  0  0  0
    5.5173    7.1038   20.1957 C   0  0  0  0  0  0  0  0  0  0  0  0
    8.8613    4.7662   18.0262 F   0  0  0  0  0  0  0  0  0  0  0  0
    8.2221    8.5860   22.8218 C   0  0  0  0  0  0  0  0  0  0  0  0
    7.7354    7.2038   21.0597 F   0  0  0  0  0  0  0  0  0  0  0  0
   10.4655    9.9553   22.2659 C   0  0  0  0  0  0  0  0  0  0  0  0
   10.1714    7.8343   22.0241 He  0  0  0  0  0  0  0  0  0  0  0  0
    8.5015    6.7074   18.0882 He  0  0  0  0  0  0  0  0  0  0  0  0
    6.9978    8.8169   21.6371 He  0  0  0  0  0  0  0  0  0  0  0  0
    6.9367    7.7585   20.5033 He  0  0  0  0  0  0  0  0  0  0  0  0
   12.1656    9.1425   20.1459 He  0  0  0  0  0  0  0  0  0  0  0  0
    9.8329    6.3278   16.9845 He  0  0  0  0  0  0  0  0  0  0  0  0
   11.1013   10.0881   21.2896 He  0  0  0  0  0  0  0  0  0  0  0  0
   11.8650    8.2275   23.6039 He  0  0  0  0  0  0  0  0  0  0  0  0
    9.7861    3.2024   21.0949 He  0  0  0  0  0  0  0  0  0  0  0  0
    8.7782    5.9767   17.1738 He  0  0  0  0  0  0  0  0  0  0  0  0
    7.0273    8.6074   22.4883 He  0  0  0  0  0  0  0  0  0  0  0  0
   12.4551    8.1127   18.6078 He  0  0  0  0  0  0  0  0  0  0  0  0
    6.6280    7.6841   20.4365 He  0  0  0  0  0  0  0  0  0  0  0  0
  1  4  1  0
  1  5  1  0
  1 10  1  0
  1 13  3  0
  1 14  3  0
  1 16  3  0
  2  3  3  0
  2 11  4  0
  2 13  4  0
  2 14  4  0
  2 16  3  0
  2 17  3  0
  3  4  4  0
  3  6  1  0
  3 11  4  0
  3 17  2  0
  4  5  4  0
  4  7  2  0
  4  9  4  0
  4 11  1  0
  4 12  3  0
  4 14  2  0
  5 10  3  0
  5 11  3  0
  5 16  4  0
  6  8  2  0
  6  9  2  0
  6 15  2  0
  6 16  3  0
  6 17  4  0
  7 14  1  0
  8 10  1  0
  8 11  3  0
  8 12  4  0
  8 16  2  0
  9 10  1  0
  9 14  1  0
  9 16  2  0
  9 17  3  0
 10 13  1  0
 10 14  2  0
 10 15  2  0
 10 17  1  0
 11 13  4  0
 11 14  2  0
 11 16  3  0
 11 17  2  0
 12 14  3  0
 14 15  3  0
 14 16  1  0
 15 17  2  0
M  END
$$$$

 Created by Python create_sdf_string function

 30 33  0  0  0  0  0  0  0  0999 V2000
    6.5200    6.6399   19.0167 N   0  0  0  0  0  0  0  0  0  0  0  0
   10.1158    5.8916   18.3272 C   0  0  0  0  0  0  0  0  0  0  0  0
    7.6487    3.7765   18.6386 O   0  0  0  0  0  0  0  0  0  0  0  0
    5.7321    9.5104   23.6310 F   0  0  0  0  0  0  0  0  0  0  0  0
    4.0760    8.2180   23.5447 F   0  0  0  0  0  0  0  0  0  0  0  0
    9.1943    3.4519   20.2932 I   0  0  0  0  0  0  0  0  0  0  0  0
    7.0377    5.6912   21.9966 N   0  0  0  0  0  0  0  0  0  0  0  0
    7.2013    7.0459   17.8166 C   0  0  0  0  0  0  0  0  0  0  0  0
    7.7455    9.6465   24.1458 N   0  0  0  0  0  0  0  0  0  0  0  0
   10.3802    7.2506   19.4286 Se  0  0  0  0  0  0  0  0  0  0  0  0
    8.8863    9.3775   21.3057 Cl  0  0  0  0  0  0  0  0  0  0  0  0
    6.0629    6.2400   20.7161 S   0  0  0  0  0  0  0  0  0  0  0  0
   10.9977   10.3924   22.1489 O   0  0  0  0  0  0  0  0  0  0  0  0
    8.0415    5.0241   19.2634 He  0  0  0  0  0  0  0  0  0  0  0  0
   10.1683    8.5651   23.9519 He  0  0  0  0  0  0  0  0  0  0  0  0
    8.3756    8.4189   16.2371 He  0  0  0  0  0  0  0  0  0  0  0  0
    8.9177    5.9562   20.4099 He  0  0  0  0  0  0  0  0  0  0  0  0
    5.9085    7.6215   20.7929 He  0  0  0  0  0  0  0  0  0  0  0  0
   11.7299    9.3553   20.4748 He  0  0  0  0  0  0  0  0  0  0  0  0
   12.6858   11.1557   21.5998 He  0  0  0  0  0  0  0  0  0  0  0  0
   10.4795    8.9156   23.1026 He  0  0  0  0  0  0  0  0  0  0  0  0
   12.6432    9.6090   22.6006 He  0  0  0  0  0  0  0  0  0  0  0  0
    6.4995    4.7366   18.1531 He  0  0  0  0  0  0  0  0  0  0  0  0
    6.0120    5.8943   18.2786 He  0  0  0  0  0  0  0  0  0  0  0  0
    6.8257    7.5240   18.7356 He  0  0  0  0  0  0  0  0  0  0  0  0
    9.2631    6.4356   17.5756 He  0  0  0  0  0  0  0  0  0  0  0  0
    9.2889    3.3501   16.2547 He  0  0  0  0  0  0  0  0  0  0  0  0
    3.7804    5.9228   18.9322 He  0  0  0  0  0  0  0  0  0  0  0  0
    9.4203    5.7504   17.0184 He  0  0  0  0  0  0  0  0  0  0  0  0
    7.7360    5.7043   18.8674 He  0  0  0  0  0  0  0  0  0  0  0  0
  1  2  1  0
  1  3  1  0
  1  4  4  0
  1  5  1  0
  1  6  1  0
  1 13  3  0
  2  3  3  0
  2  4  1  0
  2  6  3  0
  2 10  1  0
  2 13  2  0
  3  5  3  0
  3  7  2  0
  4  5  2  0
  4  6  2  0
  4  9  4  0
  4 11  4  0
  4 13  1  0
  5  6  3  0
  5  8  4  0
  5  9  2  0
  6  7  2  0
  6  9  3  0
  6 10  3  0
  6 12  1  0
  7  8  1  0
  7  9  4  0
  7 13  1  0
  9 10  3  0
  9 12  2  0
  9 13  2  0
 11 13  3  0
 12 13  1  0
M  END
$$$$

 Created by Python create_sdf_string function

 30 41  0  0  0  0  0  0  0  0999 V2000
    6.4189    6.3682   19.1893 O   0  0  0  0  0  0  0  0  0  0  0  0
    4.2491    8.5111   21.5034 N   0  0  0  0  0  0  0  0  0  0  0  0
   11.1987   10.0006   22.5726 O   0  0  0  0  0  0  0  0  0  0  0  0
    9.1682    4.4549   17.4504 P   0  0  0  0  0  0  0  0  0  0  0  0
   11.5134   10.1800   22.5643 N   0  0  0  0  0  0  0  0  0  0  0  0
    5.5594    7.2963   23.7291 C   0  0  0  0  0  0  0  0  0  0  0  0
   10.4822    9.1756   21.3936 C   0  0  0  0  0  0  0  0  0  0  0  0
    9.7005   11.0285   22.7620 S   0  0  0  0  0  0  0  0  0  0  0  0
    7.1573    7.3946   23.7606 S   0  0  0  0  0  0  0  0  0  0  0  0
    9.4910    3.2314   20.7108 F   0  0  0  0  0  0  0  0  0  0  0  0
    4.9162    7.3155   22.4208 F   0  0  0  0  0  0  0  0  0  0  0  0
    8.9727    6.5578   17.9902 O   0  0  0  0  0  0  0  0  0  0  0  0
    8.9956    5.9135   15.6398 C   0  0  0  0  0  0  0  0  0  0  0  0
    5.7933    8.5397   22.2382 C   0  0  0  0  0  0  0  0  0  0  0  0
    7.1965    6.5455   20.2890 He  0  0  0  0  0  0  0  0  0  0  0  0
    9.6254    9.6092   23.1608 He  0  0  0  0  0  0  0  0  0  0  0  0
    6.8528    8.1363   18.1301 He  0  0  0  0  0  0  0  0  0  0  0  0
   10.2572    6.3082   22.2495 He  0  0  0  0  0  0  0  0  0  0  0  0
    8.1959    3.9213   20.4150 He  0  0  0  0  0  0  0  0  0  0  0  0
    7.3893    4.7958   17.4275 He  0  0  0  0  0  0  0  0  0  0  0  0
    6.0201    6.5342   18.7343 He  0  0  0  0  0  0  0  0  0  0  0  0
    6.2175    8.6920   20.2187 He  0  0  0  0  0  0  0  0  0  0  0  0
    7.5668    7.5380   19.7296 He  0  0  0  0  0  0  0  0  0  0  0  0
    5.1955    6.4289   18.4924 He  0  0  0  0  0  0  0  0  0  0  0  0
   10.5510    4.7980   17.2650 He  0  0  0  0  0  0  0  0  0  0  0  0
    9.7295    7.9513   19.0905 He  0  0  0  0  0  0  0  0  0  0  0  0
    8.9017    7.4257   21.4277 He  0  0  0  0  0  0  0  0  0  0  0  0
    5.5614    5.8453   21.5538 He  0  0  0  0  0  0  0  0  0  0  0  0
    7.3571    5.4321   17.9199 He  0  0  0  0  0  0  0  0  0  0  0  0
   10.0105   10.1426   22.7001 He  0  0  0  0  0  0  0  0  0  0  0  0
  1  3  4  0
  1  4  4  0
  1  5  3  0
  1  8  4  0
  1 12  1  0
  2  3  2  0
  2  6  4  0
  2  8  1  0
  2 10  2  0
  2 13  1  0
  3  5  1  0
  3  6  4  0
  3  8  4  0
  3  9  1  0
  3 11  2  0
  3 12  1  0
  3 13  2  0
  4  7  4  0
  4  8  1  0
  4 11  4  0
  5  6  1  0
  5 11  2  0
  5 13  3  0
  5 14  1  0
  6 10  2  0
  6 11  1  0
  6 12  3  0
  7  9  4  0
  7 10  1  0
  7 12  2  0
  8 10  2  0
  8 14  1  0
  9 11  3  0
  9 13  1  0
  9 14  3  0
 10 12  4  0
 11 12  1  0
 11 13  3  0
 12 13  3  0
 12 14  2  0
 13 14  2  0
M  END
$$$$

 Created by Python create_sdf_string function

 30 37  0  0  0  0  0  0  0  0999 V2000
    6.5002    7.0644   21.0302 F   0  0  0  0  0  0  0  0  0  0  0  0
    7.1657    9.2022   18.9780 F   0  0  0  0  0  0  0  0  0  0  0  0
   11.2687    6.0282   20.8833 Cl  0  0  0  0  0  0  0  0  0  0  0  0
    8.9213    5.0336   16.6183 O   0  0  0  0  0  0  0  0  0  0  0  0
    9.9553    4.6411   20.3227 C   0  0  0  0  0  0  0  0  0  0  0  0
    4.4151    7.3833   24.0166 F   0  0  0  0  0  0  0  0  0  0  0  0
    8.7713    4.8775   17.2856 P   0  0  0  0  0  0  0  0  0  0  0  0
    5.5789    6.9325   17.7871 F   0  0  0  0  0  0  0  0  0  0  0  0
    7.6995    7.8506   20.7624 C   0  0  0  0  0  0  0  0  0  0  0  0
    7.5292    7.0994   21.7061 Cl  0  0  0  0  0  0  0  0  0  0  0  0
    8.7361    5.5944   17.1452 P   0  0  0  0  0  0  0  0  0  0  0  0
    7.2282    7.3189   19.5284 S   0  0  0  0  0  0  0  0  0  0  0  0
    7.1027    7.3760   22.0333 C   0  0  0  0  0  0  0  0  0  0  0  0
    7.0172    7.4064   17.7029 Se  0  0  0  0  0  0  0  0  0  0  0  0
   10.2369   10.4496   23.7345 He  0  0  0  0  0  0  0  0  0  0  0  0
    5.9339    6.8611   20.8444 He  0  0  0  0  0  0  0  0  0  0  0  0
    3.3241    8.7616   22.8683 He  0  0  0  0  0  0  0  0  0  0  0  0
   11.7956    8.8940   23.0708 He  0  0  0  0  0  0  0  0  0  0  0  0
   12.2590    9.9014   23.2983 He  0  0  0  0  0  0  0  0  0  0  0  0
   10.7348    8.9072   20.3225 He  0  0  0  0  0  0  0  0  0  0  0  0
    8.6799   11.5623   22.2320 He  0  0  0  0  0  0  0  0  0  0  0  0
    8.6781    5.1627   18.3372 He  0  0  0  0  0  0  0  0  0  0  0  0
    5.7249    7.3325   20.4292 He  0  0  0  0  0  0  0  0  0  0  0  0
    9.4005    5.2048   15.6886 He  0  0  0  0  0  0  0  0  0  0  0  0
    5.1388    6.3866   19.4867 He  0  0  0  0  0  0  0  0  0  0  0  0
    5.3921    8.5329   23.6204 He  0  0  0  0  0  0  0  0  0  0  0  0
   10.0821    3.4681   15.3853 He  0  0  0  0  0  0  0  0  0  0  0  0
    9.2940    8.5352   17.3582 He  0  0  0  0  0  0  0  0  0  0  0  0
    7.2760    6.1071   22.5731 He  0  0  0  0  0  0  0  0  0  0  0  0
   10.6488   10.0390   22.6132 He  0  0  0  0  0  0  0  0  0  0  0  0
  1  5  2  0
  1  7  2  0
  1  8  2  0
  1 12  1  0
  1 13  2  0
  2  4  4  0
  2  8  4  0
  2  9  1  0
  3  6  1  0
  3 10  3  0
  3 12  4  0
  3 13  1  0
  3 14  2  0
  4  6  1  0
  4  7  2  0
  4  9  4  0
  4 10  4  0
  4 13  3  0
  4 14  1  0
  5  7  1  0
  5  8  1  0
  5  9  1  0
  5 10  1  0
  5 13  4  0
  6 10  3  0
  6 12  2  0
  6 13  4  0
  6 14  4  0
  7 13  1  0
  7 14  4  0
  8  9  1  0
  8 11  2  0
  9 11  1  0
  9 13  1  0
 11 12  3  0
 11 13  4  0
 13 14  2  0
M  END
$$$$

 Created by Python create_sdf_string function

 30 45  0  0  0  0  0  0  0  0999 V2000
    5.2262    8.0356   21.6698 F   0  0  0  0  0  0  0  0  0  0  0  0
    9.4683   11.2862   23.0982 O   0  0  0  0  0  0  0  0  0  0  0  0
    6.3625    8.5976   17.9883 F   0  0  0  0  0  0  0  0  0  0  0  0
    9.9042    6.9045   20.5625 F   0  0  0  0  0  0  0  0  0  0  0  0
   13.4004    8.8220   22.8465 C   0  0  0  0  0  0  0  0  0  0  0  0
    7.0725    8.7921   21.7281 C   0  0  0  0  0  0  0  0  0  0  0  0
   10.7866    8.1021   21.0071 F   0  0  0  0  0  0  0  0  0  0  0  0
    9.5300    4.4900   16.3256 F   0  0  0  0  0  0  0  0  0  0  0  0
    8.6833    7.3311   21.3134 O   0  0  0  0  0  0  0  0  0  0  0  0
    6.2168    7.4242   20.0976 Cl  0  0  0  0  0  0  0  0  0  0  0  0
   10.0900    3.9122   17.1071 N   0  0  0  0  0  0  0  0  0  0  0  0
    6.7753    8.8608   19.5723 P   0  0  0  0  0  0  0  0  0  0  0  0
    7.7359    8.0970   22.6812 C   0  0  0  0  0  0  0  0  0  0  0  0
    6.8255    5.2092   17.9384 N   0  0  0  0  0  0  0  0  0  0  0  0
   11.5909    8.6498   22.6818 C   0  0  0  0  0  0  0  0  0  0  0  0
    3.2336    6.9095   21.3420 He  0  0  0  0  0  0  0  0  0  0  0  0
    4.5835    7.5396   22.6173 He  0  0  0  0  0  0  0  0  0  0  0  0
   11.2986    7.6162   21.5634 He  0  0  0  0  0  0  0  0  0  0  0  0
    9.0527    4.6133   15.4098 He  0  0  0  0  0  0  0  0  0  0  0  0
    9.8584    5.1150   19.6589 He  0  0  0  0  0  0  0  0  0  0  0  0
    9.4619   10.6952   23.1310 He  0  0  0  0  0  0  0  0  0  0  0  0
    6.9947    8.2130   17.4858 He  0  0  0  0  0  0  0  0  0  0  0  0
    7.0199    7.5172   21.7277 He  0  0  0  0  0  0  0  0  0  0  0  0
    8.4298    5.5727   17.4493 He  0  0  0  0  0  0  0  0  0  0  0  0
    8.8586    5.2630   18.3303 He  0  0  0  0  0  0  0  0  0  0  0  0
    7.8443    9.7470   18.9083 He  0  0  0  0  0  0  0  0  0  0  0  0
    6.6211    9.2142   23.5169 He  0  0  0  0  0  0  0  0  0  0  0  0
   10.8623    3.8803   17.1439 He  0  0  0  0  0  0  0  0  0  0  0  0
    9.0947    8.4682   16.8740 He  0  0  0  0  0  0  0  0  0  0  0  0
    7.6922    6.8131   22.8530 He  0  0  0  0  0  0  0  0  0  0  0  0
  1  2  4  0
  1  4  2  0
  1  5  2  0
  1  8  3  0
  1 11  2  0
  1 13  4  0
  1 14  1  0
  2  4  3  0
  2  5  1  0
  2  6  2  0
  2  8  4  0
  2  9  1  0
  2 13  3  0
  2 14  1  0
  3  4  1  0
  3  5  3  0
  3  8  3  0
  4  5  3  0
  4  8  2  0
  4  9  3  0
  4 13  3  0
  5  6  4  0
  5  7  1  0
  5  8  4  0
  5  9  3  0
  5 11  2  0
  5 15  3  0
  6  7  2  0
  6  9  2  0
  6 13  2  0
  6 15  3  0
  7  9  4  0
  7 12  2  0
  7 13  4  0
  8 10  4  0
  8 14  1  0
  9 10  1  0
  9 13  4  0
  9 14  2  0
 11 12  1  0
 11 13  3  0
 11 14  4  0
 11 15  2  0
 12 14  3  0
 13 14  1  0
M  END
$$$$

 Created by Python create_sdf_string function

 30 52  0  0  0  0  0  0  0  0999 V2000
    8.6306   10.3041   21.8991 I   0  0  0  0  0  0  0  0  0  0  0  0
    7.3564    5.9885   18.1532 C   0  0  0  0  0  0  0  0  0  0  0  0
    9.2555    5.0501   19.6224 C   0  0  0  0  0  0  0  0  0  0  0  0
    4.2970    6.9772   21.3904 Se  0  0  0  0  0  0  0  0  0  0  0  0
    3.6482    7.6598   21.8207 S   0  0  0  0  0  0  0  0  0  0  0  0
    9.8449    4.7995   19.3824 N   0  0  0  0  0  0  0  0  0  0  0  0
    6.7858    8.3040   22.1090 F   0  0  0  0  0  0  0  0  0  0  0  0
   11.7542    8.6797   21.6521 O   0  0  0  0  0  0  0  0  0  0  0  0
    7.9321    8.6711   16.7187 I   0  0  0  0  0  0  0  0  0  0  0  0
    5.8293    7.0912   19.5554 C   0  0  0  0  0  0  0  0  0  0  0  0
    9.6386    5.1430   17.7321 S   0  0  0  0  0  0  0  0  0  0  0  0
    7.9476    8.9955   19.8850 O   0  0  0  0  0  0  0  0  0  0  0  0
    6.0452    8.2343   21.9068 S   0  0  0  0  0  0  0  0  0  0  0  0
    8.8858    6.6580   15.7804 N   0  0  0  0  0  0  0  0  0  0  0  0
    7.0556    6.6203   22.3830 O   0  0  0  0  0  0  0  0  0  0  0  0
    7.8158    5.4472   17.5226 N   0  0  0  0  0  0  0  0  0  0  0  0
   11.1331    7.4681   21.2624 Br  0  0  0  0  0  0  0  0  0  0  0  0
    3.0795    6.8846   20.0216 He  0  0  0  0  0  0  0  0  0  0  0  0
   12.6514    6.1093   21.3084 He  0  0  0  0  0  0  0  0  0  0  0  0
    8.8252    4.4892   15.5608 He  0  0  0  0  0  0  0  0  0  0  0  0
   13.1525    8.7621   20.6477 He  0  0  0  0  0  0  0  0  0  0  0  0
   10.1470    9.5865   22.1511 He  0  0  0  0  0  0  0  0  0  0  0  0
   10.1031    3.0967   17.2007 He  0  0  0  0  0  0  0  0  0  0  0  0
    9.2507    6.4649   16.1924 He  0  0  0  0  0  0  0  0  0  0  0  0
    8.3902    6.8584   21.0190 He  0  0  0  0  0  0  0  0  0  0  0  0
    6.1470    9.4021   20.4018 He  0  0  0  0  0  0  0  0  0  0  0  0
    9.0106    3.0786   15.8273 He  0  0  0  0  0  0  0  0  0  0  0  0
    6.9903    8.3813   19.5306 He  0  0  0  0  0  0  0  0  0  0  0  0
   11.5111    2.9670   16.4265 He  0  0  0  0  0  0  0  0  0  0  0  0
    7.0215    7.7839   21.6233 He  0  0  0  0  0  0  0  0  0  0  0  0
  1  2  3  0
  1  4  2  0
  1  5  1  0
  1  8  4  0
  1 12  4  0
  1 15  2  0
  1 16  1  0
  1 17  3  0
  2  4  1  0
  2  6  3  0
  2  7  3  0
  2  9  3  0
  2 11  1  0
  2 13  2  0
  2 14  2  0
  2 16  3  0
  3  4  2  0
  3  6  2  0
  3  7  4  0
  3 11  1  0
  3 14  1  0
  4  7  2  0
  4  8  4  0
  4  9  4  0
  4 10  2  0
  4 12  2  0
  4 13  4  0
  5 10  1  0
  5 15  1  0
  5 16  2  0
  6  8  4  0
  6  9  2  0
  6 15  1  0
  6 16  3  0
  7 12  4  0
  7 17  4  0
  8  9  1  0
  8 10  3  0
  8 11  2  0
  8 12  4  0
  9 10  3  0
  9 11  3  0
  9 16  1  0
 10 11  2  0
 10 14  4  0
 10 16  1  0
 11 14  1  0
 13 14  3  0
 13 15  1  0
 13 16  4  0
 14 16  3  0
 15 17  3  0
M  END
$$$$

 Created by Python create_sdf_string function

 30 66  0  0  0  0  0  0  0  0999 V2000
    3.9129    6.7265   20.3398 O   0  0  0  0  0  0  0  0  0  0  0  0
    9.1208    6.0093   20.2044 C   0  0  0  0  0  0  0  0  0  0  0  0
    3.5194    8.3033   22.4050 F   0  0  0  0  0  0  0  0  0  0  0  0
    2.4024    7.5514   21.1879 Se  0  0  0  0  0  0  0  0  0  0  0  0
   10.5559    6.1891   20.7779 F   0  0  0  0  0  0  0  0  0  0  0  0
    8.9641    3.6062   14.8898 O   0  0  0  0  0  0  0  0  0  0  0  0
    9.5194    6.3731   17.9635 O   0  0  0  0  0  0  0  0  0  0  0  0
   12.5582    8.7248   20.9425 Cl  0  0  0  0  0  0  0  0  0  0  0  0
    5.8504    6.6606   21.3886 C   0  0  0  0  0  0  0  0  0  0  0  0
   10.6073    8.3544   22.4640 P   0  0  0  0  0  0  0  0  0  0  0  0
    4.7063    7.6371   18.8093 Cl  0  0  0  0  0  0  0  0  0  0  0  0
    7.0672    6.5716   16.0490 N   0  0  0  0  0  0  0  0  0  0  0  0
   10.2734    4.3286   18.3025 N   0  0  0  0  0  0  0  0  0  0  0  0
    9.4819    3.0088   15.4328 C   0  0  0  0  0  0  0  0  0  0  0  0
    8.0293    8.9313   17.7335 P   0  0  0  0  0  0  0  0  0  0  0  0
    5.2594    8.1352   22.3937 C   0  0  0  0  0  0  0  0  0  0  0  0
   10.8308    4.3113   17.9430 O   0  0  0  0  0  0  0  0  0  0  0  0
    7.8701    6.2607   22.5621 P   0  0  0  0  0  0  0  0  0  0  0  0
   10.2351    7.5554   22.9658 C   0  0  0  0  0  0  0  0  0  0  0  0
    8.4608    9.9179   19.7816 He  0  0  0  0  0  0  0  0  0  0  0  0
    6.5186    4.6346   18.3303 He  0  0  0  0  0  0  0  0  0  0  0  0
   12.2964    7.3523   21.1691 He  0  0  0  0  0  0  0  0  0  0  0  0
   11.3965    4.5720   16.1610 He  0  0  0  0  0  0  0  0  0  0  0  0
    6.8507    7.0914   16.8386 He  0  0  0  0  0  0  0  0  0  0  0  0
    9.1034    8.7402   21.1723 He  0  0  0  0  0  0  0  0  0  0  0  0
    6.5729    7.9712   21.5694 He  0  0  0  0  0  0  0  0  0  0  0  0
    9.4903    7.0680   18.9514 He  0  0  0  0  0  0  0  0  0  0  0  0
    8.2131    6.8666   16.9492 He  0  0  0  0  0  0  0  0  0  0  0  0
    7.4957    7.6842   21.6325 He  0  0  0  0  0  0  0  0  0  0  0  0
    8.7507    7.5162   17.1268 He  0  0  0  0  0  0  0  0  0  0  0  0
  1  6  3  0
  1 11  4  0
  1 12  1  0
  1 18  3  0
  1 19  3  0
  2  6  3  0
  2 11  3  0
  3  8  2  0
  3 11  3  0
  3 12  1  0
  3 13  1  0
  3 16  3  0
  3 17  1  0
  3 18  1  0
  4  6  1  0
  4 12  4  0
  4 16  1  0
  4 18  3  0
  5  8  4  0
  5  9  3  0
  5 11  2  0
  5 13  1  0
  5 14  3  0
  5 18  3  0
  6  7  2  0
  6  8  3  0
  6 13  4  0
  6 15  3  0
  6 19  3  0
  7  8  4  0
  7  9  2  0
  7 12  1  0
  7 15  2  0
  7 16  2  0
  7 19  2  0
  8  9  1  0
  8 11  3  0
  8 12  2  0
  8 15  3  0
  8 17  4  0
  9 11  1  0
  9 12  2  0
 10 12  3  0
 10 13  2  0
 10 16  4  0
 10 18  4  0
 10 19  3  0
 11 13  1  0
 11 14  1  0
 11 19  4  0
 12 14  1  0
 12 17  4  0
 13 14  2  0
 13 15  1  0
 13 18  2  0
 14 15  1  0
 14 16  2  0
 14 17  4  0
 14 19  4  0
 15 17  4  0
 15 18  2  0
 15 19  1  0
 16 18  1  0
 16 19  3  0
 17 18  4  0
 17 19  4  0
M  END
$$$$

 Created by Python create_sdf_string function

 30 52  0  0  0  0  0  0  0  0999 V2000
    4.7478    7.3698   22.0363 C   0  0  0  0  0  0  0  0  0  0  0  0
    7.1542    7.1274   19.0872 F   0  0  0  0  0  0  0  0  0  0  0  0
   10.0425    6.8982   18.5475 C   0  0  0  0  0  0  0  0  0  0  0  0
    1.3745    7.4517   20.9021 F   0  0  0  0  0  0  0  0  0  0  0  0
    9.3949    6.4977   19.3130 F   0  0  0  0  0  0  0  0  0  0  0  0
    9.8246    5.9150   19.0624 C   0  0  0  0  0  0  0  0  0  0  0  0
   12.0926    8.3402   19.4916 F   0  0  0  0  0  0  0  0  0  0  0  0
   11.0518    6.8506   23.5204 C   0  0  0  0  0  0  0  0  0  0  0  0
    7.7125    4.3247   16.5487 O   0  0  0  0  0  0  0  0  0  0  0  0
    3.4171    8.6680   18.9630 O   0  0  0  0  0  0  0  0  0  0  0  0
    8.2154    8.2079   20.8434 C   0  0  0  0  0  0  0  0  0  0  0  0
    5.9403    7.3621   21.7424 O   0  0  0  0  0  0  0  0  0  0  0  0
    8.7351    6.6490   19.5441 C   0  0  0  0  0  0  0  0  0  0  0  0
    8.1902    6.5808   17.1884 F   0  0  0  0  0  0  0  0  0  0  0  0
   10.3841    6.3539   16.3988 P   0  0  0  0  0  0  0  0  0  0  0  0
    8.2816    7.2917   20.9386 N   0  0  0  0  0  0  0  0  0  0  0  0
   11.1447    8.1428   22.5343 F   0  0  0  0  0  0  0  0  0  0  0  0
    8.6273    8.4856   20.7168 He  0  0  0  0  0  0  0  0  0  0  0  0
    4.6484    7.9154   20.5748 He  0  0  0  0  0  0  0  0  0  0  0  0
    9.4760    3.3524   16.2698 He  0  0  0  0  0  0  0  0  0  0  0  0
    5.8142    8.5079   21.3037 He  0  0  0  0  0  0  0  0  0  0  0  0
   11.8162    7.5735   22.1279 He  0  0  0  0  0  0  0  0  0  0  0  0
   11.6092    4.1512   16.4594 He  0  0  0  0  0  0  0  0  0  0  0  0
    6.7145    8.7478   17.4595 He  0  0  0  0  0  0  0  0  0  0  0  0
    8.8084    5.0436   18.8552 He  0  0  0  0  0  0  0  0  0  0  0  0
   11.3019    2.9976   17.6903 He  0  0  0  0  0  0  0  0  0  0  0  0
    5.1431    9.9208   22.2831 He  0  0  0  0  0  0  0  0  0  0  0  0
    7.5677    6.4638   15.4485 He  0  0  0  0  0  0  0  0  0  0  0  0
    7.2314    8.4361   20.4515 He  0  0  0  0  0  0  0  0  0  0  0  0
    9.3984    6.0847   18.5810 He  0  0  0  0  0  0  0  0  0  0  0  0
  1  2  3  0
  1  6  1  0
  1  7  1  0
  1 10  4  0
  1 14  2  0
  2  3  1  0
  2  8  1  0
  2  9  4  0
  2 11  1  0
  2 12  4  0
  2 15  4  0
  2 16  2  0
  3  5  2  0
  3  6  2  0
  3  7  1  0
  3  9  3  0
  3 11  4  0
  3 13  1  0
  3 14  3  0
  3 15  1  0
  4  5  1  0
  4 10  4  0
  4 12  1  0
  5  6  4  0
  5  8  3  0
  5 14  1  0
  5 15  4  0
  5 16  4  0
  5 17  3  0
  6 10  4  0
  6 11  4  0
  7 13  3  0
  7 16  1  0
  7 17  3  0
  8 11  3  0
  8 13  4  0
  8 16  4  0
  8 17  2  0
  9 14  3  0
  9 15  2  0
  9 16  3  0
 10 12  2  0
 10 13  3  0
 10 17  4  0
 11 12  1  0
 11 13  1  0
 11 17  4  0
 12 14  2  0
 12 15  1  0
 12 16  3  0
 12 17  2  0
 16 17  3  0
M  END
$$$$

 Created by Python create_sdf_string function

 30 30  0  0  0  0  0  0  0  0999 V2000
    3.8184    9.1979   21.6619 Br  0  0  0  0  0  0  0  0  0  0  0  0
   10.5090    5.2988   19.0715 N   0  0  0  0  0  0  0  0  0  0  0  0
    4.8144    8.4888   21.1558 Se  0  0  0  0  0  0  0  0  0  0  0  0
   12.3777    8.0211   23.5893 N   0  0  0  0  0  0  0  0  0  0  0  0
    9.5770    3.6889   16.4523 B   0  0  0  0  0  0  0  0  0  0  0  0
    8.8395    7.4975   20.9421 C   0  0  0  0  0  0  0  0  0  0  0  0
    5.5185    6.7520   21.3578 O   0  0  0  0  0  0  0  0  0  0  0  0
    8.4386    4.8665   18.2478 O   0  0  0  0  0  0  0  0  0  0  0  0
    8.8416    7.7824   20.6206 C   0  0  0  0  0  0  0  0  0  0  0  0
    8.3880    5.3223   16.6533 S   0  0  0  0  0  0  0  0  0  0  0  0
    3.7033   11.2126   20.1601 C   0  0  0  0  0  0  0  0  0  0  0  0
    7.5305    6.1852   13.3578 S   0  0  0  0  0  0  0  0  0  0  0  0
    9.0241    7.2595   22.1882 O   0  0  0  0  0  0  0  0  0  0  0  0
   12.0581    8.3348   22.7022 C   0  0  0  0  0  0  0  0  0  0  0  0
    7.5437    8.4347   21.2361 He  0  0  0  0  0  0  0  0  0  0  0  0
    7.6610    8.1254   19.3885 He  0  0  0  0  0  0  0  0  0  0  0  0
   10.8395    7.7374   18.8865 He  0  0  0  0  0  0  0  0  0  0  0  0
    4.2047    7.6166   20.4671 He  0  0  0  0  0  0  0  0  0  0  0  0
    1.9577    6.0327   21.6435 He  0  0  0  0  0  0  0  0  0  0  0  0
   10.0212    6.7348   18.6657 He  0  0  0  0  0  0  0  0  0  0  0  0
   10.9928    4.1828   17.0382 He  0  0  0  0  0  0  0  0  0  0  0  0
   12.7311    8.0061   21.5105 He  0  0  0  0  0  0  0  0  0  0  0  0
   11.7625    7.7059   23.5170 He  0  0  0  0  0  0  0  0  0  0  0  0
    6.4512    4.8546   14.9534 He  0  0  0  0  0  0  0  0  0  0  0  0
    3.8112    8.4029   19.9590 He  0  0  0  0  0  0  0  0  0  0  0  0
    8.2137    8.4234   17.1510 He  0  0  0  0  0  0  0  0  0  0  0  0
    8.8446    2.3880   17.4187 He  0  0  0  0  0  0  0  0  0  0  0  0
   10.0257    6.9822   15.8451 He  0  0  0  0  0  0  0  0  0  0  0  0
    6.6195    7.0334   19.6536 He  0  0  0  0  0  0  0  0  0  0  0  0
    7.5273    7.2161   17.4385 He  0  0  0  0  0  0  0  0  0  0  0  0
  1  3  3  0
  1  5  4  0
  1  8  4  0
  1  9  4  0
  1 11  3  0
  1 14  1  0
  2  4  1  0
  2  5  2  0
  2  8  3  0
  3  6  4  0
  3  7  2  0
  3  8  3  0
  4  5  3  0
  4 12  4  0
  5  9  3  0
  6 10  3  0
  6 11  4  0
  6 13  3  0
  6 14  4  0
  7 13  3  0
  8  9  3  0
  8 10  3  0
  8 13  4  0
  9 10  1  0
 10 13  3  0
 11 12  3  0
 11 13  3  0
 11 14  3  0
 12 13  1  0
 12 14  3  0
M  END
$$$$

 Created by Python create_sdf_string function

 30 67  0  0  0  0  0  0  0  0999 V2000
    7.4743    9.5612   21.9062 C   0  0  0  0  0  0  0  0  0  0  0  0
    9.7778    5.6994   18.9452 P   0  0  0  0  0  0  0  0  0  0  0  0
    2.9263    6.6971   19.3760 F   0  0  0  0  0  0  0  0  0  0  0  0
    8.9361    6.0712   19.0735 O   0  0  0  0  0  0  0  0  0  0  0  0
   10.2138    6.6025   18.5454 S   0  0  0  0  0  0  0  0  0  0  0  0
   11.5759    8.4282   21.2939 F   0  0  0  0  0  0  0  0  0  0  0  0
    4.0429    9.1564   19.5876 C   0  0  0  0  0  0  0  0  0  0  0  0
   10.7767    7.4663   23.5327 S   0  0  0  0  0  0  0  0  0  0  0  0
    8.8308    4.9605   16.9177 B   0  0  0  0  0  0  0  0  0  0  0  0
    8.9457    6.2274   15.9956 C   0  0  0  0  0  0  0  0  0  0  0  0
    3.0760    9.3746   22.2132 F   0  0  0  0  0  0  0  0  0  0  0  0
   10.4229    7.8721   19.3298 C   0  0  0  0  0  0  0  0  0  0  0  0
    6.7557    6.2704   19.6423 N   0  0  0  0  0  0  0  0  0  0  0  0
   10.1771    5.3983   17.2557 C   0  0  0  0  0  0  0  0  0  0  0  0
    9.9283    4.0199   17.9659 F   0  0  0  0  0  0  0  0  0  0  0  0
    8.2729    7.0892   21.0607 O   0  0  0  0  0  0  0  0  0  0  0  0
    8.0894    3.9032   16.6615 O   0  0  0  0  0  0  0  0  0  0  0  0
    2.3704   10.4065   19.5481 C   0  0  0  0  0  0  0  0  0  0  0  0
    7.5678    6.1245   16.4586 N   0  0  0  0  0  0  0  0  0  0  0  0
    7.0857    6.6422   14.0594 C   0  0  0  0  0  0  0  0  0  0  0  0
    7.9411    6.8032   18.9781 P   0  0  0  0  0  0  0  0  0  0  0  0
   12.3906    9.2227   20.9426 C   0  0  0  0  0  0  0  0  0  0  0  0
    1.7280    9.1288   21.0713 He  0  0  0  0  0  0  0  0  0  0  0  0
    6.9832    6.7880   16.7819 He  0  0  0  0  0  0  0  0  0  0  0  0
    2.8342    7.8628   21.2712 He  0  0  0  0  0  0  0  0  0  0  0  0
   10.4064    5.8411   17.2940 He  0  0  0  0  0  0  0  0  0  0  0  0
   10.1996    7.8463   21.7076 He  0  0  0  0  0  0  0  0  0  0  0  0
    7.9819   10.4330   15.4492 He  0  0  0  0  0  0  0  0  0  0  0  0
    9.9775    7.7120   22.4380 He  0  0  0  0  0  0  0  0  0  0  0  0
    7.0161    7.7440   16.7033 He  0  0  0  0  0  0  0  0  0  0  0  0
  1  2  2  0
  1  9  3  0
  1 12  2  0
  1 17  3  0
  1 19  4  0
  2  5  3  0
  2 17  4  0
  2 20  4  0
  3  5  1  0
  3 10  1  0
  3 12  1  0
  4  6  2  0
  4 13  2  0
  4 17  1  0
  4 19  4  0
  4 20  2  0
  5  7  1  0
  5 13  1  0
  5 20  2  0
  5 21  3  0
  6  9  3  0
  6 10  1  0
  6 11  4  0
  6 16  4  0
  6 17  2  0
  6 18  3  0
  6 19  2  0
  6 20  3  0
  6 21  2  0
  7 11  2  0
  7 15  2  0
  7 16  4  0
  8 17  2  0
  8 18  4  0
  8 21  4  0
  9 10  2  0
  9 15  2  0
  9 17  3  0
  9 19  2  0
  9 21  3  0
 10 11  3  0
 10 13  3  0
 10 17  1  0
 10 20  3  0
 11 12  1  0
 11 13  3  0
 11 18  2  0
 11 19  4  0
 12 16  3  0
 12 22  4  0
 13 16  2  0
 13 17  4  0
 13 18  2  0
 13 21  1  0
 13 22  3  0
 14 17  1  0
 14 19  3  0
 14 22  2  0
 15 16  2  0
 15 17  2  0
 15 18  2  0
 17 19  1  0
 17 21  4  0
 18 20  3  0
 19 21  1  0
 20 21  3  0
 20 22  3  0
M  END
$$$$

 Created by Python create_sdf_string function

 30  7  0  0  0  0  0  0  0  0999 V2000
    7.1810    9.3653   21.9042 C   0  0  0  0  0  0  0  0  0  0  0  0
   11.6608    7.3313   18.2397 Cl  0  0  0  0  0  0  0  0  0  0  0  0
   10.8580    7.6246   22.3143 C   0  0  0  0  0  0  0  0  0  0  0  0
    9.5312    6.1213   14.5447 O   0  0  0  0  0  0  0  0  0  0  0  0
    7.7167    8.6486   15.9852 Br  0  0  0  0  0  0  0  0  0  0  0  0
   10.1040    5.7341   17.8915 C   0  0  0  0  0  0  0  0  0  0  0  0
    7.1365    7.0168   20.8195 N   0  0  0  0  0  0  0  0  0  0  0  0
    5.9678    6.9226   17.5974 N   0  0  0  0  0  0  0  0  0  0  0  0
   -0.3864    8.8014   22.0358 He  0  0  0  0  0  0  0  0  0  0  0  0
    7.4077    8.1576   17.2017 He  0  0  0  0  0  0  0  0  0  0  0  0
    8.7656    8.2072   17.6156 He  0  0  0  0  0  0  0  0  0  0  0  0
    2.4945    9.9011   21.0575 He  0  0  0  0  0  0  0  0  0  0  0  0
    3.3751    6.8017   17.3901 He  0  0  0  0  0  0  0  0  0  0  0  0
    7.5780    7.1402   18.8948 He  0  0  0  0  0  0  0  0  0  0  0  0
   10.5797    5.3693   17.3496 He  0  0  0  0  0  0  0  0  0  0  0  0
    4.1280    8.9726   20.0908 He  0  0  0  0  0  0  0  0  0  0  0  0
   11.1536    8.4068   21.9049 He  0  0  0  0  0  0  0  0  0  0  0  0
   10.8170    7.5046   22.3688 He  0  0  0  0  0  0  0  0  0  0  0  0
    6.5742    7.2295   15.6273 He  0  0  0  0  0  0  0  0  0  0  0  0
    1.4049    9.0705   20.8538 He  0  0  0  0  0  0  0  0  0  0  0  0
   10.1307    7.9470   20.4719 He  0  0  0  0  0  0  0  0  0  0  0  0
    7.6400    7.3814   21.4367 He  0  0  0  0  0  0  0  0  0  0  0  0
    9.5862    4.9249   17.6786 He  0  0  0  0  0  0  0  0  0  0  0  0
    8.4900    6.3457   21.8488 He  0  0  0  0  0  0  0  0  0  0  0  0
    9.4430    5.9547   16.1645 He  0  0  0  0  0  0  0  0  0  0  0  0
    3.3246    9.1704   20.1220 He  0  0  0  0  0  0  0  0  0  0  0  0
    7.2947    6.0556   16.0710 He  0  0  0  0  0  0  0  0  0  0  0  0
    9.2794    4.7674   16.6267 He  0  0  0  0  0  0  0  0  0  0  0  0
    9.5304    8.2322   23.0917 He  0  0  0  0  0  0  0  0  0  0  0  0
   12.1144    8.3484   19.4933 He  0  0  0  0  0  0  0  0  0  0  0  0
  1  4  3  0
  1  7  3  0
  2  5  4  0
  2  8  1  0
  3  5  4  0
  4  5  2  0
  5  8  3  0
M  END
$$$$

 Created by Python create_sdf_string function

 30 66  0  0  0  0  0  0  0  0999 V2000
    1.2935    8.4240   21.7871 Cl  0  0  0  0  0  0  0  0  0  0  0  0
    7.3914    8.3939   17.8006 O   0  0  0  0  0  0  0  0  0  0  0  0
    8.6276    9.2838   17.4131 C   0  0  0  0  0  0  0  0  0  0  0  0
    3.5551    8.5043   20.0454 S   0  0  0  0  0  0  0  0  0  0  0  0
   11.2278    6.0418   15.9510 Br  0  0  0  0  0  0  0  0  0  0  0  0
   10.9199    8.2711   22.2023 C   0  0  0  0  0  0  0  0  0  0  0  0
    3.7667    8.2507   20.0947 C   0  0  0  0  0  0  0  0  0  0  0  0
   10.8282    7.0716   21.6222 I   0  0  0  0  0  0  0  0  0  0  0  0
    8.4300    4.1922   15.3409 C   0  0  0  0  0  0  0  0  0  0  0  0
    7.7770    6.5126   16.2822 C   0  0  0  0  0  0  0  0  0  0  0  0
    2.4044    8.6037   20.1541 F   0  0  0  0  0  0  0  0  0  0  0  0
   10.6127    4.7980   18.0431 B   0  0  0  0  0  0  0  0  0  0  0  0
   10.8440    4.6748   17.9289 O   0  0  0  0  0  0  0  0  0  0  0  0
    9.8309    6.8382   20.5983 F   0  0  0  0  0  0  0  0  0  0  0  0
    9.2302    6.1737   16.3732 C   0  0  0  0  0  0  0  0  0  0  0  0
    7.9573    6.2919   14.7268 C   0  0  0  0  0  0  0  0  0  0  0  0
    8.4711    5.8623   15.6154 N   0  0  0  0  0  0  0  0  0  0  0  0
    6.2001    6.0599   19.5172 C   0  0  0  0  0  0  0  0  0  0  0  0
   11.7962    6.9826   21.2719 N   0  0  0  0  0  0  0  0  0  0  0  0
    6.5905    9.7681   21.1366 He  0  0  0  0  0  0  0  0  0  0  0  0
    2.4545    9.0463   21.2426 He  0  0  0  0  0  0  0  0  0  0  0  0
    6.5916    9.2661   19.1626 He  0  0  0  0  0  0  0  0  0  0  0  0
   11.4158    4.0901   20.3498 He  0  0  0  0  0  0  0  0  0  0  0  0
    9.4287    6.4920   21.2763 He  0  0  0  0  0  0  0  0  0  0  0  0
    7.3780    6.0599   16.1682 He  0  0  0  0  0  0  0  0  0  0  0  0
    9.9985    7.7165   20.6166 He  0  0  0  0  0  0  0  0  0  0  0  0
    8.2157    8.4555   20.7698 He  0  0  0  0  0  0  0  0  0  0  0  0
    3.0560    8.6666   19.5795 He  0  0  0  0  0  0  0  0  0  0  0  0
    6.3869    9.4908   20.1161 He  0  0  0  0  0  0  0  0  0  0  0  0
    9.0020    9.1595   23.2522 He  0  0  0  0  0  0  0  0  0  0  0  0
  1  2  2  0
  1  7  4  0
  1  9  1  0
  1 11  2  0
  1 13  1  0
  1 14  3  0
  1 16  3  0
  1 18  2  0
  2  3  1  0
  2  5  3  0
  2  9  1  0
  2 13  1  0
  2 14  2  0
  2 15  2  0
  3  5  1  0
  3  6  2  0
  3  7  1  0
  3  8  4  0
  3 11  1  0
  3 15  2  0
  3 16  4  0
  4  7  4  0
  4 10  1  0
  4 12  3  0
  4 14  4  0
  5  9  4  0
  5 13  1  0
  5 15  4  0
  6  9  2  0
  6 12  1  0
  6 13  1  0
  6 15  4  0
  6 16  1  0
  6 17  4  0
  7  8  4  0
  7  9  4  0
  7 15  4  0
  7 16  3  0
  7 19  3  0
  8  9  3  0
  8 10  2  0
  8 12  3  0
  8 15  2  0
  8 17  2  0
  9 10  3  0
  9 15  3  0
  9 18  2  0
 10 12  1  0
 10 13  4  0
 10 17  3  0
 10 18  1  0
 11 15  4  0
 11 16  3  0
 11 19  4  0
 12 17  2  0
 12 18  2  0
 13 15  2  0
 13 17  4  0
 13 18  2  0
 13 19  1  0
 14 15  1  0
 14 17  1  0
 15 16  4  0
 15 19  3  0
 17 18  3  0
 18 19  1  0
M  END
$$$$

 Created by Python create_sdf_string function

 30 39  0  0  0  0  0  0  0  0999 V2000
    5.7261    9.4541   20.4793 F   0  0  0  0  0  0  0  0  0  0  0  0
    8.0466    8.3655   18.0289 C   0  0  0  0  0  0  0  0  0  0  0  0
    2.5539    8.9188   21.6991 S   0  0  0  0  0  0  0  0  0  0  0  0
    1.6518    8.3034   20.6958 C   0  0  0  0  0  0  0  0  0  0  0  0
   10.6069    7.4159   20.6421 Se  0  0  0  0  0  0  0  0  0  0  0  0
   10.0767    7.4763   21.9278 N   0  0  0  0  0  0  0  0  0  0  0  0
    2.4657    7.5237   20.0281 C   0  0  0  0  0  0  0  0  0  0  0  0
    9.8579    4.8720   15.8135 C   0  0  0  0  0  0  0  0  0  0  0  0
    6.8481   10.3686   19.7977 C   0  0  0  0  0  0  0  0  0  0  0  0
   10.3493    5.3449   18.2078 P   0  0  0  0  0  0  0  0  0  0  0  0
   10.8027    3.4218   17.9480 N   0  0  0  0  0  0  0  0  0  0  0  0
   10.3302    3.8060   16.6432 F   0  0  0  0  0  0  0  0  0  0  0  0
    8.6700   10.4329   20.8596 S   0  0  0  0  0  0  0  0  0  0  0  0
    9.9639    6.2758   21.9200 C   0  0  0  0  0  0  0  0  0  0  0  0
    5.4044    8.1619   19.3376 C   0  0  0  0  0  0  0  0  0  0  0  0
    2.6323    8.9100   20.0150 He  0  0  0  0  0  0  0  0  0  0  0  0
    9.4414    5.7886   17.3959 He  0  0  0  0  0  0  0  0  0  0  0  0
    5.6810    9.0612   20.8549 He  0  0  0  0  0  0  0  0  0  0  0  0
    8.8573    6.8153   14.0639 He  0  0  0  0  0  0  0  0  0  0  0  0
   11.5527    6.4346   18.9445 He  0  0  0  0  0  0  0  0  0  0  0  0
    3.9932    9.0832   18.5115 He  0  0  0  0  0  0  0  0  0  0  0  0
   10.6142    5.2376   22.4442 He  0  0  0  0  0  0  0  0  0  0  0  0
    8.1267    4.9723   15.6870 He  0  0  0  0  0  0  0  0  0  0  0  0
    9.7479    6.4190   16.8353 He  0  0  0  0  0  0  0  0  0  0  0  0
    9.7803    8.2641   20.2087 He  0  0  0  0  0  0  0  0  0  0  0  0
   10.7347    4.8208   20.5948 He  0  0  0  0  0  0  0  0  0  0  0  0
    3.6682    9.8927   21.4146 He  0  0  0  0  0  0  0  0  0  0  0  0
    7.1176    4.8886   15.1764 He  0  0  0  0  0  0  0  0  0  0  0  0
    8.8742    6.8343   16.1566 He  0  0  0  0  0  0  0  0  0  0  0  0
   13.8855    5.8323   19.8399 He  0  0  0  0  0  0  0  0  0  0  0  0
  1  3  2  0
  1  7  1  0
  1 13  1  0
  1 14  1  0
  1 15  3  0
  2  8  3  0
  2 10  2  0
  2 11  4  0
  2 12  4  0
  3  5  3  0
  3  6  1  0
  3 11  2  0
  3 13  4  0
  3 15  1  0
  4 11  2  0
  5  6  2  0
  5  8  4  0
  5  9  1  0
  5 14  1  0
  5 15  3  0
  6  7  2  0
  6 12  2  0
  7  9  1  0
  7 11  2  0
  7 12  2  0
  7 13  1  0
  7 14  1  0
  8 11  4  0
  8 13  4  0
  8 14  1  0
  9 10  4  0
  9 11  1  0
  9 14  2  0
 10 11  4  0
 11 13  3  0
 11 14  1  0
 11 15  3  0
 12 15  4  0
 14 15  4  0
M  END
$$$$

 Created by Python create_sdf_string function

 30 20  0  0  0  0  0  0  0  0999 V2000
    8.4415    8.1707   18.1909 C   0  0  0  0  0  0  0  0  0  0  0  0
    2.4542    7.7018   19.6928 F   0  0  0  0  0  0  0  0  0  0  0  0
   11.3167    6.8826   21.7923 C   0  0  0  0  0  0  0  0  0  0  0  0
    4.4003    9.0152   18.3862 C   0  0  0  0  0  0  0  0  0  0  0  0
    9.9052    5.7357   21.2626 C   0  0  0  0  0  0  0  0  0  0  0  0
    8.7638    7.2439   21.0411 O   0  0  0  0  0  0  0  0  0  0  0  0
    4.5183    7.5720   20.3678 F   0  0  0  0  0  0  0  0  0  0  0  0
    8.1893    5.6121   17.1448 Cl  0  0  0  0  0  0  0  0  0  0  0  0
    4.9032    7.9308   20.5104 C   0  0  0  0  0  0  0  0  0  0  0  0
    7.6308    6.9139   17.0663 C   0  0  0  0  0  0  0  0  0  0  0  0
   11.7135    6.2869   20.6845 F   0  0  0  0  0  0  0  0  0  0  0  0
    1.7712    8.2380   21.4445 He  0  0  0  0  0  0  0  0  0  0  0  0
    5.9091    8.0620   19.5614 He  0  0  0  0  0  0  0  0  0  0  0  0
    7.9786    6.6471   18.5020 He  0  0  0  0  0  0  0  0  0  0  0  0
    3.7633    7.5304   22.6874 He  0  0  0  0  0  0  0  0  0  0  0  0
    5.2055    7.5511   20.6455 He  0  0  0  0  0  0  0  0  0  0  0  0
    6.5431    6.6626   17.2270 He  0  0  0  0  0  0  0  0  0  0  0  0
   11.7966    6.4419   18.2641 He  0  0  0  0  0  0  0  0  0  0  0  0
    9.6501    6.8202   15.2219 He  0  0  0  0  0  0  0  0  0  0  0  0
   10.5178    6.3578   16.2941 He  0  0  0  0  0  0  0  0  0  0  0  0
   11.0312    9.2133   19.8177 He  0  0  0  0  0  0  0  0  0  0  0  0
    5.7846    9.1529   20.0758 He  0  0  0  0  0  0  0  0  0  0  0  0
   10.3685    6.0429   18.1566 He  0  0  0  0  0  0  0  0  0  0  0  0
   10.2264    4.3278   16.6984 He  0  0  0  0  0  0  0  0  0  0  0  0
   12.4864    5.0295   19.7547 He  0  0  0  0  0  0  0  0  0  0  0  0
   11.0014    4.1786   16.5279 He  0  0  0  0  0  0  0  0  0  0  0  0
    6.4230    4.0614   15.7081 He  0  0  0  0  0  0  0  0  0  0  0  0
    7.3731   10.3872   20.0323 He  0  0  0  0  0  0  0  0  0  0  0  0
    6.1827    8.6237   19.9292 He  0  0  0  0  0  0  0  0  0  0  0  0
   11.8019    4.6790   21.0599 He  0  0  0  0  0  0  0  0  0  0  0  0
  1  3  4  0
  1  4  1  0
  1  8  2  0
  1 10  2  0
  1 11  1  0
  2  4  2  0
  2  5  3  0
  2  6  1  0
  2 10  3  0
  3  8  2  0
  4  5  4  0
  4  7  3  0
  4  9  4  0
  4 11  3  0
  5  6  1  0
  5  8  2  0
  5  9  4  0
  6  7  1  0
  6  8  2  0
  9 11  3  0
M  END
$$$$

 Created by Python create_sdf_string function

 30 38  0  0  0  0  0  0  0  0999 V2000
    3.1188    8.0916   20.3984 O   0  0  0  0  0  0  0  0  0  0  0  0
    7.2686    5.7817   18.6989 P   0  0  0  0  0  0  0  0  0  0  0  0
    7.6961    7.6402   17.6290 C   0  0  0  0  0  0  0  0  0  0  0  0
    3.3884    7.2917   21.4150 C   0  0  0  0  0  0  0  0  0  0  0  0
    3.2322    7.9758   20.1556 C   0  0  0  0  0  0  0  0  0  0  0  0
    5.3359    7.5157   17.7725 Se  0  0  0  0  0  0  0  0  0  0  0  0
   12.5282    6.8611   18.8099 Se  0  0  0  0  0  0  0  0  0  0  0  0
   11.2942    6.4089   23.1362 C   0  0  0  0  0  0  0  0  0  0  0  0
    8.3782    6.7214   16.5645 F   0  0  0  0  0  0  0  0  0  0  0  0
    7.9672    6.5071   17.6656 C   0  0  0  0  0  0  0  0  0  0  0  0
   10.4391    7.0584   19.2367 P   0  0  0  0  0  0  0  0  0  0  0  0
    8.1803    5.8843   17.9268 C   0  0  0  0  0  0  0  0  0  0  0  0
   10.9789    5.6852   16.0354 O   0  0  0  0  0  0  0  0  0  0  0  0
   11.9355    6.2426   18.9439 C   0  0  0  0  0  0  0  0  0  0  0  0
    5.0732    9.1609   18.3524 He  0  0  0  0  0  0  0  0  0  0  0  0
    4.5115    8.9674   20.4598 He  0  0  0  0  0  0  0  0  0  0  0  0
    6.2926    8.6713   19.5033 He  0  0  0  0  0  0  0  0  0  0  0  0
    8.8982    6.7934   19.3273 He  0  0  0  0  0  0  0  0  0  0  0  0
    9.3955    6.6380   21.5946 He  0  0  0  0  0  0  0  0  0  0  0  0
   11.3797    7.4892   17.5957 He  0  0  0  0  0  0  0  0  0  0  0  0
    3.5188    5.7338   19.2535 He  0  0  0  0  0  0  0  0  0  0  0  0
    6.0928   10.1433   21.9451 He  0  0  0  0  0  0  0  0  0  0  0  0
   10.8225    4.5292   16.2171 He  0  0  0  0  0  0  0  0  0  0  0  0
    4.2978    7.9049   20.1599 He  0  0  0  0  0  0  0  0  0  0  0  0
    8.2581    6.1190   16.0398 He  0  0  0  0  0  0  0  0  0  0  0  0
    7.0982    7.4832   16.3647 He  0  0  0  0  0  0  0  0  0  0  0  0
    7.3467    9.0823   20.4825 He  0  0  0  0  0  0  0  0  0  0  0  0
   11.7019    7.6508   20.9854 He  0  0  0  0  0  0  0  0  0  0  0  0
    5.4852    9.3406   19.7787 He  0  0  0  0  0  0  0  0  0  0  0  0
   12.4547    3.9545   20.7357 He  0  0  0  0  0  0  0  0  0  0  0  0
  1  3  2  0
  1  6  3  0
  1  7  3  0
  1  8  4  0
  1  9  4  0
  1 10  3  0
  1 11  4  0
  1 12  1  0
  2  3  2  0
  2  5  3  0
  2  7  4  0
  2  8  4  0
  2 12  1  0
  2 14  3  0
  3  8  4  0
  3 10  2  0
  3 12  1  0
  4  8  3  0
  4 14  1  0
  5  9  4  0
  5 10  1  0
  5 11  3  0
  6  7  4  0
  6  8  1  0
  6 10  2  0
  6 12  3  0
  6 14  1  0
  7  9  3  0
  7 12  3  0
  8  9  3  0
  8 13  1  0
  8 14  1  0
  9 10  3  0
  9 11  1  0
  9 12  2  0
 11 13  3  0
 11 14  4  0
 12 13  3  0
M  END
$$$$

 Created by Python create_sdf_string function

 30 57  0  0  0  0  0  0  0  0999 V2000
    4.1334    6.9997   21.4576 C   0  0  0  0  0  0  0  0  0  0  0  0
    6.1664    6.1616   19.9809 O   0  0  0  0  0  0  0  0  0  0  0  0
    8.5614    7.2748   18.2419 N   0  0  0  0  0  0  0  0  0  0  0  0
    3.8999    7.8286   21.5631 N   0  0  0  0  0  0  0  0  0  0  0  0
    2.6442    7.8023   19.9167 C   0  0  0  0  0  0  0  0  0  0  0  0
    4.8300    7.8992   22.0007 F   0  0  0  0  0  0  0  0  0  0  0  0
   11.9888    4.7069   19.7255 S   0  0  0  0  0  0  0  0  0  0  0  0
   10.8930    6.7783   23.5380 F   0  0  0  0  0  0  0  0  0  0  0  0
    6.7708    7.4782   20.1224 Br  0  0  0  0  0  0  0  0  0  0  0  0
   10.5788    5.7188   19.2691 C   0  0  0  0  0  0  0  0  0  0  0  0
    8.7658    6.6346   17.0194 O   0  0  0  0  0  0  0  0  0  0  0  0
    4.0403    5.0381   18.8785 S   0  0  0  0  0  0  0  0  0  0  0  0
    6.5325   10.8474   20.9649 O   0  0  0  0  0  0  0  0  0  0  0  0
    7.7893    7.4756   17.6110 O   0  0  0  0  0  0  0  0  0  0  0  0
   12.1991    6.6917   15.9057 F   0  0  0  0  0  0  0  0  0  0  0  0
   11.7731    5.6154   21.1510 C   0  0  0  0  0  0  0  0  0  0  0  0
   10.3622    4.4185   15.8160 C   0  0  0  0  0  0  0  0  0  0  0  0
   10.1659    8.8578   21.6046 S   0  0  0  0  0  0  0  0  0  0  0  0
   11.3812    4.3133   20.6403 C   0  0  0  0  0  0  0  0  0  0  0  0
    4.3751    8.7255   19.2183 He  0  0  0  0  0  0  0  0  0  0  0  0
    5.9441    6.8563   19.3285 He  0  0  0  0  0  0  0  0  0  0  0  0
   10.1421    6.1251   21.4624 He  0  0  0  0  0  0  0  0  0  0  0  0
   12.5461    7.0226   17.9143 He  0  0  0  0  0  0  0  0  0  0  0  0
    8.2746    7.2884   16.0904 He  0  0  0  0  0  0  0  0  0  0  0  0
   10.9354    6.9139   19.7857 He  0  0  0  0  0  0  0  0  0  0  0  0
    4.7937    9.0641   19.3336 He  0  0  0  0  0  0  0  0  0  0  0  0
    8.2214    5.8793   16.4134 He  0  0  0  0  0  0  0  0  0  0  0  0
    7.2310    6.9793   15.8910 He  0  0  0  0  0  0  0  0  0  0  0  0
    8.2177    8.1417   19.7000 He  0  0  0  0  0  0  0  0  0  0  0  0
    6.0649    9.1978   20.6667 He  0  0  0  0  0  0  0  0  0  0  0  0
  1  2  4  0
  1  7  1  0
  1  8  2  0
  1 17  4  0
  2  4  4  0
  2  9  1  0
  2 10  1  0
  2 12  3  0
  2 13  3  0
  2 15  1  0
  2 16  4  0
  2 18  2  0
  3  8  3  0
  3  9  3  0
  3 13  1  0
  3 15  1  0
  4  5  2  0
  4  6  4  0
  4 14  3  0
  4 15  1  0
  4 18  4  0
  5  6  2  0
  5  7  4  0
  5  8  3  0
  5 11  1  0
  5 12  4  0
  5 13  2  0
  5 14  4  0
  6  7  1  0
  6  9  3  0
  6 10  4  0
  6 12  3  0
  6 14  1  0
  6 15  2  0
  6 18  2  0
  7 11  4  0
  7 12  4  0
  8 15  4  0
  8 19  1  0
  9 11  1  0
  9 12  2  0
 10 11  4  0
 10 12  1  0
 10 15  3  0
 10 16  4  0
 10 18  1  0
 11 12  3  0
 11 13  1  0
 11 15  1  0
 11 16  1  0
 11 18  4  0
 14 16  3  0
 14 18  2  0
 15 16  2  0
 15 18  3  0
 15 19  1  0
 17 18  2  0
M  END
$$$$

 Created by Python create_sdf_string function

 30 58  0  0  0  0  0  0  0  0999 V2000
    5.1183    8.3226   20.3761 C   0  0  0  0  0  0  0  0  0  0  0  0
    5.6164    5.8453   19.4740 Cl  0  0  0  0  0  0  0  0  0  0  0  0
    9.5410    7.5977   18.3095 Cl  0  0  0  0  0  0  0  0  0  0  0  0
    4.4118    7.1770   20.4579 P   0  0  0  0  0  0  0  0  0  0  0  0
    4.9555    7.9032   20.5277 N   0  0  0  0  0  0  0  0  0  0  0  0
    6.4544    6.3626   19.5145 C   0  0  0  0  0  0  0  0  0  0  0  0
   11.9919    5.4880   18.5867 C   0  0  0  0  0  0  0  0  0  0  0  0
   11.7579    6.9722   23.6015 F   0  0  0  0  0  0  0  0  0  0  0  0
    7.1345    8.0467   19.5606 C   0  0  0  0  0  0  0  0  0  0  0  0
   10.9022    5.7858   19.9382 O   0  0  0  0  0  0  0  0  0  0  0  0
    9.9697    6.6291   20.6148 C   0  0  0  0  0  0  0  0  0  0  0  0
   10.2254    7.6530   17.1897 F   0  0  0  0  0  0  0  0  0  0  0  0
   12.4112    6.2376   16.2525 C   0  0  0  0  0  0  0  0  0  0  0  0
    8.1567    8.0373   16.9766 C   0  0  0  0  0  0  0  0  0  0  0  0
    7.4040   10.2668   20.4126 F   0  0  0  0  0  0  0  0  0  0  0  0
    6.7483    8.7527   17.8143 N   0  0  0  0  0  0  0  0  0  0  0  0
    9.9920    5.8489   17.2326 C   0  0  0  0  0  0  0  0  0  0  0  0
   11.2422    6.5973   21.2304 C   0  0  0  0  0  0  0  0  0  0  0  0
    5.2323    9.4953   21.0888 C   0  0  0  0  0  0  0  0  0  0  0  0
    8.8140    7.4229   15.4478 C   0  0  0  0  0  0  0  0  0  0  0  0
    3.9857    7.1904   20.7082 He  0  0  0  0  0  0  0  0  0  0  0  0
    3.1233    8.2177   21.4387 He  0  0  0  0  0  0  0  0  0  0  0  0
    4.2420    6.4745   18.7814 He  0  0  0  0  0  0  0  0  0  0  0  0
    9.3681    3.8176   19.2843 He  0  0  0  0  0  0  0  0  0  0  0  0
   10.5614    5.0488   16.2362 He  0  0  0  0  0  0  0  0  0  0  0  0
    8.7986    8.3600   17.1405 He  0  0  0  0  0  0  0  0  0  0  0  0
    8.5859    7.4734   20.1618 He  0  0  0  0  0  0  0  0  0  0  0  0
   10.9071    7.6187   21.6279 He  0  0  0  0  0  0  0  0  0  0  0  0
    6.9783   10.1674   20.8742 He  0  0  0  0  0  0  0  0  0  0  0  0
   10.2877    6.1134   21.4587 He  0  0  0  0  0  0  0  0  0  0  0  0
  1  2  3  0
  1  6  3  0
  1  7  2  0
  1  9  1  0
  1 16  1  0
  1 17  1  0
  1 18  1  0
  1 19  1  0
  2  4  1  0
  2  5  1  0
  2 11  4  0
  2 20  4  0
  3  5  3  0
  3  6  3  0
  3 12  1  0
  3 13  3  0
  3 14  4  0
  3 18  1  0
  4  6  2  0
  4  8  2  0
  4  9  4  0
  4 10  4  0
  4 11  4  0
  4 17  2  0
  4 20  1  0
  5 11  4  0
  6 14  1  0
  6 15  4  0
  6 19  4  0
  7 13  3  0
  7 14  1  0
  8 13  3  0
  8 14  3  0
  8 15  2  0
  8 16  4  0
  8 18  4  0
  9 10  4  0
  9 11  4  0
  9 14  3  0
  9 19  1  0
 10 12  4  0
 10 14  4  0
 10 18  3  0
 10 20  3  0
 11 18  2  0
 11 19  1  0
 11 20  2  0
 12 18  1  0
 12 20  3  0
 13 15  2  0
 13 16  3  0
 13 18  4  0
 14 16  2  0
 14 19  4  0
 15 17  4  0
 15 19  2  0
 17 18  1  0
 17 20  1  0
M  END
$$$$

 Created by Python create_sdf_string function

 30 61  0  0  0  0  0  0  0  0999 V2000
    3.9578    5.3221   20.7074 I   0  0  0  0  0  0  0  0  0  0  0  0
    3.9686    8.3224   19.7432 B   0  0  0  0  0  0  0  0  0  0  0  0
    5.4531    5.8261   20.2382 N   0  0  0  0  0  0  0  0  0  0  0  0
    9.8914    8.4214   17.8169 C   0  0  0  0  0  0  0  0  0  0  0  0
    2.3345    7.8126   22.2459 C   0  0  0  0  0  0  0  0  0  0  0  0
   11.5856    7.3148   22.4017 O   0  0  0  0  0  0  0  0  0  0  0  0
    7.0779    7.6757   19.2183 C   0  0  0  0  0  0  0  0  0  0  0  0
   10.0588    4.8007   20.9642 C   0  0  0  0  0  0  0  0  0  0  0  0
   10.2020    7.5237   16.4272 N   0  0  0  0  0  0  0  0  0  0  0  0
   12.1661    5.1897   17.1894 C   0  0  0  0  0  0  0  0  0  0  0  0
    5.1668    5.6372   18.7101 C   0  0  0  0  0  0  0  0  0  0  0  0
    8.7140    9.0504   17.5218 O   0  0  0  0  0  0  0  0  0  0  0  0
    6.6959    8.4468   18.0971 C   0  0  0  0  0  0  0  0  0  0  0  0
   11.0451    7.0539   17.9624 F   0  0  0  0  0  0  0  0  0  0  0  0
   11.3481    6.4639   20.3217 C   0  0  0  0  0  0  0  0  0  0  0  0
    9.2536    5.4374   15.5831 P   0  0  0  0  0  0  0  0  0  0  0  0
    5.4160    8.5470   22.5957 C   0  0  0  0  0  0  0  0  0  0  0  0
    8.2449    6.0829   21.2805 F   0  0  0  0  0  0  0  0  0  0  0  0
    3.4000    7.5252   19.1689 He  0  0  0  0  0  0  0  0  0  0  0  0
    4.3707    9.1361   19.7240 He  0  0  0  0  0  0  0  0  0  0  0  0
    5.8013    6.0639   20.0709 He  0  0  0  0  0  0  0  0  0  0  0  0
   11.4455    5.3025   17.4472 He  0  0  0  0  0  0  0  0  0  0  0  0
   10.0838    5.5350   19.3239 He  0  0  0  0  0  0  0  0  0  0  0  0
    9.3435    5.3238   19.6997 He  0  0  0  0  0  0  0  0  0  0  0  0
    7.9946    9.7905   21.6952 He  0  0  0  0  0  0  0  0  0  0  0  0
    8.9577    7.4429   16.9240 He  0  0  0  0  0  0  0  0  0  0  0  0
    7.7995    7.6967   16.8402 He  0  0  0  0  0  0  0  0  0  0  0  0
   12.5474    6.6108   22.6510 He  0  0  0  0  0  0  0  0  0  0  0  0
    6.9736   10.7807   21.5037 He  0  0  0  0  0  0  0  0  0  0  0  0
   10.2146    5.8410   23.5404 He  0  0  0  0  0  0  0  0  0  0  0  0
  1  2  1  0
  1  3  4  0
  1  5  2  0
  1 10  1  0
  1 13  2  0
  1 18  3  0
  2  3  4  0
  2  4  3  0
  2  6  1  0
  2  7  2  0
  2 10  3  0
  2 12  4  0
  2 17  1  0
  2 18  1  0
  3  4  3  0
  3  7  1  0
  3  9  3  0
  3 11  4  0
  3 12  2  0
  3 13  2  0
  3 14  4  0
  3 15  4  0
  4  7  1  0
  4  8  3  0
  4 13  4  0
  4 14  1  0
  4 15  2  0
  5  6  2  0
  5  7  2  0
  5  9  1  0
  5 12  3  0
  5 14  3  0
  5 15  4  0
  6  8  4  0
  6 10  2  0
  6 18  4  0
  7  8  1  0
  7 10  3  0
  7 12  2  0
  7 14  3  0
  9 11  3  0
  9 13  3  0
  9 15  2  0
  9 18  1  0
 10 16  1  0
 10 18  2  0
 11 12  4  0
 11 13  4  0
 11 14  2  0
 11 15  3  0
 11 18  4  0
 12 14  3  0
 12 15  3  0
 12 16  2  0
 12 17  1  0
 13 14  2  0
 13 16  2  0
 13 18  2  0
 14 15  1  0
 14 16  1  0
 15 16  4  0
M  END
$$$$

 Created by Python create_sdf_string function

 30 67  0  0  0  0  0  0  0  0999 V2000
    4.4725    8.4244   19.4874 O   0  0  0  0  0  0  0  0  0  0  0  0
    6.1958    6.9234   19.3989 P   0  0  0  0  0  0  0  0  0  0  0  0
    3.7992    6.9219   19.9480 P   0  0  0  0  0  0  0  0  0  0  0  0
    2.6582    6.8337   21.7247 C   0  0  0  0  0  0  0  0  0  0  0  0
    3.9837    7.6434   19.6193 N   0  0  0  0  0  0  0  0  0  0  0  0
    6.9769    5.9394   20.5918 F   0  0  0  0  0  0  0  0  0  0  0  0
    9.9598    7.1050   17.4132 F   0  0  0  0  0  0  0  0  0  0  0  0
   10.3956    7.7308   23.0240 S   0  0  0  0  0  0  0  0  0  0  0  0
    9.8692    6.8959   18.9934 C   0  0  0  0  0  0  0  0  0  0  0  0
    9.6540    7.2362   18.4521 C   0  0  0  0  0  0  0  0  0  0  0  0
   12.5555    4.6318   16.6182 C   0  0  0  0  0  0  0  0  0  0  0  0
    6.1747    6.2565   17.8165 C   0  0  0  0  0  0  0  0  0  0  0  0
    8.0457    9.1304   15.8819 C   0  0  0  0  0  0  0  0  0  0  0  0
    5.8264   10.1584   21.5159 C   0  0  0  0  0  0  0  0  0  0  0  0
    5.9817    8.3943   18.0650 C   0  0  0  0  0  0  0  0  0  0  0  0
   11.8827    4.6088   21.2495 N   0  0  0  0  0  0  0  0  0  0  0  0
    9.8084    5.3371   16.9663 N   0  0  0  0  0  0  0  0  0  0  0  0
    9.0893    7.9567   17.2052 C   0  0  0  0  0  0  0  0  0  0  0  0
    7.6750    5.9027   19.8563 N   0  0  0  0  0  0  0  0  0  0  0  0
    6.6269    8.5043   22.2585 N   0  0  0  0  0  0  0  0  0  0  0  0
    5.2036    5.8587   20.2222 He  0  0  0  0  0  0  0  0  0  0  0  0
    8.8810    8.5261   16.7722 He  0  0  0  0  0  0  0  0  0  0  0  0
    6.8851    8.7811   18.8509 He  0  0  0  0  0  0  0  0  0  0  0  0
    9.7380    5.1711   20.9358 He  0  0  0  0  0  0  0  0  0  0  0  0
    9.8881    6.2836   20.6710 He  0  0  0  0  0  0  0  0  0  0  0  0
   11.8762    8.2623   16.9281 He  0  0  0  0  0  0  0  0  0  0  0  0
    5.5813    8.5828   21.3570 He  0  0  0  0  0  0  0  0  0  0  0  0
    8.3935    7.8881   17.7952 He  0  0  0  0  0  0  0  0  0  0  0  0
   10.8463    5.9633   22.3844 He  0  0  0  0  0  0  0  0  0  0  0  0
   12.2790    6.3145   22.4767 He  0  0  0  0  0  0  0  0  0  0  0  0
  1  5  2  0
  1 10  2  0
  1 11  2  0
  1 14  2  0
  2  5  1  0
  2  6  4  0
  2  9  3  0
  2 13  2  0
  2 16  3  0
  2 17  4  0
  3  8  4  0
  3 10  4  0
  3 11  4  0
  3 13  3  0
  3 18  2  0
  4  7  4  0
  4  9  1  0
  4 11  2  0
  4 14  1  0
  4 15  3  0
  4 18  1  0
  5  8  3  0
  5 10  1  0
  5 11  2  0
  5 14  2  0
  6  8  1  0
  6 14  1  0
  6 20  2  0
  7  8  4  0
  7  9  2  0
  7 11  4  0
  7 18  2  0
  8 12  2  0
  8 15  1  0
  8 17  4  0
  8 18  2  0
  9 10  3  0
  9 14  1  0
  9 16  1  0
  9 20  3  0
 10 12  4  0
 10 13  4  0
 10 14  1  0
 10 16  2  0
 10 18  2  0
 11 14  4  0
 11 16  3  0
 11 19  4  0
 12 15  2  0
 12 16  1  0
 12 18  4  0
 12 19  2  0
 13 14  4  0
 13 16  3  0
 13 18  4  0
 13 20  2  0
 14 15  3  0
 14 18  4  0
 14 19  3  0
 14 20  2  0
 15 16  1  0
 15 17  1  0
 15 19  2  0
 15 20  3  0
 16 18  3  0
 16 20  4  0
 17 20  2  0
M  END
$$$$

 Created by Python create_sdf_string function

 30 38  0  0  0  0  0  0  0  0999 V2000
    8.5355    7.5199   16.4839 F   0  0  0  0  0  0  0  0  0  0  0  0
   11.1188    7.9193   23.2471 C   0  0  0  0  0  0  0  0  0  0  0  0
    7.9862    9.3295   18.6257 N   0  0  0  0  0  0  0  0  0  0  0  0
   10.3257    6.6761   19.6884 C   0  0  0  0  0  0  0  0  0  0  0  0
   10.9064    4.6724   20.3278 S   0  0  0  0  0  0  0  0  0  0  0  0
    9.2414    7.2583   17.8433 Br  0  0  0  0  0  0  0  0  0  0  0  0
    5.9373    8.5170   16.8187 C   0  0  0  0  0  0  0  0  0  0  0  0
    6.5884   10.0307   21.4125 C   0  0  0  0  0  0  0  0  0  0  0  0
   10.5617    7.4982   15.8665 F   0  0  0  0  0  0  0  0  0  0  0  0
    5.9292    7.6535   21.3025 C   0  0  0  0  0  0  0  0  0  0  0  0
    8.4730    7.9343   18.2474 F   0  0  0  0  0  0  0  0  0  0  0  0
    8.0143    8.1815   16.2167 C   0  0  0  0  0  0  0  0  0  0  0  0
   11.6449    5.9625   23.1108 C   0  0  0  0  0  0  0  0  0  0  0  0
   11.9914    6.2794   21.6514 C   0  0  0  0  0  0  0  0  0  0  0  0
    3.1821    6.2337   19.3232 He  0  0  0  0  0  0  0  0  0  0  0  0
    5.1653    9.6671   21.0550 He  0  0  0  0  0  0  0  0  0  0  0  0
    5.0734    7.3329   20.5871 He  0  0  0  0  0  0  0  0  0  0  0  0
    3.8993    6.8648   21.0578 He  0  0  0  0  0  0  0  0  0  0  0  0
    3.4880    7.6888   21.6039 He  0  0  0  0  0  0  0  0  0  0  0  0
    4.0795    8.7326   21.1304 He  0  0  0  0  0  0  0  0  0  0  0  0
    8.7752    7.4468   20.2785 He  0  0  0  0  0  0  0  0  0  0  0  0
    9.4834    6.7892   17.6227 He  0  0  0  0  0  0  0  0  0  0  0  0
   13.3141    5.0921   17.2287 He  0  0  0  0  0  0  0  0  0  0  0  0
   10.6770    8.7889   16.0947 He  0  0  0  0  0  0  0  0  0  0  0  0
    9.8631    4.6287   20.6771 He  0  0  0  0  0  0  0  0  0  0  0  0
    6.9363    7.6508   19.1433 He  0  0  0  0  0  0  0  0  0  0  0  0
   12.3017    4.7622   21.2018 He  0  0  0  0  0  0  0  0  0  0  0  0
   10.4299    5.2204   17.2419 He  0  0  0  0  0  0  0  0  0  0  0  0
    7.7046    6.3889   20.0362 He  0  0  0  0  0  0  0  0  0  0  0  0
    6.1238    7.6113   21.4785 He  0  0  0  0  0  0  0  0  0  0  0  0
  1  3  3  0
  1  4  2  0
  1  6  1  0
  1 12  4  0
  1 14  2  0
  2  3  2  0
  2  4  4  0
  2  7  1  0
  2  8  1  0
  2  9  4  0
  2 10  2  0
  2 12  4  0
  2 13  4  0
  3  4  1  0
  3 10  4  0
  3 14  4  0
  4  9  3  0
  4 10  3  0
  4 11  4  0
  4 12  3  0
  4 13  4  0
  5  6  1  0
  5 11  4  0
  6 11  1  0
  6 13  2  0
  7  8  1  0
  7  9  2  0
  7 11  2  0
  7 12  1  0
  8  9  3  0
  8 10  4  0
  8 11  2  0
  9 11  2  0
  9 13  4  0
  9 14  1  0
 10 13  3  0
 12 13  3  0
 13 14  1  0
M  END
$$$$

 Created by Python create_sdf_string function

 30 50  0  0  0  0  0  0  0  0999 V2000
    4.6037    5.9109   19.7825 C   0  0  0  0  0  0  0  0  0  0  0  0
    3.2894    6.7556   21.3901 P   0  0  0  0  0  0  0  0  0  0  0  0
    3.2280    7.5720   20.6399 S   0  0  0  0  0  0  0  0  0  0  0  0
    7.9119    7.2923   19.6351 C   0  0  0  0  0  0  0  0  0  0  0  0
   10.8696    7.0608   21.3141 C   0  0  0  0  0  0  0  0  0  0  0  0
    7.1201    8.7793   18.2965 O   0  0  0  0  0  0  0  0  0  0  0  0
    9.3930    5.6689   19.5048 I   0  0  0  0  0  0  0  0  0  0  0  0
   11.4429    5.1734   20.6304 P   0  0  0  0  0  0  0  0  0  0  0  0
   11.3079    6.4245   18.5236 C   0  0  0  0  0  0  0  0  0  0  0  0
   10.5416    8.1260   16.7125 C   0  0  0  0  0  0  0  0  0  0  0  0
    6.1083    8.7358   19.1253 C   0  0  0  0  0  0  0  0  0  0  0  0
    5.8488    8.9406   20.1992 C   0  0  0  0  0  0  0  0  0  0  0  0
   10.9427    6.5918   17.0081 C   0  0  0  0  0  0  0  0  0  0  0  0
   11.9771    4.5122   21.2827 N   0  0  0  0  0  0  0  0  0  0  0  0
    7.0235    7.0430   20.2990 C   0  0  0  0  0  0  0  0  0  0  0  0
    9.0959    7.6626   17.1521 O   0  0  0  0  0  0  0  0  0  0  0  0
   10.1989    7.6027   23.2372 C   0  0  0  0  0  0  0  0  0  0  0  0
    7.2395    8.0739   23.0341 O   0  0  0  0  0  0  0  0  0  0  0  0
    6.2052    9.2871   21.9945 He  0  0  0  0  0  0  0  0  0  0  0  0
    5.3892    7.6253   18.5965 He  0  0  0  0  0  0  0  0  0  0  0  0
   10.6402    7.9937   17.4123 He  0  0  0  0  0  0  0  0  0  0  0  0
    4.3329    7.9442   21.4681 He  0  0  0  0  0  0  0  0  0  0  0  0
   10.3111    6.8309   15.6482 He  0  0  0  0  0  0  0  0  0  0  0  0
   14.1340    4.5574   18.4994 He  0  0  0  0  0  0  0  0  0  0  0  0
    7.1781    8.5400   18.7857 He  0  0  0  0  0  0  0  0  0  0  0  0
   11.4504    4.5835   22.1690 He  0  0  0  0  0  0  0  0  0  0  0  0
   10.5040    3.9466   18.0725 He  0  0  0  0  0  0  0  0  0  0  0  0
    8.6228    8.6226   17.7472 He  0  0  0  0  0  0  0  0  0  0  0  0
    8.5196    6.4376   19.1312 He  0  0  0  0  0  0  0  0  0  0  0  0
   11.7012    6.7382   21.8440 He  0  0  0  0  0  0  0  0  0  0  0  0
  1  8  4  0
  1 10  2  0
  1 13  3  0
  1 14  2  0
  2 13  3  0
  2 14  4  0
  3  5  2  0
  3  7  2  0
  3 10  4  0
  3 11  4  0
  4  5  3  0
  4  6  4  0
  4  7  2  0
  4 11  3  0
  4 13  4  0
  4 14  1  0
  4 15  3  0
  4 17  1  0
  5  8  4  0
  5  9  3  0
  5 11  3  0
  5 17  3  0
  6  7  3  0
  6  9  1  0
  6 10  4  0
  6 11  3  0
  6 14  2  0
  6 18  4  0
  7  9  4  0
  7 11  2  0
  7 15  1  0
  7 18  1  0
  8 15  3  0
  9 10  1  0
  9 11  1  0
 10 13  3  0
 10 14  4  0
 10 15  4  0
 10 17  2  0
 11 12  4  0
 11 16  3  0
 11 17  4  0
 11 18  1  0
 12 14  4  0
 12 16  1  0
 13 15  4  0
 13 17  3  0
 15 17  2  0
 16 18  1  0
 17 18  1  0
M  END
$$$$

 Created by Python create_sdf_string function

 30 39  0  0  0  0  0  0  0  0999 V2000
    5.7457    9.1054   21.1124 Cl  0  0  0  0  0  0  0  0  0  0  0  0
    9.9092    7.4650   18.6323 C   0  0  0  0  0  0  0  0  0  0  0  0
    7.0990    8.8002   19.4390 N   0  0  0  0  0  0  0  0  0  0  0  0
   10.0608    6.2194   14.9249 O   0  0  0  0  0  0  0  0  0  0  0  0
    9.3250    6.6189   18.6444 I   0  0  0  0  0  0  0  0  0  0  0  0
   11.2539    7.0391   17.1579 F   0  0  0  0  0  0  0  0  0  0  0  0
    6.4654   10.6029   18.8679 N   0  0  0  0  0  0  0  0  0  0  0  0
   10.9257    9.5731   17.7422 C   0  0  0  0  0  0  0  0  0  0  0  0
   12.6218    4.1466   21.5697 N   0  0  0  0  0  0  0  0  0  0  0  0
   11.2249    2.9926   22.0532 F   0  0  0  0  0  0  0  0  0  0  0  0
   11.4690    4.1700   18.4751 O   0  0  0  0  0  0  0  0  0  0  0  0
    9.7313    8.1270   16.7709 C   0  0  0  0  0  0  0  0  0  0  0  0
   10.0258    8.5995   15.4300 S   0  0  0  0  0  0  0  0  0  0  0  0
    9.9901    5.8435   20.6091 C   0  0  0  0  0  0  0  0  0  0  0  0
    8.0057    8.2429   21.6978 C   0  0  0  0  0  0  0  0  0  0  0  0
    6.6696    7.4406   22.9484 P   0  0  0  0  0  0  0  0  0  0  0  0
    4.8443    4.8754   19.0357 He  0  0  0  0  0  0  0  0  0  0  0  0
    4.7470    7.7364   18.0628 He  0  0  0  0  0  0  0  0  0  0  0  0
    4.8915    6.6521   21.2372 He  0  0  0  0  0  0  0  0  0  0  0  0
    4.5799    7.3563   22.5200 He  0  0  0  0  0  0  0  0  0  0  0  0
    4.2622    7.3119   21.5600 He  0  0  0  0  0  0  0  0  0  0  0  0
   11.0924    7.3465   22.5672 He  0  0  0  0  0  0  0  0  0  0  0  0
    5.2196    7.5057   18.0280 He  0  0  0  0  0  0  0  0  0  0  0  0
   10.1923    4.3568   21.2229 He  0  0  0  0  0  0  0  0  0  0  0  0
   13.2621    5.2585   20.8825 He  0  0  0  0  0  0  0  0  0  0  0  0
    6.7344    9.4530   18.1792 He  0  0  0  0  0  0  0  0  0  0  0  0
    5.8615    7.9096   19.8978 He  0  0  0  0  0  0  0  0  0  0  0  0
   10.8828    6.9680   17.9148 He  0  0  0  0  0  0  0  0  0  0  0  0
    6.4879    7.0817   20.8104 He  0  0  0  0  0  0  0  0  0  0  0  0
   11.9829    7.0816   22.5007 He  0  0  0  0  0  0  0  0  0  0  0  0
  1  4  2  0
  1  5  4  0
  1 10  3  0
  1 11  1  0
  1 12  3  0
  1 13  1  0
  2 12  3  0
  2 15  2  0
  3  9  2  0
  3 14  4  0
  3 15  4  0
  3 16  3  0
  4  5  3  0
  4  9  1  0
  4 12  2  0
  4 13  4  0
  4 14  4  0
  5  9  3  0
  5 12  3  0
  6  7  2  0
  6  9  3  0
  6 10  3  0
  6 12  2  0
  7  9  2  0
  7 12  4  0
  7 16  2  0
  8  9  3  0
  8 11  3  0
  8 12  1  0
  8 16  2  0
  9 10  3  0
  9 14  1  0
 10 13  2  0
 10 16  1  0
 11 14  3  0
 11 16  4  0
 12 13  3  0
 12 14  2  0
 13 15  1  0
M  END
$$$$

 Created by Python create_sdf_string function

 30 72  0  0  0  0  0  0  0  0999 V2000
    4.4982    6.5978   18.4093 I   0  0  0  0  0  0  0  0  0  0  0  0
    6.6931    9.8775   20.3973 C   0  0  0  0  0  0  0  0  0  0  0  0
    5.2415    7.6214   21.4062 N   0  0  0  0  0  0  0  0  0  0  0  0
    4.6092    6.7321   21.4126 C   0  0  0  0  0  0  0  0  0  0  0  0
    6.6570    7.6295   18.3188 N   0  0  0  0  0  0  0  0  0  0  0  0
   11.9146    6.2244   22.2134 C   0  0  0  0  0  0  0  0  0  0  0  0
    5.5086    6.5885   18.3064 Cl  0  0  0  0  0  0  0  0  0  0  0  0
    9.4797    7.0010   18.7760 P   0  0  0  0  0  0  0  0  0  0  0  0
   10.7008    7.0930   16.3697 F   0  0  0  0  0  0  0  0  0  0  0  0
   13.1207    5.0008   18.5620 N   0  0  0  0  0  0  0  0  0  0  0  0
    5.4104   10.1791   18.4484 O   0  0  0  0  0  0  0  0  0  0  0  0
   10.5041    8.4203   19.0356 C   0  0  0  0  0  0  0  0  0  0  0  0
   11.6328    3.9420   21.0204 S   0  0  0  0  0  0  0  0  0  0  0  0
    7.6197    9.6973   17.7681 C   0  0  0  0  0  0  0  0  0  0  0  0
    5.3131    9.2212   20.3824 S   0  0  0  0  0  0  0  0  0  0  0  0
   10.7410    6.8118   18.6410 C   0  0  0  0  0  0  0  0  0  0  0  0
   13.2102    4.4940   22.3290 P   0  0  0  0  0  0  0  0  0  0  0  0
   12.1391    4.7382   17.7342 Se  0  0  0  0  0  0  0  0  0  0  0  0
    7.0170    6.0875   20.8869 S   0  0  0  0  0  0  0  0  0  0  0  0
    9.1391    9.0996   15.5967 I   0  0  0  0  0  0  0  0  0  0  0  0
   12.1542    6.4861   19.4096 P   0  0  0  0  0  0  0  0  0  0  0  0
    7.3089    7.3054   21.5414 N   0  0  0  0  0  0  0  0  0  0  0  0
    6.9730    8.1554   23.4218 F   0  0  0  0  0  0  0  0  0  0  0  0
    4.1670    6.8754   17.7401 He  0  0  0  0  0  0  0  0  0  0  0  0
    9.3222    7.3575   19.6563 He  0  0  0  0  0  0  0  0  0  0  0  0
    4.8615    7.8099   23.4789 He  0  0  0  0  0  0  0  0  0  0  0  0
    8.6459    7.2186   16.3417 He  0  0  0  0  0  0  0  0  0  0  0  0
    8.9840    4.5032   21.6326 He  0  0  0  0  0  0  0  0  0  0  0  0
    9.5854    8.3243   16.6022 He  0  0  0  0  0  0  0  0  0  0  0  0
   11.2165    6.7066   23.3626 He  0  0  0  0  0  0  0  0  0  0  0  0
  1 11  3  0
  1 13  4  0
  1 20  2  0
  1 21  3  0
  1 22  4  0
  2  5  2  0
  2 18  3  0
  2 22  3  0
  3  8  2  0
  3 11  2  0
  3 15  3  0
  3 22  1  0
  3 23  4  0
  4  8  2  0
  4 13  3  0
  4 15  2  0
  4 17  3  0
  4 20  1  0
  5 11  2  0
  5 12  3  0
  5 14  3  0
  5 18  4  0
  5 19  4  0
  5 20  1  0
  5 23  2  0
  6  7  2  0
  6 10  1  0
  6 12  1  0
  6 16  3  0
  6 17  3  0
  6 18  3  0
  6 19  1  0
  6 23  4  0
  7 10  3  0
  7 13  4  0
  7 17  2  0
  8 10  4  0
  8 13  4  0
  8 14  2  0
  8 19  1  0
  8 22  2  0
  8 23  3  0
  9 15  1  0
  9 16  4  0
  9 19  2  0
  9 20  2  0
  9 22  1  0
 10 12  1  0
 10 13  4  0
 10 14  4  0
 10 18  1  0
 10 20  2  0
 10 21  4  0
 10 23  1  0
 11 14  1  0
 11 23  1  0
 12 15  1  0
 12 21  3  0
 14 18  2  0
 14 21  4  0
 14 23  4  0
 15 16  3  0
 15 18  1  0
 15 19  1  0
 15 21  2  0
 16 18  3  0
 17 20  2  0
 17 21  2  0
 18 19  2  0
 18 23  3  0
 19 23  3  0
 20 23  3  0
M  END
$$$$

 Created by Python create_sdf_string function

 30 40  0  0  0  0  0  0  0  0999 V2000
    3.8928    7.7484   17.4172 O   0  0  0  0  0  0  0  0  0  0  0  0
    5.5206    8.6141   21.2509 C   0  0  0  0  0  0  0  0  0  0  0  0
    4.7989    6.9239   21.0054 I   0  0  0  0  0  0  0  0  0  0  0  0
   11.3229    5.1637   22.1618 C   0  0  0  0  0  0  0  0  0  0  0  0
    6.0993    6.7446   20.4610 C   0  0  0  0  0  0  0  0  0  0  0  0
    9.4811    5.2747   22.7866 C   0  0  0  0  0  0  0  0  0  0  0  0
    8.5307    8.2696   19.7543 Se  0  0  0  0  0  0  0  0  0  0  0  0
   11.7467    5.0166   20.3580 C   0  0  0  0  0  0  0  0  0  0  0  0
    7.3968    8.4989   17.9116 C   0  0  0  0  0  0  0  0  0  0  0  0
    6.0505    9.6933   19.6622 F   0  0  0  0  0  0  0  0  0  0  0  0
   11.9046    5.5204   18.5452 C   0  0  0  0  0  0  0  0  0  0  0  0
   13.4312    5.2635   22.2520 N   0  0  0  0  0  0  0  0  0  0  0  0
    6.6058    7.7655   19.9742 N   0  0  0  0  0  0  0  0  0  0  0  0
   10.0621    8.0218   16.6112 C   0  0  0  0  0  0  0  0  0  0  0  0
    8.4360    7.9902   17.9896 C   0  0  0  0  0  0  0  0  0  0  0  0
    5.1969    6.0745   17.9240 He  0  0  0  0  0  0  0  0  0  0  0  0
    6.2317    7.4736   22.5383 He  0  0  0  0  0  0  0  0  0  0  0  0
    7.4841    6.2917   20.0641 He  0  0  0  0  0  0  0  0  0  0  0  0
    5.8566    6.8196   23.8539 He  0  0  0  0  0  0  0  0  0  0  0  0
    6.9160    7.7968   17.7719 He  0  0  0  0  0  0  0  0  0  0  0  0
    9.3827    5.6311   17.1522 He  0  0  0  0  0  0  0  0  0  0  0  0
    9.1986    7.3320   19.2041 He  0  0  0  0  0  0  0  0  0  0  0  0
   10.2214    6.6680   17.8592 He  0  0  0  0  0  0  0  0  0  0  0  0
   12.3959    5.3026   17.9973 He  0  0  0  0  0  0  0  0  0  0  0  0
    6.5643    8.4104   18.0614 He  0  0  0  0  0  0  0  0  0  0  0  0
   10.7446    5.7566   18.2015 He  0  0  0  0  0  0  0  0  0  0  0  0
   12.7983    5.8099   18.8908 He  0  0  0  0  0  0  0  0  0  0  0  0
    6.8169    9.4641   21.7751 He  0  0  0  0  0  0  0  0  0  0  0  0
    7.2165    8.4424   24.9771 He  0  0  0  0  0  0  0  0  0  0  0  0
   11.1285    6.9404   22.6884 He  0  0  0  0  0  0  0  0  0  0  0  0
  1  3  2  0
  1  4  2  0
  1  5  3  0
  1  7  2  0
  1 14  4  0
  2  8  1  0
  2  9  4  0
  2 13  1  0
  3  7  2  0
  3  9  3  0
  3 10  2  0
  3 13  4  0
  3 14  4  0
  4  6  4  0
  4  9  3  0
  4 11  1  0
  4 13  2  0
  4 14  1  0
  4 15  2  0
  5  6  4  0
  5  8  2  0
  5 10  2  0
  5 11  4  0
  5 14  1  0
  5 15  3  0
  6  7  3  0
  7  9  2  0
  7 10  3  0
  7 12  3  0
  7 15  4  0
  8 11  2  0
  8 12  4  0
  9 10  2  0
  9 12  3  0
 10 13  4  0
 11 12  3  0
 11 13  4  0
 11 14  3  0
 11 15  4  0
 12 14  2  0
M  END
$$$$

 Created by Python create_sdf_string function

 30 59  0  0  0  0  0  0  0  0999 V2000
    5.6978    6.8718   22.4334 Cl  0  0  0  0  0  0  0  0  0  0  0  0
    4.1324    7.9717   18.7315 O   0  0  0  0  0  0  0  0  0  0  0  0
    5.8082    8.3638   22.0373 C   0  0  0  0  0  0  0  0  0  0  0  0
    6.0041    7.0048   23.5276 C   0  0  0  0  0  0  0  0  0  0  0  0
    5.1195    7.1877   21.0695 C   0  0  0  0  0  0  0  0  0  0  0  0
    6.7640    6.2421   17.9892 I   0  0  0  0  0  0  0  0  0  0  0  0
   10.0599    6.9277   18.4600 C   0  0  0  0  0  0  0  0  0  0  0  0
    9.8768    5.1893   21.3238 C   0  0  0  0  0  0  0  0  0  0  0  0
    9.1714    6.5275   20.8004 C   0  0  0  0  0  0  0  0  0  0  0  0
   13.1852    6.5502   16.9561 F   0  0  0  0  0  0  0  0  0  0  0  0
    7.1453    8.5917   18.2113 C   0  0  0  0  0  0  0  0  0  0  0  0
    8.6971    8.9686   20.4784 N   0  0  0  0  0  0  0  0  0  0  0  0
   11.7912    4.8610   19.8410 Se  0  0  0  0  0  0  0  0  0  0  0  0
   12.0398    6.1861   21.9993 P   0  0  0  0  0  0  0  0  0  0  0  0
   11.4542    6.0326   17.9641 F   0  0  0  0  0  0  0  0  0  0  0  0
    4.9779    7.2524   21.2826 C   0  0  0  0  0  0  0  0  0  0  0  0
    7.9575    8.1086   17.6303 I   0  0  0  0  0  0  0  0  0  0  0  0
   12.0512    4.8237   19.7824 N   0  0  0  0  0  0  0  0  0  0  0  0
    6.7787    9.2249   25.8367 C   0  0  0  0  0  0  0  0  0  0  0  0
   11.6705    4.0096   21.7065 Cl  0  0  0  0  0  0  0  0  0  0  0  0
    5.3125    5.5253   18.2341 He  0  0  0  0  0  0  0  0  0  0  0  0
    9.5629    6.9876   21.1347 He  0  0  0  0  0  0  0  0  0  0  0  0
    5.1081    6.1472   21.1192 He  0  0  0  0  0  0  0  0  0  0  0  0
    8.9693    5.8203   21.7699 He  0  0  0  0  0  0  0  0  0  0  0  0
   10.6764    5.7308   17.2822 He  0  0  0  0  0  0  0  0  0  0  0  0
   13.5328    5.2169   20.6335 He  0  0  0  0  0  0  0  0  0  0  0  0
    7.3475    9.3725   18.2629 He  0  0  0  0  0  0  0  0  0  0  0  0
    7.0536    9.5200   19.7370 He  0  0  0  0  0  0  0  0  0  0  0  0
    9.9336    8.2722   17.4737 He  0  0  0  0  0  0  0  0  0  0  0  0
    6.2024   10.1729   21.9222 He  0  0  0  0  0  0  0  0  0  0  0  0
  1  2  3  0
  1  4  3  0
  1  6  4  0
  1  8  1  0
  1 11  4  0
  1 13  3  0
  1 19  3  0
  2  6  2  0
  2  7  1  0
  2  9  1  0
  2 15  3  0
  3  4  3  0
  3  7  1  0
  3  8  4  0
  3  9  3  0
  3 11  1  0
  3 19  3  0
  3 20  3  0
  4  5  2  0
  4  7  2  0
  4  8  4  0
  4 15  1  0
  4 17  1  0
  5  6  1  0
  5  8  1  0
  5  9  2  0
  5 10  3  0
  5 11  1  0
  5 14  1  0
  5 16  1  0
  5 17  3  0
  5 20  1  0
  6 11  3  0
  6 13  1  0
  7 11  2  0
  7 18  4  0
  8  9  1  0
  8 14  3  0
  8 17  4  0
  8 19  2  0
  9 16  1  0
  9 19  2  0
 10 11  1  0
 10 12  2  0
 10 14  4  0
 11 12  2  0
 11 15  1  0
 11 20  4  0
 12 13  4  0
 12 15  1  0
 12 20  2  0
 13 14  3  0
 13 15  1  0
 13 18  4  0
 14 15  1  0
 14 17  4  0
 14 19  3  0
 15 16  1  0
 18 20  1  0
M  END
$$$$

 Created by Python create_sdf_string function

 30 69  0  0  0  0  0  0  0  0999 V2000
    7.0560    8.3873   22.9638 N   0  0  0  0  0  0  0  0  0  0  0  0
    4.8111    8.2798   19.0285 O   0  0  0  0  0  0  0  0  0  0  0  0
   10.3001    6.8904   21.5590 F   0  0  0  0  0  0  0  0  0  0  0  0
    6.5200    7.7685   21.7282 Cl  0  0  0  0  0  0  0  0  0  0  0  0
    5.5513    8.0645   22.7514 C   0  0  0  0  0  0  0  0  0  0  0  0
    6.6400    8.0467   20.0478 F   0  0  0  0  0  0  0  0  0  0  0  0
    6.2009    6.4507   17.7372 S   0  0  0  0  0  0  0  0  0  0  0  0
   10.2787    5.1825   21.1541 F   0  0  0  0  0  0  0  0  0  0  0  0
    4.6457    5.8935   19.6862 S   0  0  0  0  0  0  0  0  0  0  0  0
   10.3014    5.7770   21.2118 C   0  0  0  0  0  0  0  0  0  0  0  0
    7.2771    4.4536   22.9392 S   0  0  0  0  0  0  0  0  0  0  0  0
    9.9034    6.4968   17.3231 C   0  0  0  0  0  0  0  0  0  0  0  0
    7.8051    8.2073   20.0908 Cl  0  0  0  0  0  0  0  0  0  0  0  0
    7.1022    9.3761   20.4538 P   0  0  0  0  0  0  0  0  0  0  0  0
   12.1968    4.3660   21.3447 C   0  0  0  0  0  0  0  0  0  0  0  0
    7.1816    9.6108   18.3127 F   0  0  0  0  0  0  0  0  0  0  0  0
    8.9839    8.9247   19.1280 C   0  0  0  0  0  0  0  0  0  0  0  0
   12.3299    6.2122   17.5838 N   0  0  0  0  0  0  0  0  0  0  0  0
   10.7961    4.8274   18.5659 F   0  0  0  0  0  0  0  0  0  0  0  0
    6.8757   10.5600   22.8322 C   0  0  0  0  0  0  0  0  0  0  0  0
   10.7905    3.7188   22.1593 C   0  0  0  0  0  0  0  0  0  0  0  0
    5.5280    6.7825   18.8656 He  0  0  0  0  0  0  0  0  0  0  0  0
    9.5836    6.6909   18.2088 He  0  0  0  0  0  0  0  0  0  0  0  0
   11.5984    5.7864   17.9240 He  0  0  0  0  0  0  0  0  0  0  0  0
   11.1137    7.0087   20.2597 He  0  0  0  0  0  0  0  0  0  0  0  0
   12.6071    5.8115   23.3838 He  0  0  0  0  0  0  0  0  0  0  0  0
    5.1280    6.7566   19.8477 He  0  0  0  0  0  0  0  0  0  0  0  0
   10.2671    8.0488   18.3051 He  0  0  0  0  0  0  0  0  0  0  0  0
    8.4833    7.4598   17.2816 He  0  0  0  0  0  0  0  0  0  0  0  0
    7.1526    7.7544   25.3302 He  0  0  0  0  0  0  0  0  0  0  0  0
  1  2  3  0
  1  5  1  0
  1 10  2  0
  1 12  1  0
  1 15  2  0
  1 19  1  0
  2  3  3  0
  2  4  2  0
  2  6  4  0
  2 10  2  0
  2 11  4  0
  2 12  4  0
  2 13  3  0
  2 17  3  0
  2 18  4  0
  2 19  2  0
  3  4  2  0
  3  6  4  0
  3  8  1  0
  3 10  2  0
  3 14  1  0
  3 15  2  0
  3 18  4  0
  3 20  1  0
  4 12  4  0
  4 13  1  0
  4 14  4  0
  4 18  1  0
  5 14  4  0
  5 15  1  0
  5 20  3  0
  6 13  2  0
  6 16  3  0
  6 20  4  0
  7  9  4  0
  7 11  2  0
  7 12  3  0
  7 14  1  0
  7 16  1  0
  7 18  4  0
  8 13  2  0
  8 17  3  0
  8 20  3  0
  9 21  4  0
 10 12  4  0
 10 13  1  0
 10 21  3  0
 11 12  4  0
 11 17  2  0
 11 20  2  0
 12 16  1  0
 12 18  2  0
 12 21  1  0
 13 16  1  0
 14 16  2  0
 14 17  1  0
 14 20  2  0
 14 21  4  0
 15 17  1  0
 15 18  1  0
 15 19  1  0
 15 21  1  0
 16 18  2  0
 16 19  4  0
 17 20  3  0
 17 21  1  0
 18 20  2  0
 18 21  2  0
 19 20  3  0
M  END
$$$$

 Created by Python create_sdf_string function

 30 87  0  0  0  0  0  0  0  0999 V2000
    6.2922    6.9567   17.9872 N   0  0  0  0  0  0  0  0  0  0  0  0
    4.9520    7.9882   23.1609 B   0  0  0  0  0  0  0  0  0  0  0  0
    3.9477    7.4054   18.6679 O   0  0  0  0  0  0  0  0  0  0  0  0
   10.8687    6.6879   21.2153 N   0  0  0  0  0  0  0  0  0  0  0  0
    5.3527    7.8923   20.6544 F   0  0  0  0  0  0  0  0  0  0  0  0
    6.9019    5.5351   17.5457 F   0  0  0  0  0  0  0  0  0  0  0  0
    9.9514    7.4670   18.3167 B   0  0  0  0  0  0  0  0  0  0  0  0
   10.3267    5.8007   22.5838 O   0  0  0  0  0  0  0  0  0  0  0  0
   10.4890    4.8444   21.4265 S   0  0  0  0  0  0  0  0  0  0  0  0
    7.7746    5.9531   23.1616 S   0  0  0  0  0  0  0  0  0  0  0  0
    8.1460    7.8418   20.0303 C   0  0  0  0  0  0  0  0  0  0  0  0
    7.5769    9.1751   22.2513 O   0  0  0  0  0  0  0  0  0  0  0  0
   10.9783    3.4390   20.5737 N   0  0  0  0  0  0  0  0  0  0  0  0
    8.2614    8.9746   16.9927 F   0  0  0  0  0  0  0  0  0  0  0  0
    7.2035    8.4195   18.3983 C   0  0  0  0  0  0  0  0  0  0  0  0
   11.0079    6.4436   18.1640 F   0  0  0  0  0  0  0  0  0  0  0  0
   11.7051    5.2701   19.1312 C   0  0  0  0  0  0  0  0  0  0  0  0
    5.4442    6.6609   20.9205 C   0  0  0  0  0  0  0  0  0  0  0  0
   10.3579    8.1354   17.6373 C   0  0  0  0  0  0  0  0  0  0  0  0
   12.0123    3.7796   19.2692 C   0  0  0  0  0  0  0  0  0  0  0  0
    7.0203   10.3065   21.3854 C   0  0  0  0  0  0  0  0  0  0  0  0
    7.5180    9.0209   25.3926 O   0  0  0  0  0  0  0  0  0  0  0  0
   11.8753    5.7897   21.6049 C   0  0  0  0  0  0  0  0  0  0  0  0
    7.5023    7.4391   21.9146 He  0  0  0  0  0  0  0  0  0  0  0  0
    6.0095    7.7276   23.1751 He  0  0  0  0  0  0  0  0  0  0  0  0
    4.3847    5.8641   18.5849 He  0  0  0  0  0  0  0  0  0  0  0  0
   12.1434    7.5028   17.4812 He  0  0  0  0  0  0  0  0  0  0  0  0
   11.3791    7.0059   17.4874 He  0  0  0  0  0  0  0  0  0  0  0  0
   12.4015    5.4305   23.4164 He  0  0  0  0  0  0  0  0  0  0  0  0
    8.6138    9.0115   17.5754 He  0  0  0  0  0  0  0  0  0  0  0  0
  1  4  1  0
  1  5  1  0
  1  6  1  0
  1  7  2  0
  1 10  4  0
  1 16  4  0
  1 18  4  0
  1 22  3  0
  1 23  4  0
  2  3  1  0
  2  4  1  0
  2  5  3  0
  2  9  3  0
  2 10  2  0
  2 12  4  0
  2 15  2  0
  2 16  4  0
  2 19  2  0
  2 22  1  0
  3  6  4  0
  3  8  3  0
  3  9  4  0
  3 17  4  0
  3 19  3  0
  3 23  3  0
  4  6  3  0
  4  8  1  0
  4  9  4  0
  4 14  4  0
  4 18  2  0
  5  7  4  0
  5  8  3  0
  5 10  1  0
  5 17  3  0
  5 21  4  0
  5 22  3  0
  5 23  2  0
  6 10  4  0
  6 13  3  0
  6 19  4  0
  6 21  2  0
  6 23  4  0
  7  9  4  0
  7 12  4  0
  7 13  1  0
  7 20  2  0
  7 21  2  0
  7 22  3  0
  7 23  1  0
  8  9  1  0
  8 14  4  0
  8 15  3  0
  8 17  1  0
  8 19  3  0
  8 20  2  0
  9 10  1  0
  9 13  3  0
  9 15  4  0
  9 18  1  0
 10 11  4  0
 10 17  2  0
 10 21  3  0
 10 22  2  0
 11 18  2  0
 12 14  1  0
 12 15  3  0
 12 16  3  0
 12 17  4  0
 12 18  2  0
 12 21  3  0
 12 23  3  0
 13 14  1  0
 13 15  4  0
 13 18  3  0
 13 21  4  0
 13 23  3  0
 14 15  1  0
 14 19  3  0
 14 21  3  0
 15 17  2  0
 15 23  4  0
 17 21  1  0
 17 23  4  0
 19 22  2  0
 19 23  3  0
 20 23  1  0
 21 23  4  0
M  END
$$$$

 Created by Python create_sdf_string function

 30 52  0  0  0  0  0  0  0  0999 V2000
    6.5460    7.5871   23.1039 C   0  0  0  0  0  0  0  0  0  0  0  0
    5.2429    5.2182   18.8945 C   0  0  0  0  0  0  0  0  0  0  0  0
    8.9684    7.4793   17.9833 Cl  0  0  0  0  0  0  0  0  0  0  0  0
   11.4471    5.6774   22.7669 N   0  0  0  0  0  0  0  0  0  0  0  0
   10.1744    4.7266   20.4903 N   0  0  0  0  0  0  0  0  0  0  0  0
    9.4543    6.4748   21.8745 C   0  0  0  0  0  0  0  0  0  0  0  0
    8.6572    7.2822   20.6993 C   0  0  0  0  0  0  0  0  0  0  0  0
    6.3303    8.7741   22.6380 C   0  0  0  0  0  0  0  0  0  0  0  0
    7.5081    7.5854   17.7618 C   0  0  0  0  0  0  0  0  0  0  0  0
   12.7221    7.0625   17.5589 C   0  0  0  0  0  0  0  0  0  0  0  0
   12.5775    6.5578   22.1265 C   0  0  0  0  0  0  0  0  0  0  0  0
   11.4504    6.1516   19.6484 C   0  0  0  0  0  0  0  0  0  0  0  0
   10.2366    7.9704   17.9893 S   0  0  0  0  0  0  0  0  0  0  0  0
    9.1746    9.4577   18.1437 C   0  0  0  0  0  0  0  0  0  0  0  0
   10.6539    4.6985   18.6581 C   0  0  0  0  0  0  0  0  0  0  0  0
    8.2890    8.0222   22.8998 C   0  0  0  0  0  0  0  0  0  0  0  0
   12.3962    4.7474   21.1939 C   0  0  0  0  0  0  0  0  0  0  0  0
    6.2716    6.7699   17.1804 He  0  0  0  0  0  0  0  0  0  0  0  0
    6.9013    7.6525   23.0211 He  0  0  0  0  0  0  0  0  0  0  0  0
    3.5579    7.9521   19.5345 He  0  0  0  0  0  0  0  0  0  0  0  0
    9.5738    6.8147   22.3513 He  0  0  0  0  0  0  0  0  0  0  0  0
    6.5665    6.4106   21.3765 He  0  0  0  0  0  0  0  0  0  0  0  0
    6.3544    7.3526   20.1335 He  0  0  0  0  0  0  0  0  0  0  0  0
    4.7472    6.4408   19.0909 He  0  0  0  0  0  0  0  0  0  0  0  0
   11.3295    7.2623   17.5183 He  0  0  0  0  0  0  0  0  0  0  0  0
   10.7141    6.9054   17.8174 He  0  0  0  0  0  0  0  0  0  0  0  0
   10.9697    2.4775   21.5586 He  0  0  0  0  0  0  0  0  0  0  0  0
    8.4199    9.1179   16.1774 He  0  0  0  0  0  0  0  0  0  0  0  0
    6.3467    7.2548   21.6835 He  0  0  0  0  0  0  0  0  0  0  0  0
    7.5053    9.7227   22.3680 He  0  0  0  0  0  0  0  0  0  0  0  0
  1  2  2  0
  1  4  3  0
  1  8  4  0
  1 11  3  0
  1 12  2  0
  1 15  4  0
  2  3  3  0
  2  5  4  0
  2  8  4  0
  2 11  1  0
  2 14  2  0
  2 16  3  0
  2 17  3  0
  3  6  2  0
  3  7  1  0
  3  8  1  0
  3 13  1  0
  3 14  4  0
  3 15  4  0
  3 17  3  0
  4  5  2  0
  4  7  3  0
  4  8  4  0
  4 10  4  0
  4 14  1  0
  5 17  3  0
  6  8  3  0
  6 11  2  0
  6 12  3  0
  6 15  3  0
  7 10  1  0
  7 16  1  0
  8 10  4  0
  8 12  2  0
  8 13  3  0
  8 14  3  0
  9 14  2  0
  9 15  3  0
  9 17  4  0
 10 12  4  0
 10 13  4  0
 10 17  4  0
 11 13  4  0
 11 14  4  0
 11 15  4  0
 11 16  4  0
 12 13  3  0
 12 16  3  0
 12 17  1  0
 13 14  2  0
 14 16  1  0
 15 16  4  0
M  END
$$$$

 Created by Python create_sdf_string function

 30 57  0  0  0  0  0  0  0  0999 V2000
    5.8614    7.9017   24.0311 O   0  0  0  0  0  0  0  0  0  0  0  0
    4.2718    7.9465   19.3474 S   0  0  0  0  0  0  0  0  0  0  0  0
   10.0894    7.2002   22.3013 C   0  0  0  0  0  0  0  0  0  0  0  0
    5.3799    4.9849   20.0424 Se  0  0  0  0  0  0  0  0  0  0  0  0
    7.0776    6.3245   19.0507 C   0  0  0  0  0  0  0  0  0  0  0  0
   10.0719    6.9823   18.2074 O   0  0  0  0  0  0  0  0  0  0  0  0
   10.4527    4.5727   21.6940 C   0  0  0  0  0  0  0  0  0  0  0  0
    4.1852    6.4095   19.4104 F   0  0  0  0  0  0  0  0  0  0  0  0
   10.8686    5.3809   20.2889 Br  0  0  0  0  0  0  0  0  0  0  0  0
    9.9358    5.8105   18.6068 Br  0  0  0  0  0  0  0  0  0  0  0  0
    8.4448    7.6740   21.4596 F   0  0  0  0  0  0  0  0  0  0  0  0
    8.1675    8.1982   16.6360 N   0  0  0  0  0  0  0  0  0  0  0  0
   12.4265    7.5110   18.8142 C   0  0  0  0  0  0  0  0  0  0  0  0
   12.4614    4.9514   21.1818 O   0  0  0  0  0  0  0  0  0  0  0  0
   11.9303    6.1191   18.7315 C   0  0  0  0  0  0  0  0  0  0  0  0
    6.4152    7.7171   20.0436 C   0  0  0  0  0  0  0  0  0  0  0  0
    9.7805    8.5625   17.3621 C   0  0  0  0  0  0  0  0  0  0  0  0
   11.7927    4.3111   18.7083 C   0  0  0  0  0  0  0  0  0  0  0  0
    6.6957   10.3793   22.5157 F   0  0  0  0  0  0  0  0  0  0  0  0
    6.6985    6.5483   19.3073 He  0  0  0  0  0  0  0  0  0  0  0  0
    5.8690    8.7946   23.2782 He  0  0  0  0  0  0  0  0  0  0  0  0
    6.0930    5.7584   18.9263 He  0  0  0  0  0  0  0  0  0  0  0  0
    8.9473    6.8318   21.8706 He  0  0  0  0  0  0  0  0  0  0  0  0
   10.7861    8.3729   17.1202 He  0  0  0  0  0  0  0  0  0  0  0  0
    8.0156    8.0250   22.2641 He  0  0  0  0  0  0  0  0  0  0  0  0
   11.8441    3.5405   20.5626 He  0  0  0  0  0  0  0  0  0  0  0  0
    7.8003    6.6682   18.6447 He  0  0  0  0  0  0  0  0  0  0  0  0
    8.2814    7.8006   18.0246 He  0  0  0  0  0  0  0  0  0  0  0  0
    8.0444    8.4294   23.3901 He  0  0  0  0  0  0  0  0  0  0  0  0
   11.3895    3.4647   20.5782 He  0  0  0  0  0  0  0  0  0  0  0  0
  1  2  4  0
  1  3  1  0
  1  8  1  0
  1 11  1  0
  1 18  3  0
  2  5  3  0
  2  6  2  0
  2  8  1  0
  2  9  4  0
  2 12  3  0
  2 15  4  0
  2 16  3  0
  2 19  2  0
  3  7  1  0
  3 14  2  0
  4  6  2  0
  4 10  2  0
  4 14  3  0
  4 16  4  0
  4 18  1  0
  5  6  1  0
  5  7  4  0
  5  9  1  0
  5 17  2  0
  5 18  4  0
  6 12  4  0
  6 13  1  0
  6 18  2  0
  6 19  1  0
  7  8  4  0
  7 10  3  0
  7 14  3  0
  7 15  2  0
  8 11  1  0
  8 13  3  0
  8 16  3  0
  8 17  4  0
  8 18  3  0
  9 10  2  0
  9 11  1  0
  9 18  3  0
  9 19  2  0
 10 13  4  0
 10 16  3  0
 10 17  2  0
 10 18  2  0
 11 13  2  0
 11 14  2  0
 11 16  3  0
 12 16  4  0
 12 18  2  0
 14 17  1  0
 15 16  1  0
 15 17  1  0
 15 18  4  0
 16 17  3  0
 18 19  1  0
M  END
$$$$

 Created by Python create_sdf_string function

 30 39  0  0  0  0  0  0  0  0999 V2000
    6.0363    6.3573   17.9589 O   0  0  0  0  0  0  0  0  0  0  0  0
    8.4466    5.6072   23.6156 C   0  0  0  0  0  0  0  0  0  0  0  0
    5.3050    8.5080   22.8471 F   0  0  0  0  0  0  0  0  0  0  0  0
    5.3442    6.2706   20.5553 C   0  0  0  0  0  0  0  0  0  0  0  0
   10.4244    6.7659   17.8078 C   0  0  0  0  0  0  0  0  0  0  0  0
   11.5384    5.1881   21.7555 C   0  0  0  0  0  0  0  0  0  0  0  0
    9.7048    7.0434   21.7888 F   0  0  0  0  0  0  0  0  0  0  0  0
   10.8526    9.4343   16.9038 C   0  0  0  0  0  0  0  0  0  0  0  0
    9.1416    7.2498   18.8278 N   0  0  0  0  0  0  0  0  0  0  0  0
    8.3573    8.9841   22.0652 C   0  0  0  0  0  0  0  0  0  0  0  0
    7.9782    8.6650   16.8868 O   0  0  0  0  0  0  0  0  0  0  0  0
   11.2216    5.5323   22.3038 S   0  0  0  0  0  0  0  0  0  0  0  0
    5.8509    7.5086   18.8226 S   0  0  0  0  0  0  0  0  0  0  0  0
    9.1965    8.2944   17.4763 P   0  0  0  0  0  0  0  0  0  0  0  0
    6.5624    8.9625   22.3111 C   0  0  0  0  0  0  0  0  0  0  0  0
    8.3189   10.5276   23.5009 F   0  0  0  0  0  0  0  0  0  0  0  0
    5.7927    7.4490   23.5683 He  0  0  0  0  0  0  0  0  0  0  0  0
    3.9269    8.2120   19.6913 He  0  0  0  0  0  0  0  0  0  0  0  0
    5.0159    4.2711   20.2606 He  0  0  0  0  0  0  0  0  0  0  0  0
    7.2767    5.7836   17.6717 He  0  0  0  0  0  0  0  0  0  0  0  0
    3.6269    7.8897   19.2623 He  0  0  0  0  0  0  0  0  0  0  0  0
   12.0382    7.3084   19.7849 He  0  0  0  0  0  0  0  0  0  0  0  0
    7.6261    8.7088   21.1165 He  0  0  0  0  0  0  0  0  0  0  0  0
   12.8736    4.7917   21.1864 He  0  0  0  0  0  0  0  0  0  0  0  0
    8.2724    6.9151   16.3180 He  0  0  0  0  0  0  0  0  0  0  0  0
   11.3238    6.7986   19.4662 He  0  0  0  0  0  0  0  0  0  0  0  0
   11.8925    5.2530   17.7846 He  0  0  0  0  0  0  0  0  0  0  0  0
    9.6474    9.3934   17.5144 He  0  0  0  0  0  0  0  0  0  0  0  0
   12.1211    6.3521   19.3773 He  0  0  0  0  0  0  0  0  0  0  0  0
   12.1035    4.0842   21.6073 He  0  0  0  0  0  0  0  0  0  0  0  0
  1  3  4  0
  1  7  1  0
  1  9  4  0
  1 13  4  0
  1 16  3  0
  2  3  4  0
  2  4  1  0
  2  5  4  0
  2 12  4  0
  2 15  4  0
  3  6  4  0
  3  8  4  0
  3 10  1  0
  3 13  4  0
  3 16  2  0
  4  7  3  0
  4  9  1  0
  4 11  1  0
  4 12  4  0
  4 13  3  0
  4 15  1  0
  5  7  4  0
  5  9  4  0
  5 12  2  0
  5 13  4  0
  6  7  2  0
  6 15  1  0
  7 11  3  0
  7 16  2  0
  8 10  3  0
  8 15  4  0
  8 16  3  0
  9 12  4  0
  9 16  3  0
 10 11  2  0
 11 14  1  0
 12 13  4  0
 12 14  3  0
 13 16  4  0
M  END
$$$$

 Created by Python create_sdf_string function

 30 48  0  0  0  0  0  0  0  0999 V2000
    6.7187    5.4525   18.8631 O   0  0  0  0  0  0  0  0  0  0  0  0
    5.6809    7.0754   21.5345 F   0  0  0  0  0  0  0  0  0  0  0  0
    4.5452    8.2972   18.5180 O   0  0  0  0  0  0  0  0  0  0  0  0
    8.8179    7.6898   22.9608 C   0  0  0  0  0  0  0  0  0  0  0  0
    5.1867    5.5072   20.4980 C   0  0  0  0  0  0  0  0  0  0  0  0
    7.2855    6.6734   17.0550 C   0  0  0  0  0  0  0  0  0  0  0  0
    4.8200    7.1517   20.8602 C   0  0  0  0  0  0  0  0  0  0  0  0
   11.0501    7.1064   17.9468 C   0  0  0  0  0  0  0  0  0  0  0  0
   10.9054    5.7235   22.1151 B   0  0  0  0  0  0  0  0  0  0  0  0
   11.0873    7.8358   19.8405 C   0  0  0  0  0  0  0  0  0  0  0  0
    6.5061    8.5098   21.1424 I   0  0  0  0  0  0  0  0  0  0  0  0
   13.0510    4.7698   19.8217 F   0  0  0  0  0  0  0  0  0  0  0  0
   10.6775    7.9699   19.7008 C   0  0  0  0  0  0  0  0  0  0  0  0
   10.0224    6.7841   22.6607 S   0  0  0  0  0  0  0  0  0  0  0  0
    5.2815    7.1759   20.2474 C   0  0  0  0  0  0  0  0  0  0  0  0
    9.8726    9.8736   17.6304 C   0  0  0  0  0  0  0  0  0  0  0  0
   13.3716    5.2276   19.9247 Cl  0  0  0  0  0  0  0  0  0  0  0  0
    8.1091    9.9600   23.6424 S   0  0  0  0  0  0  0  0  0  0  0  0
   12.0943    4.6791   21.0697 O   0  0  0  0  0  0  0  0  0  0  0  0
    5.3154    9.1943   22.6872 He  0  0  0  0  0  0  0  0  0  0  0  0
    4.4591    6.0341   20.1878 He  0  0  0  0  0  0  0  0  0  0  0  0
    8.9056    7.2894   21.4821 He  0  0  0  0  0  0  0  0  0  0  0  0
   10.9843    9.4135   15.4344 He  0  0  0  0  0  0  0  0  0  0  0  0
   10.3050    5.9629   17.7804 He  0  0  0  0  0  0  0  0  0  0  0  0
    8.1963    8.2980   22.2551 He  0  0  0  0  0  0  0  0  0  0  0  0
    8.2001    8.2960   17.0494 He  0  0  0  0  0  0  0  0  0  0  0  0
    7.6831    6.0477   17.5821 He  0  0  0  0  0  0  0  0  0  0  0  0
   12.3008    5.1409   18.3954 He  0  0  0  0  0  0  0  0  0  0  0  0
    7.3855    7.9810   16.4318 He  0  0  0  0  0  0  0  0  0  0  0  0
    5.6902    8.7397   22.2437 He  0  0  0  0  0  0  0  0  0  0  0  0
  1  2  3  0
  1 15  4  0
  1 17  1  0
  1 19  4  0
  2  3  3  0
  2 14  1  0
  2 18  4  0
  3  4  2  0
  3  7  4  0
  3 13  1  0
  3 14  3  0
  4  8  2  0
  4 10  2  0
  4 12  2  0
  4 14  3  0
  4 18  3  0
  4 19  1  0
  5  7  4  0
  5 11  4  0
  5 14  4  0
  5 17  2  0
  6  7  3  0
  6 10  4  0
  6 19  3  0
  7  8  2  0
  7  9  4  0
  7 11  3  0
  7 16  2  0
  7 19  4  0
  8  9  2  0
  8 17  3  0
  9 11  4  0
  9 14  4  0
  9 19  4  0
 10 12  1  0
 10 19  2  0
 11 12  1  0
 11 14  4  0
 12 13  2  0
 12 14  4  0
 12 19  4  0
 13 14  2  0
 14 15  2  0
 14 17  2  0
 14 19  1  0
 15 18  3  0
 16 18  1  0
 16 19  2  0
M  END
$$$$

 Created by Python create_sdf_string function

 30 67  0  0  0  0  0  0  0  0999 V2000
    5.3338    6.2596   19.5242 C   0  0  0  0  0  0  0  0  0  0  0  0
    4.6369    7.7329   19.4356 C   0  0  0  0  0  0  0  0  0  0  0  0
    9.7913    6.5442   22.5759 F   0  0  0  0  0  0  0  0  0  0  0  0
    4.9230    5.1439   19.9731 C   0  0  0  0  0  0  0  0  0  0  0  0
    5.0207    8.5895   22.9571 C   0  0  0  0  0  0  0  0  0  0  0  0
    7.9744    7.7215   17.3335 O   0  0  0  0  0  0  0  0  0  0  0  0
   10.2922    8.3014   16.6439 C   0  0  0  0  0  0  0  0  0  0  0  0
   11.9671    7.2421   20.1835 F   0  0  0  0  0  0  0  0  0  0  0  0
    9.9887    8.0335   20.8393 Cl  0  0  0  0  0  0  0  0  0  0  0  0
   10.1107    6.4658   16.6554 C   0  0  0  0  0  0  0  0  0  0  0  0
    5.3732    8.8163   20.9044 C   0  0  0  0  0  0  0  0  0  0  0  0
    8.3913    8.5268   23.3337 Cl  0  0  0  0  0  0  0  0  0  0  0  0
   12.5071    5.5462   20.1656 C   0  0  0  0  0  0  0  0  0  0  0  0
    6.9118    6.1250   17.7797 C   0  0  0  0  0  0  0  0  0  0  0  0
   11.3950    7.7931   19.2662 Cl  0  0  0  0  0  0  0  0  0  0  0  0
   12.5264    5.6090   18.8209 C   0  0  0  0  0  0  0  0  0  0  0  0
    5.0346    7.4701   19.2165 B   0  0  0  0  0  0  0  0  0  0  0  0
    9.4137    8.3537   16.6330 P   0  0  0  0  0  0  0  0  0  0  0  0
   13.1192    5.2960   21.2504 N   0  0  0  0  0  0  0  0  0  0  0  0
    6.7453    8.8613   23.3015 O   0  0  0  0  0  0  0  0  0  0  0  0
    8.8611   10.1170   24.3466 N   0  0  0  0  0  0  0  0  0  0  0  0
   12.8845    5.1950   22.2635 C   0  0  0  0  0  0  0  0  0  0  0  0
    6.3016    6.0767   21.0441 He  0  0  0  0  0  0  0  0  0  0  0  0
    4.4646    7.2977   21.2285 He  0  0  0  0  0  0  0  0  0  0  0  0
   10.1074    5.9925   22.4599 He  0  0  0  0  0  0  0  0  0  0  0  0
    3.5022    5.4596   19.7109 He  0  0  0  0  0  0  0  0  0  0  0  0
    9.8767   10.2382   16.8125 He  0  0  0  0  0  0  0  0  0  0  0  0
    7.3511    7.9459   18.8287 He  0  0  0  0  0  0  0  0  0  0  0  0
    9.8356    6.1491   22.4740 He  0  0  0  0  0  0  0  0  0  0  0  0
    8.4383    7.8530   16.8624 He  0  0  0  0  0  0  0  0  0  0  0  0
  1  3  4  0
  1  6  4  0
  1  7  4  0
  1  9  1  0
  1 15  3  0
  1 20  4  0
  2  3  3  0
  2  8  4  0
  2  9  1  0
  2 11  1  0
  2 15  4  0
  2 16  4  0
  2 18  2  0
  3  6  1  0
  3  7  1  0
  3  9  3  0
  3 15  2  0
  3 21  4  0
  3 22  4  0
  4  7  2  0
  4  8  2  0
  4  9  4  0
  4 11  4  0
  4 12  3  0
  4 14  4  0
  5  9  2  0
  5 15  2  0
  5 21  1  0
  6  7  2  0
  6 10  3  0
  6 13  3  0
  6 18  1  0
  6 19  4  0
  6 20  4  0
  7  9  4  0
  7 14  1  0
  7 19  2  0
  7 20  2  0
  7 21  2  0
  8  9  3  0
  8 10  2  0
  8 15  4  0
  8 18  3  0
  9 10  2  0
  9 12  1  0
  9 15  4  0
  9 17  3  0
  9 20  3  0
 10 14  3  0
 10 15  3  0
 11 13  2  0
 11 18  1  0
 11 19  1  0
 11 22  2  0
 12 14  2  0
 12 15  1  0
 12 19  2  0
 12 21  1  0
 13 14  2  0
 14 19  1  0
 14 22  4  0
 15 19  4  0
 15 21  3  0
 15 22  2  0
 17 18  2  0
 19 20  2  0
 21 22  3  0
M  END
$$$$

 Created by Python create_sdf_string function

 30 70  0  0  0  0  0  0  0  0999 V2000
    4.9552    5.6747   17.8424 P   0  0  0  0  0  0  0  0  0  0  0  0
    6.4862    6.8437   21.0190 S   0  0  0  0  0  0  0  0  0  0  0  0
    4.5969    7.1879   19.9190 C   0  0  0  0  0  0  0  0  0  0  0  0
    3.9239    5.7897   20.1885 C   0  0  0  0  0  0  0  0  0  0  0  0
    7.9442    7.7676   16.6737 C   0  0  0  0  0  0  0  0  0  0  0  0
   10.7879    7.3097   18.0265 C   0  0  0  0  0  0  0  0  0  0  0  0
    3.0007    6.6164   20.5533 Cl  0  0  0  0  0  0  0  0  0  0  0  0
   12.3212    6.5298   20.5687 C   0  0  0  0  0  0  0  0  0  0  0  0
    9.4133    8.7021   20.5917 Se  0  0  0  0  0  0  0  0  0  0  0  0
    9.5406    8.7070   16.2133 O   0  0  0  0  0  0  0  0  0  0  0  0
    9.9163    7.9303   17.6123 C   0  0  0  0  0  0  0  0  0  0  0  0
    5.5697    9.4771   21.5933 C   0  0  0  0  0  0  0  0  0  0  0  0
    8.5265    7.7206   21.2681 C   0  0  0  0  0  0  0  0  0  0  0  0
   11.6277    7.5568   18.6653 O   0  0  0  0  0  0  0  0  0  0  0  0
   10.3157    6.2923   22.6087 C   0  0  0  0  0  0  0  0  0  0  0  0
   13.2435    6.8688   19.6330 O   0  0  0  0  0  0  0  0  0  0  0  0
    5.2276    8.1093   18.5496 O   0  0  0  0  0  0  0  0  0  0  0  0
    9.2333   10.0778   16.6459 P   0  0  0  0  0  0  0  0  0  0  0  0
    8.5025    7.1879   14.9614 O   0  0  0  0  0  0  0  0  0  0  0  0
    6.8318    8.0430   23.2219 S   0  0  0  0  0  0  0  0  0  0  0  0
    9.9258   10.1220   23.5154 Cl  0  0  0  0  0  0  0  0  0  0  0  0
   12.0589    5.3944   23.0177 C   0  0  0  0  0  0  0  0  0  0  0  0
   11.8749    7.4551   22.4330 He  0  0  0  0  0  0  0  0  0  0  0  0
    5.2186    9.3216   21.6141 He  0  0  0  0  0  0  0  0  0  0  0  0
    5.2293    7.4525   21.2224 He  0  0  0  0  0  0  0  0  0  0  0  0
   10.8320    6.3016   22.6698 He  0  0  0  0  0  0  0  0  0  0  0  0
   11.2251    6.4504   19.4101 He  0  0  0  0  0  0  0  0  0  0  0  0
    7.5539    8.6144   19.4747 He  0  0  0  0  0  0  0  0  0  0  0  0
    6.2696    6.1722   18.1115 He  0  0  0  0  0  0  0  0  0  0  0  0
   13.0745    7.2908   22.9355 He  0  0  0  0  0  0  0  0  0  0  0  0
  1  4  1  0
  1  7  1  0
  1  8  4  0
  1  9  2  0
  1 11  3  0
  1 14  4  0
  1 19  4  0
  1 20  4  0
  1 22  3  0
  2  4  2  0
  2  5  2  0
  2  7  1  0
  2  8  1  0
  2 10  3  0
  2 11  4  0
  2 13  1  0
  2 22  3  0
  3  5  3  0
  3  6  4  0
  3 17  4  0
  4  7  1  0
  4 11  1  0
  4 12  3  0
  4 14  1  0
  4 15  1  0
  4 19  1  0
  5 10  4  0
  5 15  4  0
  5 16  3  0
  5 21  4  0
  6  7  2  0
  6 16  2  0
  6 19  3  0
  7 11  3  0
  7 16  3  0
  7 18  4  0
  7 19  2  0
  7 22  3  0
  8 12  2  0
  8 15  3  0
  8 17  4  0
  8 19  1  0
  8 21  2  0
  9 12  1  0
  9 15  1  0
  9 18  3  0
 10 14  4  0
 10 18  1  0
 10 21  4  0
 11 13  2  0
 11 17  1  0
 11 21  1  0
 11 22  1  0
 12 14  4  0
 12 22  2  0
 13 16  3  0
 13 22  1  0
 14 19  1  0
 14 22  4  0
 15 16  4  0
 15 17  4  0
 15 18  2  0
 16 22  1  0
 17 21  2  0
 17 22  1  0
 18 20  4  0
 18 22  4  0
 19 20  4  0
 19 21  4  0
 21 22  2  0
M  END
$$$$

 Created by Python create_sdf_string function

 30 72  0  0  0  0  0  0  0  0999 V2000
    7.6972    7.1155   21.8002 C   0  0  0  0  0  0  0  0  0  0  0  0
    4.4261    6.7035   20.3257 C   0  0  0  0  0  0  0  0  0  0  0  0
   11.0755    7.6763   22.5036 N   0  0  0  0  0  0  0  0  0  0  0  0
    3.0141    6.0123   19.7500 C   0  0  0  0  0  0  0  0  0  0  0  0
    5.5883    9.1436   21.9246 C   0  0  0  0  0  0  0  0  0  0  0  0
    8.0942    8.3591   16.7678 C   0  0  0  0  0  0  0  0  0  0  0  0
    6.2402    7.6905   21.9664 O   0  0  0  0  0  0  0  0  0  0  0  0
   11.0203    7.3804   17.7916 C   0  0  0  0  0  0  0  0  0  0  0  0
   11.3849    6.3453   22.6000 C   0  0  0  0  0  0  0  0  0  0  0  0
    4.0204    6.1866   19.3059 O   0  0  0  0  0  0  0  0  0  0  0  0
   11.0468    8.2336   20.4860 O   0  0  0  0  0  0  0  0  0  0  0  0
    8.5036    8.0888   16.1384 C   0  0  0  0  0  0  0  0  0  0  0  0
    6.9889    8.6580   20.8689 C   0  0  0  0  0  0  0  0  0  0  0  0
    6.9153    7.0254   20.9095 F   0  0  0  0  0  0  0  0  0  0  0  0
   11.2324    8.1709   19.6456 O   0  0  0  0  0  0  0  0  0  0  0  0
    8.3179    8.0586   18.6967 C   0  0  0  0  0  0  0  0  0  0  0  0
    6.7178    7.4032   20.0946 O   0  0  0  0  0  0  0  0  0  0  0  0
   11.1163    8.5933   18.7233 F   0  0  0  0  0  0  0  0  0  0  0  0
    9.6611    6.7369   21.9097 Cl  0  0  0  0  0  0  0  0  0  0  0  0
   11.8830    6.4854   19.7486 O   0  0  0  0  0  0  0  0  0  0  0  0
    5.3179    8.6630   19.3046 O   0  0  0  0  0  0  0  0  0  0  0  0
    9.2995   10.1748   17.7849 F   0  0  0  0  0  0  0  0  0  0  0  0
    8.2191    7.8361   15.7344 B   0  0  0  0  0  0  0  0  0  0  0  0
   12.3389    6.9630   23.0652 O   0  0  0  0  0  0  0  0  0  0  0  0
   12.0347    5.3835   24.4492 O   0  0  0  0  0  0  0  0  0  0  0  0
    5.3208    6.8861   19.2175 He  0  0  0  0  0  0  0  0  0  0  0  0
    9.6280    7.5668   20.0793 He  0  0  0  0  0  0  0  0  0  0  0  0
   10.7911    8.3740   17.9649 He  0  0  0  0  0  0  0  0  0  0  0  0
    5.9342    8.7284   23.1472 He  0  0  0  0  0  0  0  0  0  0  0  0
    9.2292    8.5467   22.6510 He  0  0  0  0  0  0  0  0  0  0  0  0
  1  4  4  0
  1 17  3  0
  2  4  1  0
  2  8  2  0
  2 14  1  0
  2 16  4  0
  2 22  3  0
  2 23  1  0
  3  5  4  0
  3 10  1  0
  3 23  3  0
  4  7  3  0
  4  8  4  0
  4 10  3  0
  4 13  3  0
  4 15  3  0
  4 18  3  0
  5 10  2  0
  5 12  4  0
  5 13  4  0
  5 16  1  0
  5 18  1  0
  5 19  2  0
  5 22  2  0
  6 15  4  0
  6 16  4  0
  6 18  2  0
  7  9  3  0
  7 11  1  0
  7 12  3  0
  7 14  2  0
  7 16  1  0
  7 22  2  0
  8  9  3  0
  8 10  3  0
  8 11  3  0
  8 13  3  0
  8 15  1  0
  8 17  4  0
  8 23  3  0
  9 10  3  0
  9 14  3  0
  9 19  1  0
  9 25  3  0
 10 12  1  0
 10 23  3  0
 11 13  4  0
 11 15  1  0
 11 20  1  0
 12 19  4  0
 12 23  4  0
 13 20  4  0
 13 22  1  0
 14 17  1  0
 14 19  1  0
 14 22  4  0
 15 16  1  0
 15 18  1  0
 15 21  4  0
 15 25  2  0
 16 19  3  0
 16 22  3  0
 17 18  3  0
 18 20  2  0
 18 22  3  0
 18 24  4  0
 18 25  4  0
 19 20  1  0
 19 25  3  0
 20 23  4  0
 21 24  2  0
 23 25  2  0
M  END
$$$$

 Created by Python create_sdf_string function

 30 37  0  0  0  0  0  0  0  0999 V2000
    6.0902    6.1026   19.1325 N   0  0  0  0  0  0  0  0  0  0  0  0
    9.9681    5.8353   22.7407 F   0  0  0  0  0  0  0  0  0  0  0  0
    3.9201    6.3636   20.1109 C   0  0  0  0  0  0  0  0  0  0  0  0
    6.2186    9.2680   21.6592 C   0  0  0  0  0  0  0  0  0  0  0  0
   11.8713    6.4517   21.5296 N   0  0  0  0  0  0  0  0  0  0  0  0
   10.4918    6.8684   20.5739 P   0  0  0  0  0  0  0  0  0  0  0  0
   10.9934    8.3103   19.8720 C   0  0  0  0  0  0  0  0  0  0  0  0
    8.6215    7.4265   16.1749 C   0  0  0  0  0  0  0  0  0  0  0  0
    9.9650    8.4835   17.6189 C   0  0  0  0  0  0  0  0  0  0  0  0
    5.8326    8.0580   22.4013 N   0  0  0  0  0  0  0  0  0  0  0  0
    8.4074    8.1556   18.3468 C   0  0  0  0  0  0  0  0  0  0  0  0
    7.3980    7.0078   20.4965 C   0  0  0  0  0  0  0  0  0  0  0  0
   10.2413    5.3189   23.0493 S   0  0  0  0  0  0  0  0  0  0  0  0
   11.6961    7.5282   20.2718 O   0  0  0  0  0  0  0  0  0  0  0  0
   10.5925    8.5757   17.2642 C   0  0  0  0  0  0  0  0  0  0  0  0
   12.7428    7.1969   23.0541 O   0  0  0  0  0  0  0  0  0  0  0  0
   12.6911    4.2730   23.3223 C   0  0  0  0  0  0  0  0  0  0  0  0
    7.9868    8.6125   21.9943 He  0  0  0  0  0  0  0  0  0  0  0  0
    5.7837    6.9030   20.5238 He  0  0  0  0  0  0  0  0  0  0  0  0
    7.9281    8.0058   17.0909 He  0  0  0  0  0  0  0  0  0  0  0  0
    6.1496    6.9534   23.4085 He  0  0  0  0  0  0  0  0  0  0  0  0
   10.7807    6.8539   17.1185 He  0  0  0  0  0  0  0  0  0  0  0  0
    4.1110    5.1809   18.3876 He  0  0  0  0  0  0  0  0  0  0  0  0
    6.2579    6.0193   20.5924 He  0  0  0  0  0  0  0  0  0  0  0  0
   11.1341    7.6833   18.3067 He  0  0  0  0  0  0  0  0  0  0  0  0
   11.6397    9.1030   20.4762 He  0  0  0  0  0  0  0  0  0  0  0  0
    5.9447    7.6367   18.6638 He  0  0  0  0  0  0  0  0  0  0  0  0
    7.5396    7.9909   15.0628 He  0  0  0  0  0  0  0  0  0  0  0  0
    5.8737    8.9729   23.4920 He  0  0  0  0  0  0  0  0  0  0  0  0
    9.2883    7.2508   21.4985 He  0  0  0  0  0  0  0  0  0  0  0  0
  1  8  1  0
  1 11  1  0
  1 15  1  0
  2  5  4  0
  2  8  2  0
  2 12  1  0
  2 13  1  0
  2 15  3  0
  2 16  1  0
  3  4  3  0
  3  5  3  0
  3  7  1  0
  3 12  3  0
  3 14  2  0
  3 17  1  0
  4 10  1  0
  4 11  2  0
  4 12  1  0
  4 16  1  0
  5  7  3  0
  5 15  3  0
  5 16  2  0
  5 17  1  0
  6  7  1  0
  6  9  3  0
  6 10  2  0
  6 11  2  0
  6 12  2  0
  6 14  2  0
  7 10  2  0
  7 13  2  0
  7 15  1  0
  7 16  2  0
  8 10  3  0
  8 13  3  0
 10 13  4  0
 11 17  2  0
M  END
$$$$

 Created by Python create_sdf_string function

 30 67  0  0  0  0  0  0  0  0999 V2000
    5.5599    7.5092   19.1111 N   0  0  0  0  0  0  0  0  0  0  0  0
    6.4922    6.3448   19.4541 C   0  0  0  0  0  0  0  0  0  0  0  0
   10.4116    5.3113   22.0933 C   0  0  0  0  0  0  0  0  0  0  0  0
    7.1912    8.3233   22.5291 C   0  0  0  0  0  0  0  0  0  0  0  0
    8.7520    8.0027   16.9996 C   0  0  0  0  0  0  0  0  0  0  0  0
    6.6843    6.8662   23.0950 O   0  0  0  0  0  0  0  0  0  0  0  0
   11.5160    5.9035   21.7508 C   0  0  0  0  0  0  0  0  0  0  0  0
    3.7499    5.2655   18.3236 O   0  0  0  0  0  0  0  0  0  0  0  0
   10.4908    6.4983   20.9671 Cl  0  0  0  0  0  0  0  0  0  0  0  0
    9.6796    8.5189   18.9783 C   0  0  0  0  0  0  0  0  0  0  0  0
    8.9778    7.6283   17.5786 C   0  0  0  0  0  0  0  0  0  0  0  0
   10.0840    8.9310   17.5456 Cl  0  0  0  0  0  0  0  0  0  0  0  0
    5.2383    8.5234   22.7973 S   0  0  0  0  0  0  0  0  0  0  0  0
    6.2088    7.8098   19.8245 C   0  0  0  0  0  0  0  0  0  0  0  0
   11.8007    8.3512   18.5005 C   0  0  0  0  0  0  0  0  0  0  0  0
    8.2447    8.1617   18.4359 C   0  0  0  0  0  0  0  0  0  0  0  0
    8.0261    7.1047   20.4863 C   0  0  0  0  0  0  0  0  0  0  0  0
   10.9303    7.7983   19.6894 C   0  0  0  0  0  0  0  0  0  0  0  0
   10.2592    4.4654   22.6197 S   0  0  0  0  0  0  0  0  0  0  0  0
   11.4184    6.9434   21.5213 O   0  0  0  0  0  0  0  0  0  0  0  0
   10.4956    8.1833   18.6330 C   0  0  0  0  0  0  0  0  0  0  0  0
   12.9779    6.2393   23.5244 O   0  0  0  0  0  0  0  0  0  0  0  0
    7.9814    7.3395   21.5679 He  0  0  0  0  0  0  0  0  0  0  0  0
    4.7185    6.1102   18.0704 He  0  0  0  0  0  0  0  0  0  0  0  0
   10.5440    6.8259   16.6729 He  0  0  0  0  0  0  0  0  0  0  0  0
    5.8506    8.5911   19.5675 He  0  0  0  0  0  0  0  0  0  0  0  0
    8.2349    6.6543   14.1665 He  0  0  0  0  0  0  0  0  0  0  0  0
    6.4003    9.0888   22.8628 He  0  0  0  0  0  0  0  0  0  0  0  0
    9.2785    6.9109   22.1963 He  0  0  0  0  0  0  0  0  0  0  0  0
   12.9313    4.7534   24.4838 He  0  0  0  0  0  0  0  0  0  0  0  0
  1 15  3  0
  1 20  3  0
  2  3  4  0
  2  5  1  0
  2  6  4  0
  2 11  2  0
  2 15  1  0
  2 20  2  0
  3  5  1  0
  3  7  1  0
  3  9  2  0
  3 17  3  0
  3 19  1  0
  4  5  4  0
  4  6  3  0
  4  7  2  0
  4 10  3  0
  4 13  1  0
  4 17  1  0
  4 19  3  0
  4 20  3  0
  5  9  3  0
  5 11  2  0
  5 14  1  0
  5 16  4  0
  5 18  4  0
  5 20  4  0
  5 21  2  0
  5 22  1  0
  6 13  4  0
  6 14  4  0
  6 15  3  0
  6 18  2  0
  6 19  1  0
  6 20  4  0
  6 21  4  0
  7 11  1  0
  7 21  1  0
  7 22  4  0
  8 12  3  0
  8 18  3  0
  9 10  1  0
  9 16  2  0
  9 20  1  0
 10 11  2  0
 10 13  2  0
 10 14  1  0
 10 17  4  0
 10 21  4  0
 11 12  3  0
 11 13  1  0
 11 22  2  0
 12 15  4  0
 12 19  3  0
 12 20  1  0
 13 17  2  0
 14 16  3  0
 15 16  1  0
 15 19  1  0
 16 18  3  0
 17 18  2  0
 17 19  1  0
 17 21  4  0
 17 22  1  0
 19 21  3  0
 20 22  4  0
 21 22  4  0
M  END
$$$$

 Created by Python create_sdf_string function

 30 54  0  0  0  0  0  0  0  0999 V2000
    5.7808    7.1558   18.6785 F   0  0  0  0  0  0  0  0  0  0  0  0
    7.5869    8.1380   21.0730 N   0  0  0  0  0  0  0  0  0  0  0  0
    5.5978    6.5728   18.0862 Se  0  0  0  0  0  0  0  0  0  0  0  0
    8.6911    8.2151   16.6890 F   0  0  0  0  0  0  0  0  0  0  0  0
   12.3998    5.8556   21.7647 O   0  0  0  0  0  0  0  0  0  0  0  0
   10.8873    8.3186   20.3156 C   0  0  0  0  0  0  0  0  0  0  0  0
   10.3984    8.3651   19.1016 Cl  0  0  0  0  0  0  0  0  0  0  0  0
   12.5769    8.0908   17.7934 C   0  0  0  0  0  0  0  0  0  0  0  0
    7.6892    7.7849   17.8666 C   0  0  0  0  0  0  0  0  0  0  0  0
    8.4523    6.5330   19.8268 C   0  0  0  0  0  0  0  0  0  0  0  0
   10.6271    8.0600   18.8623 F   0  0  0  0  0  0  0  0  0  0  0  0
   10.3314    4.6010   22.6177 O   0  0  0  0  0  0  0  0  0  0  0  0
   11.7177    6.9428   21.6652 P   0  0  0  0  0  0  0  0  0  0  0  0
   10.4516    8.5475   17.3318 C   0  0  0  0  0  0  0  0  0  0  0  0
    9.1326    7.4812   15.3656 C   0  0  0  0  0  0  0  0  0  0  0  0
   12.6854    5.4335   22.0343 F   0  0  0  0  0  0  0  0  0  0  0  0
    6.0515    8.3943   23.3792 C   0  0  0  0  0  0  0  0  0  0  0  0
    9.4727    5.7281   22.9326 C   0  0  0  0  0  0  0  0  0  0  0  0
   12.8151    4.8988   23.8960 O   0  0  0  0  0  0  0  0  0  0  0  0
   10.4917    5.0159   22.8949 He  0  0  0  0  0  0  0  0  0  0  0  0
    4.9941    5.5553   18.4841 He  0  0  0  0  0  0  0  0  0  0  0  0
    7.5161    7.5888   21.4439 He  0  0  0  0  0  0  0  0  0  0  0  0
    7.2521    7.7328   23.6127 He  0  0  0  0  0  0  0  0  0  0  0  0
   12.1765    7.0061   16.4040 He  0  0  0  0  0  0  0  0  0  0  0  0
    4.0522    4.9573   18.2581 He  0  0  0  0  0  0  0  0  0  0  0  0
    9.0823    8.1360   16.6316 He  0  0  0  0  0  0  0  0  0  0  0  0
   10.4970    8.4855   17.8886 He  0  0  0  0  0  0  0  0  0  0  0  0
    5.6491    9.5331   22.6986 He  0  0  0  0  0  0  0  0  0  0  0  0
    7.1671    8.6736   20.1478 He  0  0  0  0  0  0  0  0  0  0  0  0
    6.2632    8.1987   18.3261 He  0  0  0  0  0  0  0  0  0  0  0  0
  1  2  1  0
  1  6  2  0
  1  9  3  0
  1 10  3  0
  1 12  1  0
  1 13  3  0
  1 16  2  0
  1 17  2  0
  1 18  2  0
  2  6  4  0
  2  8  2  0
  2 10  4  0
  2 13  2  0
  2 19  3  0
  3  7  2  0
  3  8  3  0
  3 12  4  0
  4  6  1  0
  4  9  4  0
  4 16  1  0
  5  6  1  0
  5  9  1  0
  5 12  2  0
  6 10  2  0
  6 13  1  0
  6 18  2  0
  6 19  2  0
  7 13  4  0
  7 14  4  0
  7 18  2  0
  7 19  1  0
  8 10  4  0
  8 18  2  0
  9 10  2  0
  9 11  2  0
  9 13  2  0
 10 11  1  0
 10 14  3  0
 10 16  1  0
 10 19  1  0
 11 12  4  0
 11 13  3  0
 11 14  2  0
 11 18  1  0
 12 13  3  0
 12 19  1  0
 13 14  3  0
 13 15  2  0
 13 18  3  0
 14 17  2  0
 14 18  2  0
 14 19  1  0
 17 18  4  0
 17 19  1  0
M  END
$$$$

 Created by Python create_sdf_string function

 30 45  0  0  0  0  0  0  0  0999 V2000
    6.4771    6.6193   19.7230 C   0  0  0  0  0  0  0  0  0  0  0  0
    7.0844    5.3406   18.4608 C   0  0  0  0  0  0  0  0  0  0  0  0
    7.4574    8.1570   21.5748 C   0  0  0  0  0  0  0  0  0  0  0  0
    9.1588    6.8472   16.3265 N   0  0  0  0  0  0  0  0  0  0  0  0
    7.4408    7.7870   23.6648 C   0  0  0  0  0  0  0  0  0  0  0  0
   12.4235    8.1051   16.5178 C   0  0  0  0  0  0  0  0  0  0  0  0
   12.5629    6.4811   22.2154 P   0  0  0  0  0  0  0  0  0  0  0  0
    4.0697    5.7165   18.2095 O   0  0  0  0  0  0  0  0  0  0  0  0
   11.7756    7.7130   21.1275 Br  0  0  0  0  0  0  0  0  0  0  0  0
   11.3333    9.5948   18.2169 N   0  0  0  0  0  0  0  0  0  0  0  0
    5.2161    9.2981   22.6745 O   0  0  0  0  0  0  0  0  0  0  0  0
    7.2147    7.6042   21.1357 C   0  0  0  0  0  0  0  0  0  0  0  0
    8.4484    6.9278   20.1124 C   0  0  0  0  0  0  0  0  0  0  0  0
   10.2781    7.2040   18.3667 F   0  0  0  0  0  0  0  0  0  0  0  0
   10.2664    4.7383   22.3874 O   0  0  0  0  0  0  0  0  0  0  0  0
   12.2999    5.4669   21.5548 C   0  0  0  0  0  0  0  0  0  0  0  0
    9.5477    9.5384   18.3493 C   0  0  0  0  0  0  0  0  0  0  0  0
    9.5428    7.1893   14.5764 P   0  0  0  0  0  0  0  0  0  0  0  0
   12.2342    5.4296   22.8997 S   0  0  0  0  0  0  0  0  0  0  0  0
   10.1952    5.1911   24.2535 N   0  0  0  0  0  0  0  0  0  0  0  0
    6.4428    7.5799   21.8190 He  0  0  0  0  0  0  0  0  0  0  0  0
   10.5312    5.2050   23.2525 He  0  0  0  0  0  0  0  0  0  0  0  0
    4.5493    7.3123   18.3212 He  0  0  0  0  0  0  0  0  0  0  0  0
    8.9456    8.1971   17.3671 He  0  0  0  0  0  0  0  0  0  0  0  0
   11.0304    8.3539   17.1975 He  0  0  0  0  0  0  0  0  0  0  0  0
   13.1794    7.9095   18.3072 He  0  0  0  0  0  0  0  0  0  0  0  0
    8.0534    7.8221   17.4415 He  0  0  0  0  0  0  0  0  0  0  0  0
    7.1868    7.8062   18.4862 He  0  0  0  0  0  0  0  0  0  0  0  0
    5.8670    8.6211   22.8493 He  0  0  0  0  0  0  0  0  0  0  0  0
   13.5294    3.8191   24.1544 He  0  0  0  0  0  0  0  0  0  0  0  0
  1 11  3  0
  1 12  3  0
  1 18  3  0
  2  8  3  0
  2 10  2  0
  2 13  1  0
  3  4  4  0
  3  8  2  0
  3 12  1  0
  3 15  3  0
  3 16  4  0
  3 17  2  0
  4 17  3  0
  4 18  2  0
  5  6  1  0
  5 12  4  0
  5 17  4  0
  5 20  3  0
  6  9  2  0
  6 11  2  0
  6 17  4  0
  7 11  2  0
  7 12  1  0
  7 18  2  0
  8  9  4  0
  8 10  3  0
  8 11  3  0
  8 14  1  0
  8 16  4  0
  9 10  3  0
  9 18  1  0
  9 20  1  0
 10 12  1  0
 10 15  1  0
 10 17  4  0
 11 15  1  0
 11 18  1  0
 12 14  2  0
 12 16  4  0
 12 17  2  0
 12 18  3  0
 13 15  1  0
 13 20  3  0
 14 18  2  0
 18 20  2  0
M  END
$$$$

 Created by Python create_sdf_string function

 30 73  0  0  0  0  0  0  0  0999 V2000
    6.3314    6.9571   19.1603 S   0  0  0  0  0  0  0  0  0  0  0  0
    6.9169    6.6515   22.0160 C   0  0  0  0  0  0  0  0  0  0  0  0
    9.8153    5.6820   23.4157 F   0  0  0  0  0  0  0  0  0  0  0  0
    7.3994    7.8138   22.3280 O   0  0  0  0  0  0  0  0  0  0  0  0
   10.4141    6.7493   16.6324 N   0  0  0  0  0  0  0  0  0  0  0  0
    6.7963    7.6079   23.3537 C   0  0  0  0  0  0  0  0  0  0  0  0
   11.9802    8.1568   15.7326 Se  0  0  0  0  0  0  0  0  0  0  0  0
   11.9659    7.0016   19.9797 C   0  0  0  0  0  0  0  0  0  0  0  0
   12.0078    9.6675   17.8559 N   0  0  0  0  0  0  0  0  0  0  0  0
    9.6876    8.0429   17.6086 Cl  0  0  0  0  0  0  0  0  0  0  0  0
    5.3542    9.1265   22.3719 O   0  0  0  0  0  0  0  0  0  0  0  0
    6.4738    7.6792   20.9710 Cl  0  0  0  0  0  0  0  0  0  0  0  0
   11.9596    8.1034   19.0646 C   0  0  0  0  0  0  0  0  0  0  0  0
    8.3141    7.4399   17.5822 C   0  0  0  0  0  0  0  0  0  0  0  0
   11.1221    7.9494   19.3490 C   0  0  0  0  0  0  0  0  0  0  0  0
    9.8764    5.2173   22.0694 P   0  0  0  0  0  0  0  0  0  0  0  0
    6.7842    7.2882   17.4755 Cl  0  0  0  0  0  0  0  0  0  0  0  0
    9.6446    8.8449   17.7080 C   0  0  0  0  0  0  0  0  0  0  0  0
    9.3467    7.0052   14.8663 O   0  0  0  0  0  0  0  0  0  0  0  0
   12.1850    4.7984   22.5909 C   0  0  0  0  0  0  0  0  0  0  0  0
    6.6667    8.3252   23.2883 N   0  0  0  0  0  0  0  0  0  0  0  0
   10.6932    5.5856   23.3872 C   0  0  0  0  0  0  0  0  0  0  0  0
   13.2277    4.5326   25.0442 O   0  0  0  0  0  0  0  0  0  0  0  0
    8.1124    6.5505   17.9406 He  0  0  0  0  0  0  0  0  0  0  0  0
    4.6259    6.2485   19.1389 He  0  0  0  0  0  0  0  0  0  0  0  0
   12.6615    5.8666   22.7503 He  0  0  0  0  0  0  0  0  0  0  0  0
    4.7851    6.5134   19.4075 He  0  0  0  0  0  0  0  0  0  0  0  0
    9.2793    8.1960   17.1599 He  0  0  0  0  0  0  0  0  0  0  0  0
    7.4402    7.7179   20.0960 He  0  0  0  0  0  0  0  0  0  0  0  0
   13.1763    5.1485   21.6299 He  0  0  0  0  0  0  0  0  0  0  0  0
  1  4  3  0
  1  6  4  0
  1  7  3  0
  1  9  1  0
  1 10  1  0
  1 12  1  0
  1 20  2  0
  1 23  2  0
  2  3  3  0
  2  6  3  0
  2  7  4  0
  2 15  1  0
  2 17  3  0
  2 18  2  0
  2 20  2  0
  2 23  3  0
  3  8  1  0
  3  9  3  0
  3 10  2  0
  3 15  1  0
  3 16  4  0
  3 19  1  0
  3 22  4  0
  4  7  4  0
  4  8  4  0
  4 10  4  0
  4 12  1  0
  5  6  3  0
  5  8  1  0
  5 12  4  0
  5 17  2  0
  6 12  4  0
  6 15  1  0
  6 19  3  0
  7 14  2  0
  7 15  4  0
  7 16  3  0
  7 18  4  0
  7 22  1  0
  7 23  2  0
  8 18  3  0
  9 12  4  0
  9 17  1  0
  9 19  3  0
 10 11  3  0
 10 12  2  0
 10 15  1  0
 10 19  3  0
 10 20  3  0
 10 21  4  0
 11 12  1  0
 11 13  2  0
 11 18  2  0
 11 21  1  0
 12 14  1  0
 12 15  2  0
 13 23  1  0
 14 15  3  0
 14 17  4  0
 15 16  1  0
 16 17  3  0
 16 20  3  0
 16 22  4  0
 16 23  3  0
 17 21  2  0
 17 23  2  0
 18 20  4  0
 18 22  4  0
 19 20  2  0
 20 21  3  0
 20 22  2  0
 20 23  1  0
 22 23  4  0
M  END
$$$$

 Created by Python create_sdf_string function

 30 62  0  0  0  0  0  0  0  0999 V2000
    8.0961    6.7239   22.4325 C   0  0  0  0  0  0  0  0  0  0  0  0
    7.7616    6.5997   17.7941 N   0  0  0  0  0  0  0  0  0  0  0  0
   10.0463    5.8026   23.8464 F   0  0  0  0  0  0  0  0  0  0  0  0
    4.6012    6.8114   19.3018 F   0  0  0  0  0  0  0  0  0  0  0  0
    6.6992    6.9961   22.3021 B   0  0  0  0  0  0  0  0  0  0  0  0
    9.8969    7.5002   15.6198 O   0  0  0  0  0  0  0  0  0  0  0  0
    7.8720    6.5805   23.0074 C   0  0  0  0  0  0  0  0  0  0  0  0
    9.7317    9.3980   16.1109 C   0  0  0  0  0  0  0  0  0  0  0  0
    4.6552    5.7407   19.5990 C   0  0  0  0  0  0  0  0  0  0  0  0
   11.4631    8.8185   19.4523 N   0  0  0  0  0  0  0  0  0  0  0  0
    9.6724    7.9728   16.5950 C   0  0  0  0  0  0  0  0  0  0  0  0
   10.7775    7.6968   17.1994 Cl  0  0  0  0  0  0  0  0  0  0  0  0
    6.1856    7.8346   20.7925 C   0  0  0  0  0  0  0  0  0  0  0  0
   11.3686    7.4389   19.4914 C   0  0  0  0  0  0  0  0  0  0  0  0
    7.5823    7.2780   19.4435 O   0  0  0  0  0  0  0  0  0  0  0  0
   11.2393    8.1699   19.4086 S   0  0  0  0  0  0  0  0  0  0  0  0
   10.4910    6.0400   21.4066 N   0  0  0  0  0  0  0  0  0  0  0  0
   11.7726    5.5662   21.4262 C   0  0  0  0  0  0  0  0  0  0  0  0
   10.0053    8.1426   17.0042 N   0  0  0  0  0  0  0  0  0  0  0  0
   10.1429    5.9573   13.8806 O   0  0  0  0  0  0  0  0  0  0  0  0
    7.5038    8.5859   23.9790 N   0  0  0  0  0  0  0  0  0  0  0  0
   10.8393    5.4051   23.6744 F   0  0  0  0  0  0  0  0  0  0  0  0
    6.7509    6.6379   19.1929 He  0  0  0  0  0  0  0  0  0  0  0  0
   13.0495    5.1183   22.5142 He  0  0  0  0  0  0  0  0  0  0  0  0
   12.0186    6.6294   20.3924 He  0  0  0  0  0  0  0  0  0  0  0  0
    5.3069    9.4515   22.8080 He  0  0  0  0  0  0  0  0  0  0  0  0
    9.2213    6.8693   16.9418 He  0  0  0  0  0  0  0  0  0  0  0  0
    7.8746    6.6414   16.5289 He  0  0  0  0  0  0  0  0  0  0  0  0
   12.7530    4.0832   23.4048 He  0  0  0  0  0  0  0  0  0  0  0  0
   12.0893    5.0421   24.8967 He  0  0  0  0  0  0  0  0  0  0  0  0
  1  2  2  0
  1  4  1  0
  1 17  4  0
  1 20  2  0
  2 19  4  0
  2 20  1  0
  2 22  4  0
  3  5  1  0
  3 17  4  0
  3 18  1  0
  3 20  2  0
  3 21  2  0
  3 22  2  0
  4  9  1  0
  4 11  4  0
  4 12  4  0
  4 15  2  0
  4 16  2  0
  4 18  3  0
  4 19  4  0
  4 21  2  0
  5  6  2  0
  5  8  3  0
  5 14  3  0
  5 15  3  0
  6  8  4  0
  6 11  4  0
  6 14  3  0
  6 15  1  0
  6 16  1  0
  6 17  3  0
  6 18  1  0
  6 20  3  0
  7  8  3  0
  7  9  2  0
  7 11  4  0
  7 20  1  0
  8 20  1  0
  8 22  1  0
  9 13  2  0
  9 20  1  0
 10 13  1  0
 10 14  4  0
 10 17  3  0
 10 20  4  0
 11 13  2  0
 11 19  2  0
 12 16  3  0
 12 18  4  0
 12 21  2  0
 13 19  4  0
 13 22  2  0
 14 16  1  0
 14 19  3  0
 14 21  4  0
 14 22  1  0
 15 16  2  0
 16 21  3  0
 16 22  2  0
 17 18  2  0
 19 21  4  0
 20 21  1  0
M  END
$$$$

 Created by Python create_sdf_string function

 30 53  0  0  0  0  0  0  0  0999 V2000
    6.7702    6.1530   19.0178 C   0  0  0  0  0  0  0  0  0  0  0  0
    7.1264    6.2551   22.9440 Cl  0  0  0  0  0  0  0  0  0  0  0  0
    5.5766    6.9187   20.1528 C   0  0  0  0  0  0  0  0  0  0  0  0
    7.2715    6.6840   22.3649 C   0  0  0  0  0  0  0  0  0  0  0  0
    8.8597    7.1306   22.5645 C   0  0  0  0  0  0  0  0  0  0  0  0
    9.3612    8.8134   16.4461 S   0  0  0  0  0  0  0  0  0  0  0  0
   12.3307    5.5639   22.1296 F   0  0  0  0  0  0  0  0  0  0  0  0
    4.8333    6.6394   19.0759 C   0  0  0  0  0  0  0  0  0  0  0  0
   12.1963    6.6473   19.2131 F   0  0  0  0  0  0  0  0  0  0  0  0
   11.5073    8.6410   19.2573 N   0  0  0  0  0  0  0  0  0  0  0  0
    9.2147    7.1082   16.1438 C   0  0  0  0  0  0  0  0  0  0  0  0
   10.6140    8.3825   16.8534 C   0  0  0  0  0  0  0  0  0  0  0  0
    6.4591    9.2941   23.3089 Cl  0  0  0  0  0  0  0  0  0  0  0  0
    6.2788    8.1860   20.7285 C   0  0  0  0  0  0  0  0  0  0  0  0
   10.4799    6.5395   21.9368 C   0  0  0  0  0  0  0  0  0  0  0  0
   11.5278    6.0834   21.4303 C   0  0  0  0  0  0  0  0  0  0  0  0
   10.8606    7.9054   17.2629 Br  0  0  0  0  0  0  0  0  0  0  0  0
    9.1120    6.9950   14.4445 O   0  0  0  0  0  0  0  0  0  0  0  0
   12.4376    5.6353   24.1635 P   0  0  0  0  0  0  0  0  0  0  0  0
    6.4156    8.0383   22.6576 N   0  0  0  0  0  0  0  0  0  0  0  0
   11.4435    5.1892   23.8830 C   0  0  0  0  0  0  0  0  0  0  0  0
   13.1270    5.1093   25.1114 O   0  0  0  0  0  0  0  0  0  0  0  0
    8.4704    7.0186   17.8405 He  0  0  0  0  0  0  0  0  0  0  0  0
    9.5993    5.8655   22.7890 He  0  0  0  0  0  0  0  0  0  0  0  0
    9.9256    6.9108   15.1581 He  0  0  0  0  0  0  0  0  0  0  0  0
   10.9684    6.5634   18.3166 He  0  0  0  0  0  0  0  0  0  0  0  0
    9.0350    7.3119   16.5244 He  0  0  0  0  0  0  0  0  0  0  0  0
    7.2633    7.7123   20.6941 He  0  0  0  0  0  0  0  0  0  0  0  0
   11.5808    7.0478   18.9241 He  0  0  0  0  0  0  0  0  0  0  0  0
    7.0411    5.3593   16.0181 He  0  0  0  0  0  0  0  0  0  0  0  0
  1  3  4  0
  1 11  4  0
  1 19  4  0
  1 20  2  0
  2  3  4  0
  2  5  1  0
  2  8  1  0
  2 14  2  0
  3  5  3  0
  3 21  3  0
  4  5  4  0
  4  6  1  0
  4 10  4  0
  4 13  2  0
  4 14  4  0
  5  6  2  0
  5 14  2  0
  5 17  3  0
  5 18  2  0
  6  9  2  0
  6 12  2  0
  6 13  4  0
  7 12  1  0
  7 13  2  0
  7 19  2  0
  8 14  4  0
  8 16  2  0
  8 20  3  0
  9 16  1  0
  9 17  1  0
  9 20  2  0
  9 21  1  0
 10 12  1  0
 10 13  1  0
 10 20  2  0
 10 22  1  0
 11 16  3  0
 11 17  1  0
 12 13  3  0
 12 18  2  0
 13 14  2  0
 13 15  1  0
 13 20  1  0
 14 15  1  0
 14 16  2  0
 15 16  4  0
 15 21  1  0
 16 18  1  0
 17 20  4  0
 18 19  3  0
 18 21  3  0
 19 21  3  0
 19 22  1  0
M  END
$$$$

 Created by Python create_sdf_string function

 30 41  0  0  0  0  0  0  0  0999 V2000
    7.8794    6.9208   18.6320 C   0  0  0  0  0  0  0  0  0  0  0  0
    5.8503    7.0651   24.2613 P   0  0  0  0  0  0  0  0  0  0  0  0
    7.0023    8.1892   17.1033 C   0  0  0  0  0  0  0  0  0  0  0  0
    9.7270    6.4828   22.0285 C   0  0  0  0  0  0  0  0  0  0  0  0
    9.9135    6.5755   15.9036 C   0  0  0  0  0  0  0  0  0  0  0  0
    8.1117    7.1232   22.6945 C   0  0  0  0  0  0  0  0  0  0  0  0
    9.3089   10.4440   17.3676 O   0  0  0  0  0  0  0  0  0  0  0  0
   12.0145    7.2211   19.7800 N   0  0  0  0  0  0  0  0  0  0  0  0
   10.4417    9.1678   19.5292 N   0  0  0  0  0  0  0  0  0  0  0  0
   10.6356    8.3206   17.5303 C   0  0  0  0  0  0  0  0  0  0  0  0
    6.9313    8.8693   22.8328 O   0  0  0  0  0  0  0  0  0  0  0  0
    6.7319    7.7341   20.8336 C   0  0  0  0  0  0  0  0  0  0  0  0
   11.1004    5.9327   18.9417 C   0  0  0  0  0  0  0  0  0  0  0  0
    8.1432    7.5062   18.0537 C   0  0  0  0  0  0  0  0  0  0  0  0
   11.0126    6.5054   21.1235 C   0  0  0  0  0  0  0  0  0  0  0  0
   10.8635    7.6222   17.0641 N   0  0  0  0  0  0  0  0  0  0  0  0
    9.7810    5.8699   14.7085 P   0  0  0  0  0  0  0  0  0  0  0  0
   12.7223    4.9749   24.3213 C   0  0  0  0  0  0  0  0  0  0  0  0
    6.2042    8.0350   22.4777 N   0  0  0  0  0  0  0  0  0  0  0  0
   10.0268    5.4356   23.0432 C   0  0  0  0  0  0  0  0  0  0  0  0
    5.5858    7.8369   19.6063 He  0  0  0  0  0  0  0  0  0  0  0  0
    7.7241    7.7213   21.6908 He  0  0  0  0  0  0  0  0  0  0  0  0
   13.6679    4.6375   22.5839 He  0  0  0  0  0  0  0  0  0  0  0  0
    5.8409    7.1539   20.1845 He  0  0  0  0  0  0  0  0  0  0  0  0
   10.1377    6.3918   15.6272 He  0  0  0  0  0  0  0  0  0  0  0  0
    9.6282    7.3163   19.6617 He  0  0  0  0  0  0  0  0  0  0  0  0
   11.3755    7.3056   19.4110 He  0  0  0  0  0  0  0  0  0  0  0  0
   11.6215    6.0174   21.2452 He  0  0  0  0  0  0  0  0  0  0  0  0
    7.6827    7.1187   15.5755 He  0  0  0  0  0  0  0  0  0  0  0  0
   12.8451    5.1277   24.7579 He  0  0  0  0  0  0  0  0  0  0  0  0
  1  3  1  0
  1  6  1  0
  1  9  2  0
  1 15  3  0
  1 19  2  0
  2  3  3  0
  2 11  4  0
  2 16  3  0
  3  5  3  0
  4  5  1  0
  4 14  3  0
  4 20  4  0
  5 11  2  0
  5 13  2  0
  5 18  3  0
  6 13  2  0
  6 14  1  0
  6 15  4  0
  6 16  1  0
  6 17  2  0
  7 10  2  0
  8 14  4  0
  9 10  3  0
  9 12  2  0
  9 13  4  0
  9 15  3  0
 10 13  2  0
 10 16  1  0
 11 12  2  0
 11 14  3  0
 12 14  2  0
 12 16  2  0
 12 18  1  0
 12 19  3  0
 12 20  1  0
 13 17  3  0
 13 19  1  0
 15 18  1  0
 16 18  4  0
 16 20  3  0
 17 20  4  0
M  END
$$$$

 Created by Python create_sdf_string function

 30 55  0  0  0  0  0  0  0  0999 V2000
    7.0630    8.3952   18.5183 C   0  0  0  0  0  0  0  0  0  0  0  0
    6.4445    7.2741   23.0350 C   0  0  0  0  0  0  0  0  0  0  0  0
    7.4237    6.7820   18.1780 N   0  0  0  0  0  0  0  0  0  0  0  0
    8.2015    6.9060   22.8450 C   0  0  0  0  0  0  0  0  0  0  0  0
    9.0000   10.7235   15.9070 O   0  0  0  0  0  0  0  0  0  0  0  0
   12.5534    5.1455   22.5010 C   0  0  0  0  0  0  0  0  0  0  0  0
   12.2909    6.9325   18.9890 O   0  0  0  0  0  0  0  0  0  0  0  0
    9.8814    8.7197   18.6079 S   0  0  0  0  0  0  0  0  0  0  0  0
    9.1481    9.1695   18.0666 C   0  0  0  0  0  0  0  0  0  0  0  0
    5.9002    8.7608   23.3464 C   0  0  0  0  0  0  0  0  0  0  0  0
    7.0085    7.8536   20.2441 S   0  0  0  0  0  0  0  0  0  0  0  0
   10.9025    5.0062   19.0628 Br  0  0  0  0  0  0  0  0  0  0  0  0
    7.7648    6.6409   17.9290 C   0  0  0  0  0  0  0  0  0  0  0  0
    9.5948    6.8255   19.9997 C   0  0  0  0  0  0  0  0  0  0  0  0
   12.4724    6.3014   20.8883 C   0  0  0  0  0  0  0  0  0  0  0  0
    8.1685    6.7534   15.8436 O   0  0  0  0  0  0  0  0  0  0  0  0
   10.2837    7.5869   17.1707 N   0  0  0  0  0  0  0  0  0  0  0  0
   11.7120    5.0948   23.7206 N   0  0  0  0  0  0  0  0  0  0  0  0
    5.9737    7.1698   22.2062 N   0  0  0  0  0  0  0  0  0  0  0  0
   10.0246    5.7282   23.4815 S   0  0  0  0  0  0  0  0  0  0  0  0
   12.4708    5.0381   24.7746 C   0  0  0  0  0  0  0  0  0  0  0  0
   10.5994    6.2800   22.6685 He  0  0  0  0  0  0  0  0  0  0  0  0
    6.2949    8.0272   18.5578 He  0  0  0  0  0  0  0  0  0  0  0  0
    8.5923    7.9603   21.8329 He  0  0  0  0  0  0  0  0  0  0  0  0
   11.1412    7.3172   15.4324 He  0  0  0  0  0  0  0  0  0  0  0  0
    5.7694    8.7071   19.5315 He  0  0  0  0  0  0  0  0  0  0  0  0
    9.6600    6.5513   16.3143 He  0  0  0  0  0  0  0  0  0  0  0  0
   11.5998    7.6171   19.4133 He  0  0  0  0  0  0  0  0  0  0  0  0
   12.3485    5.9083   21.0936 He  0  0  0  0  0  0  0  0  0  0  0  0
    9.9900    6.8152   15.4323 He  0  0  0  0  0  0  0  0  0  0  0  0
  1  2  3  0
  1  3  2  0
  1  5  4  0
  1 10  2  0
  1 13  4  0
  1 15  4  0
  2 10  4  0
  2 11  1  0
  2 12  4  0
  2 14  1  0
  2 15  1  0
  2 16  1  0
  2 20  2  0
  2 21  3  0
  3 13  4  0
  3 14  3  0
  3 15  4  0
  3 16  1  0
  3 20  2  0
  4  7  4  0
  4 16  4  0
  4 18  3  0
  5  6  2  0
  5  9  2  0
  5 14  1  0
  5 19  2  0
  7  9  2  0
  7 14  2  0
  7 18  1  0
  7 20  1  0
  8 13  2  0
  8 14  2  0
  8 16  3  0
  8 18  3  0
  8 20  1  0
  9 13  2  0
  9 17  4  0
  9 19  1  0
 10 11  2  0
 10 14  2  0
 10 15  1  0
 10 18  1  0
 10 19  4  0
 10 20  3  0
 11 14  3  0
 11 16  3  0
 11 19  4  0
 12 16  3  0
 12 18  2  0
 12 20  1  0
 13 15  4  0
 15 16  3  0
 17 20  2  0
 18 19  1  0
 18 20  4  0
M  END
$$$$

 Created by Python create_sdf_string function

 30 58  0  0  0  0  0  0  0  0999 V2000
    6.3922    8.7280   23.4995 C   0  0  0  0  0  0  0  0  0  0  0  0
    6.5250    6.9638   17.9829 N   0  0  0  0  0  0  0  0  0  0  0  0
   10.7787    6.8628   21.8596 C   0  0  0  0  0  0  0  0  0  0  0  0
    7.0847    8.1028   18.0940 C   0  0  0  0  0  0  0  0  0  0  0  0
    8.2605    7.7118   22.3192 C   0  0  0  0  0  0  0  0  0  0  0  0
   10.8690    6.8091   15.5077 C   0  0  0  0  0  0  0  0  0  0  0  0
    5.2562    9.3742   20.0381 O   0  0  0  0  0  0  0  0  0  0  0  0
   10.6747    9.3459   17.5848 I   0  0  0  0  0  0  0  0  0  0  0  0
    8.5414    6.6294   16.3182 C   0  0  0  0  0  0  0  0  0  0  0  0
    9.4974    8.9660   17.3699 C   0  0  0  0  0  0  0  0  0  0  0  0
    5.0545    7.3982   22.4431 N   0  0  0  0  0  0  0  0  0  0  0  0
    6.5981    6.9771   20.1479 C   0  0  0  0  0  0  0  0  0  0  0  0
    8.1131    6.7578   17.4685 C   0  0  0  0  0  0  0  0  0  0  0  0
   11.2038    7.4202   19.9918 N   0  0  0  0  0  0  0  0  0  0  0  0
   11.5610    5.9644   19.9801 C   0  0  0  0  0  0  0  0  0  0  0  0
   10.6511    6.0298   20.9933 C   0  0  0  0  0  0  0  0  0  0  0  0
    8.7462    6.6717   16.5630 C   0  0  0  0  0  0  0  0  0  0  0  0
    8.9630    7.7364   16.6485 C   0  0  0  0  0  0  0  0  0  0  0  0
   10.4600    6.9215   15.6029 C   0  0  0  0  0  0  0  0  0  0  0  0
    5.9150    8.0669   21.1779 C   0  0  0  0  0  0  0  0  0  0  0  0
   10.1435    4.9450   23.1603 O   0  0  0  0  0  0  0  0  0  0  0  0
    7.8619    8.6669   18.9394 He  0  0  0  0  0  0  0  0  0  0  0  0
    8.3526    7.8677   22.9593 He  0  0  0  0  0  0  0  0  0  0  0  0
    8.5468   10.2671   17.0180 He  0  0  0  0  0  0  0  0  0  0  0  0
   13.2729    5.4780   21.8501 He  0  0  0  0  0  0  0  0  0  0  0  0
   12.0011    6.9811   19.4319 He  0  0  0  0  0  0  0  0  0  0  0  0
   12.4876    5.0691   19.8127 He  0  0  0  0  0  0  0  0  0  0  0  0
    9.1194    7.9459   20.5581 He  0  0  0  0  0  0  0  0  0  0  0  0
   11.7919    4.9921   23.0674 He  0  0  0  0  0  0  0  0  0  0  0  0
   12.4920    3.9685   24.6203 He  0  0  0  0  0  0  0  0  0  0  0  0
  1  3  4  0
  1  7  3  0
  1 11  2  0
  1 15  1  0
  1 20  2  0
  2  3  1  0
  2 11  2  0
  2 13  3  0
  2 14  3  0
  2 15  1  0
  2 17  1  0
  2 20  4  0
  3  4  3  0
  3 15  4  0
  3 19  4  0
  3 20  2  0
  4 12  1  0
  4 14  2  0
  4 15  2  0
  5 15  4  0
  5 20  1  0
  6  9  4  0
  6 16  3  0
  6 19  4  0
  7  9  3  0
  7 11  4  0
  7 14  3  0
  7 16  3  0
  8 11  4  0
  8 13  4  0
  8 14  1  0
  8 20  2  0
  9 13  3  0
  9 14  4  0
  9 15  2  0
  9 17  4  0
  9 19  4  0
 10 11  1  0
 10 13  3  0
 10 14  2  0
 10 17  2  0
 10 19  4  0
 11 13  3  0
 11 15  1  0
 12 14  2  0
 12 19  3  0
 12 20  2  0
 13 14  1  0
 13 21  2  0
 14 15  1  0
 14 17  3  0
 14 20  1  0
 15 17  3  0
 15 21  2  0
 16 17  4  0
 17 18  2  0
 17 20  1  0
 20 21  1  0
M  END
$$$$

 Created by Python create_sdf_string function

 30 62  0  0  0  0  0  0  0  0999 V2000
    8.1428    9.0641   18.8002 F   0  0  0  0  0  0  0  0  0  0  0  0
    6.7713    8.6299   24.0250 C   0  0  0  0  0  0  0  0  0  0  0  0
   10.4809    6.6989   22.1895 C   0  0  0  0  0  0  0  0  0  0  0  0
    6.9125    7.4517   19.8838 C   0  0  0  0  0  0  0  0  0  0  0  0
    8.1087    8.5034   21.7279 C   0  0  0  0  0  0  0  0  0  0  0  0
   10.0287    6.0966   15.6783 C   0  0  0  0  0  0  0  0  0  0  0  0
    8.3040    7.6756   22.1632 C   0  0  0  0  0  0  0  0  0  0  0  0
    9.6334   10.6175   16.4842 O   0  0  0  0  0  0  0  0  0  0  0  0
   11.9261    5.7346   21.6826 C   0  0  0  0  0  0  0  0  0  0  0  0
    6.2778    7.7787   20.0619 O   0  0  0  0  0  0  0  0  0  0  0  0
    8.9819    5.5487   15.4646 S   0  0  0  0  0  0  0  0  0  0  0  0
    9.5066    9.0952   17.1170 C   0  0  0  0  0  0  0  0  0  0  0  0
    5.3510    7.3375   23.6111 N   0  0  0  0  0  0  0  0  0  0  0  0
    6.3837    7.3413   19.8190 N   0  0  0  0  0  0  0  0  0  0  0  0
    8.8002    7.6762   20.6608 N   0  0  0  0  0  0  0  0  0  0  0  0
   11.4728    7.9837   19.6772 N   0  0  0  0  0  0  0  0  0  0  0  0
   10.6212    6.6050   19.9975 C   0  0  0  0  0  0  0  0  0  0  0  0
   10.8093    6.9936   20.9208 C   0  0  0  0  0  0  0  0  0  0  0  0
    8.6840    6.4174   16.1002 C   0  0  0  0  0  0  0  0  0  0  0  0
    9.7899    7.9716   17.1041 C   0  0  0  0  0  0  0  0  0  0  0  0
   10.6174    7.7547   15.0876 C   0  0  0  0  0  0  0  0  0  0  0  0
   10.6856    4.5321   22.5037 C   0  0  0  0  0  0  0  0  0  0  0  0
    9.9067    5.0812   23.3981 O   0  0  0  0  0  0  0  0  0  0  0  0
   12.7761    4.3073   24.0436 O   0  0  0  0  0  0  0  0  0  0  0  0
    6.3141    6.5424   16.9656 He  0  0  0  0  0  0  0  0  0  0  0  0
   12.6151    6.5306   19.4959 He  0  0  0  0  0  0  0  0  0  0  0  0
   11.2183    9.0737   17.9483 He  0  0  0  0  0  0  0  0  0  0  0  0
   11.9237    5.4091   19.8425 He  0  0  0  0  0  0  0  0  0  0  0  0
    8.6058    6.5796   17.6861 He  0  0  0  0  0  0  0  0  0  0  0  0
    6.9686    8.9963   20.7407 He  0  0  0  0  0  0  0  0  0  0  0  0
  1  6  2  0
  1  8  3  0
  1 17  2  0
  1 18  3  0
  1 24  4  0
  2  4  4  0
  2  7  3  0
  2  9  3  0
  2 13  1  0
  2 18  1  0
  2 19  4  0
  2 22  2  0
  3  5  2  0
  3 10  4  0
  3 21  2  0
  3 23  4  0
  4  5  1  0
  4 10  3  0
  4 12  4  0
  4 20  4  0
  5  8  1  0
  5 10  4  0
  6  7  1  0
  6 11  4  0
  6 14  2  0
  6 21  4  0
  7  9  2  0
  7 20  2  0
  7 21  1  0
  8 12  1  0
  8 19  2  0
  8 21  4  0
  8 23  4  0
  9 11  4  0
  9 16  3  0
  9 20  2  0
  9 21  2  0
  9 22  4  0
 10 15  4  0
 10 20  2  0
 10 21  4  0
 10 22  3  0
 10 24  3  0
 11 18  3  0
 11 19  4  0
 12 19  1  0
 13 16  4  0
 13 18  3  0
 14 19  4  0
 14 24  2  0
 15 18  4  0
 16 19  1  0
 16 21  3  0
 17 20  2  0
 17 22  1  0
 18 20  1  0
 18 23  4  0
 19 21  3  0
 20 22  3  0
 20 23  3  0
 21 24  3  0
 22 24  1  0
M  END
$$$$

 Created by Python create_sdf_string function

 30 53  0  0  0  0  0  0  0  0999 V2000
    7.5004    7.8640   18.9153 N   0  0  0  0  0  0  0  0  0  0  0  0
    6.5095    8.7050   25.0484 C   0  0  0  0  0  0  0  0  0  0  0  0
    7.4912    6.7626   18.2377 O   0  0  0  0  0  0  0  0  0  0  0  0
   10.0009    6.1576   22.5440 C   0  0  0  0  0  0  0  0  0  0  0  0
    7.5232    7.3152   18.9780 C   0  0  0  0  0  0  0  0  0  0  0  0
    7.6969    7.6945   21.7761 C   0  0  0  0  0  0  0  0  0  0  0  0
   10.3499    6.4173   15.7901 C   0  0  0  0  0  0  0  0  0  0  0  0
    9.5172   10.6589   16.4068 O   0  0  0  0  0  0  0  0  0  0  0  0
   11.8560    4.8602   22.4694 C   0  0  0  0  0  0  0  0  0  0  0  0
    5.9847    7.8713   20.4650 O   0  0  0  0  0  0  0  0  0  0  0  0
   11.1751    9.1245   17.6702 S   0  0  0  0  0  0  0  0  0  0  0  0
    8.7949    5.5134   15.2131 C   0  0  0  0  0  0  0  0  0  0  0  0
    7.4190    7.0990   20.7713 N   0  0  0  0  0  0  0  0  0  0  0  0
    7.8793    6.3714   17.4239 C   0  0  0  0  0  0  0  0  0  0  0  0
    9.8517    7.3355   20.8418 O   0  0  0  0  0  0  0  0  0  0  0  0
   11.8667    8.1508   19.7170 N   0  0  0  0  0  0  0  0  0  0  0  0
   10.5267    6.5233   21.3695 C   0  0  0  0  0  0  0  0  0  0  0  0
   11.3478    7.5481   15.5184 Cl  0  0  0  0  0  0  0  0  0  0  0  0
   11.0570    4.8636   22.8614 C   0  0  0  0  0  0  0  0  0  0  0  0
    7.1819    8.6356   20.9011 O   0  0  0  0  0  0  0  0  0  0  0  0
    9.9322    5.4035   22.5541 C   0  0  0  0  0  0  0  0  0  0  0  0
   12.2563    4.0689   23.2442 F   0  0  0  0  0  0  0  0  0  0  0  0
    7.8817    7.7625   24.0574 He  0  0  0  0  0  0  0  0  0  0  0  0
   13.5496    6.0032   19.4676 He  0  0  0  0  0  0  0  0  0  0  0  0
    9.6919    8.4937   17.5615 He  0  0  0  0  0  0  0  0  0  0  0  0
    5.5465    8.3075   23.8977 He  0  0  0  0  0  0  0  0  0  0  0  0
   12.1018    5.8674   20.2491 He  0  0  0  0  0  0  0  0  0  0  0  0
   10.7846    6.2253   20.8595 He  0  0  0  0  0  0  0  0  0  0  0  0
    8.4415    6.5204   15.9359 He  0  0  0  0  0  0  0  0  0  0  0  0
    9.3543    8.3098   17.4330 He  0  0  0  0  0  0  0  0  0  0  0  0
  1  2  3  0
  1 16  3  0
  1 18  1  0
  2  8  1  0
  2  9  2  0
  2 10  4  0
  2 16  4  0
  2 17  4  0
  3  6  3  0
  3  9  4  0
  3 14  1  0
  4  6  4  0
  4  9  1  0
  4 10  4  0
  4 19  3  0
  4 21  4  0
  5  8  4  0
  5 13  1  0
  5 20  2  0
  5 21  1  0
  5 22  4  0
  6 12  2  0
  6 20  1  0
  7  9  4  0
  7 11  3  0
  7 12  4  0
  7 15  2  0
  7 18  4  0
  7 21  1  0
  8 14  1  0
  8 17  2  0
  8 21  1  0
  9 11  3  0
  9 12  1  0
  9 14  2  0
  9 19  4  0
 10 13  2  0
 10 16  1  0
 11 20  4  0
 12 21  4  0
 12 22  1  0
 13 14  1  0
 13 15  4  0
 13 20  4  0
 13 22  1  0
 14 20  1  0
 15 16  3  0
 15 21  3  0
 17 21  2  0
 18 19  1  0
 18 20  1  0
 19 21  4  0
 19 22  1  0
M  END
$$$$

 Created by Python create_sdf_string function

 30 42  0  0  0  0  0  0  0  0999 V2000
    8.2510    6.9222   18.2669 O   0  0  0  0  0  0  0  0  0  0  0  0
   10.0606    6.7507   21.5074 C   0  0  0  0  0  0  0  0  0  0  0  0
    7.7407    7.9716   19.6225 F   0  0  0  0  0  0  0  0  0  0  0  0
   10.7421    6.7953   15.2426 Cl  0  0  0  0  0  0  0  0  0  0  0  0
    9.6268   10.4729   16.9068 F   0  0  0  0  0  0  0  0  0  0  0  0
    4.9517    8.2040   20.2462 O   0  0  0  0  0  0  0  0  0  0  0  0
   12.9822    6.1029   19.5770 C   0  0  0  0  0  0  0  0  0  0  0  0
   10.6474    9.7557   18.4471 O   0  0  0  0  0  0  0  0  0  0  0  0
    9.4347    5.6646   15.1824 C   0  0  0  0  0  0  0  0  0  0  0  0
    7.9512    7.8592   19.5708 B   0  0  0  0  0  0  0  0  0  0  0  0
   12.3876    5.3499   20.6294 N   0  0  0  0  0  0  0  0  0  0  0  0
    7.9466    6.0187   17.1341 C   0  0  0  0  0  0  0  0  0  0  0  0
    8.6155    6.8716   21.1179 C   0  0  0  0  0  0  0  0  0  0  0  0
   11.1524    7.6195   19.9354 O   0  0  0  0  0  0  0  0  0  0  0  0
   10.4867    6.0414   21.3220 N   0  0  0  0  0  0  0  0  0  0  0  0
    9.9021    6.6631   20.5531 C   0  0  0  0  0  0  0  0  0  0  0  0
    7.9236    5.3333   15.9110 C   0  0  0  0  0  0  0  0  0  0  0  0
   11.1523    7.9565   15.5717 C   0  0  0  0  0  0  0  0  0  0  0  0
    8.8382    6.2404   23.7195 C   0  0  0  0  0  0  0  0  0  0  0  0
   11.3013    3.3193   23.4423 C   0  0  0  0  0  0  0  0  0  0  0  0
    8.4854    8.2497   19.3057 He  0  0  0  0  0  0  0  0  0  0  0  0
    6.8868    8.5747   23.0238 He  0  0  0  0  0  0  0  0  0  0  0  0
    7.9895    8.0042   23.4221 He  0  0  0  0  0  0  0  0  0  0  0  0
    7.6102    8.4522   23.5096 He  0  0  0  0  0  0  0  0  0  0  0  0
   12.2901    5.5195   21.7845 He  0  0  0  0  0  0  0  0  0  0  0  0
    9.6279    8.3304   17.2945 He  0  0  0  0  0  0  0  0  0  0  0  0
    5.4925    8.5770   24.2858 He  0  0  0  0  0  0  0  0  0  0  0  0
    8.9200    7.8164   16.2707 He  0  0  0  0  0  0  0  0  0  0  0  0
   11.3057    5.1860   22.8840 He  0  0  0  0  0  0  0  0  0  0  0  0
    7.6304    8.7461   21.8306 He  0  0  0  0  0  0  0  0  0  0  0  0
  1  3  1  0
  1  5  4  0
  1  6  3  0
  1  9  4  0
  1 17  1  0
  2 10  4  0
  2 16  3  0
  2 17  4  0
  2 19  2  0
  3  4  2  0
  3  8  3  0
  3 10  1  0
  3 17  2  0
  4  7  2  0
  4  9  4  0
  4 14  2  0
  5 10  2  0
  5 12  2  0
  5 15  4  0
  5 16  2  0
  5 19  2  0
  6 10  2  0
  6 13  3  0
  6 14  2  0
  6 17  3  0
  7 11  4  0
  7 14  4  0
  7 17  2  0
  7 19  3  0
  8 13  2  0
  9 10  3  0
  9 17  4  0
 10 18  3  0
 11 15  4  0
 11 18  3  0
 12 16  3  0
 12 17  1  0
 13 14  1  0
 14 15  4  0
 14 19  4  0
 15 18  2  0
 17 20  2  0
M  END
$$$$

 Created by Python create_sdf_string function

 30 72  0  0  0  0  0  0  0  0999 V2000
    8.2057    8.9937   19.2834 O   0  0  0  0  0  0  0  0  0  0  0  0
    7.0451    8.1607   23.9518 C   0  0  0  0  0  0  0  0  0  0  0  0
    7.8186    7.7598   18.1828 O   0  0  0  0  0  0  0  0  0  0  0  0
    7.6959    7.8612   19.2200 C   0  0  0  0  0  0  0  0  0  0  0  0
    8.5019    8.5028   24.0262 C   0  0  0  0  0  0  0  0  0  0  0  0
   10.2696    6.7343   14.8079 C   0  0  0  0  0  0  0  0  0  0  0  0
    7.2200    8.8545   24.3818 N   0  0  0  0  0  0  0  0  0  0  0  0
    8.3106   10.3740   17.0616 O   0  0  0  0  0  0  0  0  0  0  0  0
    5.5357    7.1572   19.9841 B   0  0  0  0  0  0  0  0  0  0  0  0
   12.0986    5.6672   19.7085 C   0  0  0  0  0  0  0  0  0  0  0  0
   11.0104    8.5135   17.2970 O   0  0  0  0  0  0  0  0  0  0  0  0
   10.1548    6.0055   15.2435 C   0  0  0  0  0  0  0  0  0  0  0  0
    9.2502    8.5352   17.7416 C   0  0  0  0  0  0  0  0  0  0  0  0
    5.2628    8.2528   24.0081 O   0  0  0  0  0  0  0  0  0  0  0  0
   13.1706    5.1635   20.5378 N   0  0  0  0  0  0  0  0  0  0  0  0
    8.6123    6.1245   17.4433 C   0  0  0  0  0  0  0  0  0  0  0  0
    8.4278    7.9626   21.3122 C   0  0  0  0  0  0  0  0  0  0  0  0
   10.2956    7.0555   20.6433 C   0  0  0  0  0  0  0  0  0  0  0  0
    9.7964    6.4801   20.2051 F   0  0  0  0  0  0  0  0  0  0  0  0
    9.4917    6.1863   15.8103 C   0  0  0  0  0  0  0  0  0  0  0  0
    9.6284    6.9421   16.2561 C   0  0  0  0  0  0  0  0  0  0  0  0
    9.8946    7.1751   16.1744 N   0  0  0  0  0  0  0  0  0  0  0  0
   11.2924    4.7663   22.1951 S   0  0  0  0  0  0  0  0  0  0  0  0
    7.5094    8.4715   21.6971 N   0  0  0  0  0  0  0  0  0  0  0  0
    8.7376    6.0813   23.7596 C   0  0  0  0  0  0  0  0  0  0  0  0
   11.8300    4.0505   23.2462 C   0  0  0  0  0  0  0  0  0  0  0  0
    9.1967    6.3774   23.0720 He  0  0  0  0  0  0  0  0  0  0  0  0
   11.7150    5.0967   21.6116 He  0  0  0  0  0  0  0  0  0  0  0  0
    7.4135    7.6096   20.3379 He  0  0  0  0  0  0  0  0  0  0  0  0
   12.4571    7.6014   20.1897 He  0  0  0  0  0  0  0  0  0  0  0  0
  1  4  1  0
  1  7  3  0
  1  9  2  0
  1 12  3  0
  1 13  1  0
  1 16  3  0
  1 18  4  0
  1 23  4  0
  1 25  1  0
  2  4  3  0
  2  7  1  0
  2  8  3  0
  2 14  2  0
  2 20  4  0
  2 24  4  0
  3  4  1  0
  3  5  2  0
  3  7  2  0
  3  9  3  0
  3 25  3  0
  4 12  3  0
  4 15  3  0
  4 16  4  0
  4 18  2  0
  4 20  1  0
  4 26  3  0
  5 10  1  0
  5 15  4  0
  5 24  1  0
  5 25  1  0
  6 12  2  0
  6 16  4  0
  6 19  3  0
  7 23  2  0
  7 24  4  0
  8  9  4  0
  8 13  1  0
  8 17  3  0
  9 20  4  0
  9 22  3  0
  9 24  1  0
  9 25  1  0
 10 15  2  0
 11 13  2  0
 11 18  1  0
 11 19  3  0
 11 21  2  0
 11 24  2  0
 12 20  4  0
 12 21  2  0
 13 15  2  0
 13 20  4  0
 13 22  1  0
 13 26  3  0
 14 17  3  0
 14 18  4  0
 15 18  2  0
 15 19  2  0
 15 24  3  0
 16 19  3  0
 16 20  4  0
 16 21  4  0
 16 25  1  0
 17 19  1  0
 18 19  4  0
 18 20  3  0
 18 23  2  0
 19 20  1  0
 19 22  4  0
 19 26  3  0
 23 24  2  0
 23 26  1  0
M  END
$$$$

 Created by Python create_sdf_string function

 30 53  0  0  0  0  0  0  0  0999 V2000
    8.7575    8.7560   19.2268 B   0  0  0  0  0  0  0  0  0  0  0  0
    6.7971    7.9600   23.1289 C   0  0  0  0  0  0  0  0  0  0  0  0
    8.9483    6.2693   22.2421 C   0  0  0  0  0  0  0  0  0  0  0  0
    7.6812    7.3441   18.7490 C   0  0  0  0  0  0  0  0  0  0  0  0
    8.4968    7.9767   23.4632 N   0  0  0  0  0  0  0  0  0  0  0  0
    8.7116   10.9370   17.3569 Se  0  0  0  0  0  0  0  0  0  0  0  0
   12.0638    5.9245   21.5630 C   0  0  0  0  0  0  0  0  0  0  0  0
    5.5050    7.6264   20.6889 O   0  0  0  0  0  0  0  0  0  0  0  0
   12.7354    6.6606   19.1755 C   0  0  0  0  0  0  0  0  0  0  0  0
   10.8943    9.1241   17.7811 O   0  0  0  0  0  0  0  0  0  0  0  0
   10.2471    5.7456   14.8006 C   0  0  0  0  0  0  0  0  0  0  0  0
    8.9711    9.9802   17.8092 C   0  0  0  0  0  0  0  0  0  0  0  0
   12.4229    4.5426   19.9703 N   0  0  0  0  0  0  0  0  0  0  0  0
    9.2675    5.5861   16.9469 C   0  0  0  0  0  0  0  0  0  0  0  0
    8.0888    7.3919   20.1780 O   0  0  0  0  0  0  0  0  0  0  0  0
   12.1431    7.6000   19.8709 N   0  0  0  0  0  0  0  0  0  0  0  0
   10.4445    6.7738   20.5017 C   0  0  0  0  0  0  0  0  0  0  0  0
    9.6917    6.9706   21.1367 C   0  0  0  0  0  0  0  0  0  0  0  0
    9.0695    5.0947   16.3412 C   0  0  0  0  0  0  0  0  0  0  0  0
   10.0942    8.2593   14.8435 C   0  0  0  0  0  0  0  0  0  0  0  0
   11.6914    5.0282   21.7378 F   0  0  0  0  0  0  0  0  0  0  0  0
    6.8929    8.3405   22.2571 N   0  0  0  0  0  0  0  0  0  0  0  0
    8.4391    6.9697   24.2972 C   0  0  0  0  0  0  0  0  0  0  0  0
   11.6808    4.0853   23.0406 C   0  0  0  0  0  0  0  0  0  0  0  0
    7.6567    7.9252   18.3583 He  0  0  0  0  0  0  0  0  0  0  0  0
   10.8370    7.0875   15.3644 He  0  0  0  0  0  0  0  0  0  0  0  0
    6.3584    9.0789   25.1225 He  0  0  0  0  0  0  0  0  0  0  0  0
    5.7377    8.4066   23.7564 He  0  0  0  0  0  0  0  0  0  0  0  0
    7.4471    7.5519   20.8661 He  0  0  0  0  0  0  0  0  0  0  0  0
    9.6389    7.3243   16.5933 He  0  0  0  0  0  0  0  0  0  0  0  0
  1  4  1  0
  1 12  1  0
  1 14  1  0
  1 21  4  0
  2  6  3  0
  2 12  1  0
  2 17  2  0
  2 19  2  0
  3 12  1  0
  3 13  4  0
  3 18  4  0
  3 23  1  0
  4  8  3  0
  4 14  2  0
  4 22  2  0
  5  7  3  0
  5 23  1  0
  6  7  1  0
  6 11  1  0
  6 12  1  0
  6 18  1  0
  6 21  3  0
  6 23  1  0
  7  8  3  0
  7  9  3  0
  7 11  4  0
  7 12  4  0
  7 13  4  0
  7 14  3  0
  7 17  3  0
  7 21  4  0
  8 16  1  0
  9 11  2  0
  9 13  2  0
  9 16  4  0
 10 15  4  0
 11 14  2  0
 11 15  3  0
 11 19  4  0
 11 21  3  0
 12 14  4  0
 12 23  4  0
 12 24  4  0
 13 18  4  0
 13 23  3  0
 14 19  1  0
 14 21  2  0
 14 23  4  0
 15 18  1  0
 17 22  4  0
 18 22  2  0
 21 24  1  0
 22 23  4  0
M  END
$$$$

 Created by Python create_sdf_string function

 30 66  0  0  0  0  0  0  0  0999 V2000
    6.5160    8.1728   23.0514 C   0  0  0  0  0  0  0  0  0  0  0  0
    7.3811    7.7866   18.5458 C   0  0  0  0  0  0  0  0  0  0  0  0
    8.9101    6.3279   21.8835 C   0  0  0  0  0  0  0  0  0  0  0  0
    7.4014    7.7986   19.1970 C   0  0  0  0  0  0  0  0  0  0  0  0
    9.1319    7.2768   23.6375 N   0  0  0  0  0  0  0  0  0  0  0  0
   10.2584    6.4636   14.5262 N   0  0  0  0  0  0  0  0  0  0  0  0
    7.2693    8.1362   25.5404 N   0  0  0  0  0  0  0  0  0  0  0  0
    8.8627   10.5883   17.0705 O   0  0  0  0  0  0  0  0  0  0  0  0
    5.2522    8.2441   21.0644 O   0  0  0  0  0  0  0  0  0  0  0  0
   10.8883    9.3810   17.4328 N   0  0  0  0  0  0  0  0  0  0  0  0
   10.9810    4.8327   14.7618 S   0  0  0  0  0  0  0  0  0  0  0  0
    8.9079    9.2565   18.5926 C   0  0  0  0  0  0  0  0  0  0  0  0
    5.7828    7.8317   23.8325 O   0  0  0  0  0  0  0  0  0  0  0  0
    7.5160    8.0136   21.8987 C   0  0  0  0  0  0  0  0  0  0  0  0
   12.1015    5.0587   19.6547 S   0  0  0  0  0  0  0  0  0  0  0  0
    8.8729    6.5488   20.9989 N   0  0  0  0  0  0  0  0  0  0  0  0
   11.4788    7.5950   19.9374 N   0  0  0  0  0  0  0  0  0  0  0  0
   10.1636    7.2292   20.7588 C   0  0  0  0  0  0  0  0  0  0  0  0
    9.7683    4.8239   15.5922 N   0  0  0  0  0  0  0  0  0  0  0  0
    9.5676    7.0177   16.3969 C   0  0  0  0  0  0  0  0  0  0  0  0
    9.6399    6.8976   16.2177 C   0  0  0  0  0  0  0  0  0  0  0  0
   10.9849    5.1930   22.2632 C   0  0  0  0  0  0  0  0  0  0  0  0
    6.5535    8.2962   22.8989 F   0  0  0  0  0  0  0  0  0  0  0  0
    8.5689    7.2332   23.9517 C   0  0  0  0  0  0  0  0  0  0  0  0
   10.8703    4.2051   23.0089 C   0  0  0  0  0  0  0  0  0  0  0  0
    9.2977    9.2156   18.8499 He  0  0  0  0  0  0  0  0  0  0  0  0
   11.8699    5.8036   21.7596 He  0  0  0  0  0  0  0  0  0  0  0  0
   13.1587    5.8795   18.7396 He  0  0  0  0  0  0  0  0  0  0  0  0
    8.4460    5.4509   17.0296 He  0  0  0  0  0  0  0  0  0  0  0  0
   10.4503    6.1029   20.4722 He  0  0  0  0  0  0  0  0  0  0  0  0
  1  7  1  0
  1 12  1  0
  1 14  4  0
  1 16  4  0
  1 20  4  0
  1 23  1  0
  2  4  1  0
  2  6  3  0
  2 15  3  0
  2 18  3  0
  2 20  4  0
  2 23  4  0
  2 24  2  0
  3 10  4  0
  3 12  3  0
  3 18  4  0
  3 19  2  0
  3 21  4  0
  3 23  1  0
  3 24  1  0
  4  7  2  0
  4 13  2  0
  4 21  3  0
  4 22  1  0
  5  7  3  0
  5 20  3  0
  6 16  2  0
  6 22  4  0
  7 13  1  0
  7 20  2  0
  8 10  1  0
  8 12  4  0
  9 11  1  0
  9 14  2  0
  9 16  4  0
  9 19  3  0
  9 20  3  0
  9 22  1  0
 10 12  2  0
 10 14  2  0
 10 15  3  0
 10 21  1  0
 10 23  1  0
 10 25  3  0
 11 15  2  0
 11 19  4  0
 12 15  4  0
 12 18  1  0
 13 17  1  0
 13 24  2  0
 14 16  1  0
 14 23  3  0
 14 25  2  0
 15 25  4  0
 16 18  1  0
 16 21  4  0
 17 20  1  0
 17 21  2  0
 17 24  1  0
 18 22  2  0
 18 25  3  0
 19 20  1  0
 20 21  4  0
 21 25  2  0
 22 23  3  0
 22 25  1  0
M  END
$$$$

 Created by Python create_sdf_string function

 30 48  0  0  0  0  0  0  0  0999 V2000
    8.7594    9.5301   18.8768 N   0  0  0  0  0  0  0  0  0  0  0  0
    7.5079    8.4917   24.0383 C   0  0  0  0  0  0  0  0  0  0  0  0
    8.2968    7.0239   18.6516 C   0  0  0  0  0  0  0  0  0  0  0  0
    8.0000    8.0559   19.5512 C   0  0  0  0  0  0  0  0  0  0  0  0
    7.1803    7.4109   25.3559 N   0  0  0  0  0  0  0  0  0  0  0  0
    8.9804   10.1852   17.2785 O   0  0  0  0  0  0  0  0  0  0  0  0
   11.5964    5.3193   20.3933 C   0  0  0  0  0  0  0  0  0  0  0  0
    5.4587    7.7798   21.4700 O   0  0  0  0  0  0  0  0  0  0  0  0
    9.7555    8.4774   18.0127 C   0  0  0  0  0  0  0  0  0  0  0  0
    5.3814    8.1453   24.1579 O   0  0  0  0  0  0  0  0  0  0  0  0
    6.8112    8.6619   21.4487 N   0  0  0  0  0  0  0  0  0  0  0  0
   12.4844    4.9588   20.1768 S   0  0  0  0  0  0  0  0  0  0  0  0
    8.4310    5.0603   16.4350 C   0  0  0  0  0  0  0  0  0  0  0  0
    9.2510    8.3442   20.2124 N   0  0  0  0  0  0  0  0  0  0  0  0
   11.9882    7.4595   19.6740 C   0  0  0  0  0  0  0  0  0  0  0  0
    9.2107    7.2444   20.2873 C   0  0  0  0  0  0  0  0  0  0  0  0
    9.3743    4.7030   15.7509 O   0  0  0  0  0  0  0  0  0  0  0  0
    9.6565    7.7278   16.6851 C   0  0  0  0  0  0  0  0  0  0  0  0
   10.3030    7.2973   16.4504 C   0  0  0  0  0  0  0  0  0  0  0  0
   11.1548    5.4819   22.6718 C   0  0  0  0  0  0  0  0  0  0  0  0
    5.9134    8.0239   22.9864 C   0  0  0  0  0  0  0  0  0  0  0  0
    9.2377    7.1461   23.0319 C   0  0  0  0  0  0  0  0  0  0  0  0
    9.4713    6.3948   22.6043 He  0  0  0  0  0  0  0  0  0  0  0  0
    9.2815    6.7228   24.5099 He  0  0  0  0  0  0  0  0  0  0  0  0
   10.4994    6.4780   15.0865 He  0  0  0  0  0  0  0  0  0  0  0  0
   12.2635    6.6074   19.2114 He  0  0  0  0  0  0  0  0  0  0  0  0
   11.4423    8.8594   17.5676 He  0  0  0  0  0  0  0  0  0  0  0  0
   11.1248    6.0707   14.6770 He  0  0  0  0  0  0  0  0  0  0  0  0
   11.3953    6.1411   20.9810 He  0  0  0  0  0  0  0  0  0  0  0  0
   10.3207    4.2748   23.2595 He  0  0  0  0  0  0  0  0  0  0  0  0
  1  4  1  0
  1  7  4  0
  1  8  2  0
  1  9  1  0
  1 13  1  0
  1 18  1  0
  1 22  4  0
  2  4  2  0
  2  6  4  0
  2  8  1  0
  2 12  3  0
  2 17  4  0
  2 21  1  0
  2 22  1  0
  3 18  1  0
  4 12  4  0
  4 13  3  0
  4 20  3  0
  5  8  1  0
  5 11  1  0
  5 12  1  0
  5 13  2  0
  5 20  3  0
  5 21  1  0
  6  8  4  0
  6  9  2  0
  6 22  2  0
  7 12  3  0
  7 13  4  0
  7 15  1  0
  7 20  4  0
  7 22  4  0
  8 15  3  0
  8 20  3  0
  9 11  4  0
  9 15  3  0
  9 17  3  0
 10 14  2  0
 10 21  1  0
 11 15  3  0
 12 13  3  0
 13 15  2  0
 13 17  4  0
 14 16  1  0
 17 19  3  0
 17 22  3  0
 18 21  3  0
 19 21  1  0
M  END
$$$$

 Created by Python create_sdf_string function

 30 60  0  0  0  0  0  0  0  0999 V2000
    8.5017    9.1524   18.5190 B   0  0  0  0  0  0  0  0  0  0  0  0
    7.6846    8.6458   22.8692 C   0  0  0  0  0  0  0  0  0  0  0  0
    8.5093    7.3222   17.1409 C   0  0  0  0  0  0  0  0  0  0  0  0
    9.5180    7.0566   22.4782 C   0  0  0  0  0  0  0  0  0  0  0  0
    7.4256    8.2374   19.6009 N   0  0  0  0  0  0  0  0  0  0  0  0
    8.5429    6.3293   24.5008 O   0  0  0  0  0  0  0  0  0  0  0  0
   10.5710    6.9714   15.1164 Se  0  0  0  0  0  0  0  0  0  0  0  0
    7.3638    7.5160   25.2157 N   0  0  0  0  0  0  0  0  0  0  0  0
    8.9465    9.4532   17.3443 O   0  0  0  0  0  0  0  0  0  0  0  0
   12.0231    5.2058   20.6687 C   0  0  0  0  0  0  0  0  0  0  0  0
   12.7977    5.6956   19.6026 O   0  0  0  0  0  0  0  0  0  0  0  0
   10.8946    8.5900   18.3637 S   0  0  0  0  0  0  0  0  0  0  0  0
   10.2963    5.4795   14.8825 N   0  0  0  0  0  0  0  0  0  0  0  0
    5.3293    7.7224   23.8112 C   0  0  0  0  0  0  0  0  0  0  0  0
    7.8807    8.5077   20.9785 C   0  0  0  0  0  0  0  0  0  0  0  0
   12.9226    6.0381   20.2352 S   0  0  0  0  0  0  0  0  0  0  0  0
    9.0564    4.9869   16.5810 P   0  0  0  0  0  0  0  0  0  0  0  0
    8.9535    7.8867   21.3491 N   0  0  0  0  0  0  0  0  0  0  0  0
   11.5420    7.5385   19.4776 C   0  0  0  0  0  0  0  0  0  0  0  0
   11.0754    6.3693   20.2542 C   0  0  0  0  0  0  0  0  0  0  0  0
    9.3695    7.2305   20.8513 N   0  0  0  0  0  0  0  0  0  0  0  0
    9.5793    6.8943   16.8178 F   0  0  0  0  0  0  0  0  0  0  0  0
   10.5938    7.5038   16.8777 C   0  0  0  0  0  0  0  0  0  0  0  0
   10.6814    5.4811   21.8935 S   0  0  0  0  0  0  0  0  0  0  0  0
    6.1134    7.6525   23.9521 C   0  0  0  0  0  0  0  0  0  0  0  0
    8.4611    7.5485   23.2845 C   0  0  0  0  0  0  0  0  0  0  0  0
   10.5587    4.2241   23.1328 F   0  0  0  0  0  0  0  0  0  0  0  0
    5.1576    8.1636   21.4260 He  0  0  0  0  0  0  0  0  0  0  0  0
    9.7668    8.6180   17.9832 He  0  0  0  0  0  0  0  0  0  0  0  0
    9.5493    5.1382   15.3120 He  0  0  0  0  0  0  0  0  0  0  0  0
  1  3  3  0
  1 10  2  0
  1 19  4  0
  1 22  4  0
  1 27  1  0
  2  4  1  0
  2 14  2  0
  2 19  2  0
  2 22  1  0
  2 25  1  0
  2 26  1  0
  2 27  4  0
  3 12  2  0
  3 17  4  0
  3 22  1  0
  3 26  4  0
  4 21  4  0
  4 24  4  0
  4 26  1  0
  5 21  3  0
  5 27  1  0
  6 19  4  0
  7  9  1  0
  7 19  1  0
  7 23  4  0
  7 27  2  0
  8 13  2  0
  9 24  4  0
  9 25  1  0
 10 11  1  0
 10 16  4  0
 10 20  4  0
 10 23  3  0
 10 24  4  0
 11 12  2  0
 11 20  3  0
 11 27  3  0
 12 13  1  0
 13 14  4  0
 13 18  3  0
 13 22  4  0
 13 24  1  0
 13 27  3  0
 14 24  4  0
 14 25  1  0
 15 18  1  0
 15 20  3  0
 16 25  1  0
 18 19  2  0
 18 21  1  0
 18 22  3  0
 18 26  4  0
 18 27  4  0
 19 22  2  0
 19 25  1  0
 23 25  2  0
 23 27  2  0
 24 25  3  0
 24 27  1  0
 26 27  4  0
M  END
$$$$

 Created by Python create_sdf_string function

 30 75  0  0  0  0  0  0  0  0999 V2000
    8.5604    8.8691   18.7719 C   0  0  0  0  0  0  0  0  0  0  0  0
    7.1950    8.2924   22.6994 Br  0  0  0  0  0  0  0  0  0  0  0  0
    8.8597    7.2587   17.5409 C   0  0  0  0  0  0  0  0  0  0  0  0
   10.1828    6.4569   22.1414 C   0  0  0  0  0  0  0  0  0  0  0  0
    7.0209    7.9543   19.7436 N   0  0  0  0  0  0  0  0  0  0  0  0
   11.6557    6.0409   14.3433 C   0  0  0  0  0  0  0  0  0  0  0  0
    7.0930    6.5894   24.8944 N   0  0  0  0  0  0  0  0  0  0  0  0
    9.1278    9.3569   17.3836 O   0  0  0  0  0  0  0  0  0  0  0  0
   11.2841    5.8592   21.4295 C   0  0  0  0  0  0  0  0  0  0  0  0
    6.3138    9.6985   21.4829 C   0  0  0  0  0  0  0  0  0  0  0  0
   13.2089    5.7940   19.1933 F   0  0  0  0  0  0  0  0  0  0  0  0
   11.2066    9.0467   18.2754 C   0  0  0  0  0  0  0  0  0  0  0  0
    9.3882    8.6107   17.9450 C   0  0  0  0  0  0  0  0  0  0  0  0
    5.2129    7.9618   23.9760 C   0  0  0  0  0  0  0  0  0  0  0  0
    7.1575    8.7652   20.3973 C   0  0  0  0  0  0  0  0  0  0  0  0
    9.3230    5.7785   16.5370 C   0  0  0  0  0  0  0  0  0  0  0  0
    7.8695    7.5417   21.1954 N   0  0  0  0  0  0  0  0  0  0  0  0
   11.0559    7.2457   19.5421 C   0  0  0  0  0  0  0  0  0  0  0  0
   11.3763    6.6302   20.5267 C   0  0  0  0  0  0  0  0  0  0  0  0
    8.6949    4.9205   14.8850 C   0  0  0  0  0  0  0  0  0  0  0  0
    9.1444    7.2238   16.3873 C   0  0  0  0  0  0  0  0  0  0  0  0
   11.7247    7.2352   15.8720 C   0  0  0  0  0  0  0  0  0  0  0  0
   10.2545    5.6630   22.8668 C   0  0  0  0  0  0  0  0  0  0  0  0
    5.9162    8.1484   24.1634 S   0  0  0  0  0  0  0  0  0  0  0  0
    8.5080    7.5381   23.0256 C   0  0  0  0  0  0  0  0  0  0  0  0
   11.0679    4.5643   22.9230 C   0  0  0  0  0  0  0  0  0  0  0  0
    9.2126    6.7567   23.6894 He  0  0  0  0  0  0  0  0  0  0  0  0
    9.5013    6.1162   14.9528 He  0  0  0  0  0  0  0  0  0  0  0  0
   12.7715    5.1862   20.0531 He  0  0  0  0  0  0  0  0  0  0  0  0
    9.7819    7.6822   20.8503 He  0  0  0  0  0  0  0  0  0  0  0  0
  1  2  3  0
  1  5  1  0
  1 13  3  0
  1 21  4  0
  1 24  4  0
  2 19  4  0
  2 20  3  0
  2 24  1  0
  2 25  1  0
  3  5  4  0
  3 11  3  0
  3 16  4  0
  3 19  2  0
  3 21  4  0
  3 22  3  0
  4 11  1  0
  4 19  3  0
  4 21  2  0
  4 23  4  0
  4 24  2  0
  4 25  1  0
  4 26  1  0
  5  8  4  0
  5 13  1  0
  5 15  1  0
  5 17  4  0
  5 24  4  0
  6 11  3  0
  6 12  4  0
  6 16  1  0
  6 19  1  0
  6 22  4  0
  7 13  1  0
  7 23  2  0
  7 24  1  0
  8 11  3  0
  8 13  2  0
  8 14  2  0
  8 16  3  0
  8 21  3  0
  9 18  4  0
  9 19  4  0
  9 20  4  0
  9 23  4  0
  9 25  2  0
 10 13  3  0
 10 14  1  0
 10 15  1  0
 10 21  1  0
 11 18  2  0
 12 13  1  0
 12 17  3  0
 12 18  1  0
 12 23  1  0
 12 25  4  0
 13 19  1  0
 13 21  1  0
 14 16  3  0
 14 17  2  0
 14 20  2  0
 14 24  4  0
 14 26  3  0
 15 16  4  0
 15 22  4  0
 16 17  2  0
 16 19  2  0
 16 20  4  0
 17 20  2  0
 18 19  4  0
 18 20  1  0
 18 24  3  0
 18 25  2  0
 21 22  4  0
 23 26  1  0
 25 26  2  0
M  END
$$$$

 Created by Python create_sdf_string function

 30 52  0  0  0  0  0  0  0  0999 V2000
    7.7878    9.2405   18.8516 C   0  0  0  0  0  0  0  0  0  0  0  0
    7.3318    8.4249   22.0987 C   0  0  0  0  0  0  0  0  0  0  0  0
    9.2164    6.5896   16.7940 C   0  0  0  0  0  0  0  0  0  0  0  0
    9.5620    6.5817   22.1027 C   0  0  0  0  0  0  0  0  0  0  0  0
    7.3897    8.7744   19.9424 N   0  0  0  0  0  0  0  0  0  0  0  0
    8.6366    6.3285   24.8864 N   0  0  0  0  0  0  0  0  0  0  0  0
   10.8901    6.0280   14.3538 C   0  0  0  0  0  0  0  0  0  0  0  0
   11.5162    5.7679   21.1539 Cl  0  0  0  0  0  0  0  0  0  0  0  0
    6.1381    9.1651   21.2003 C   0  0  0  0  0  0  0  0  0  0  0  0
   13.3372    6.1561   19.0756 C   0  0  0  0  0  0  0  0  0  0  0  0
   10.7085    8.8951   18.4558 C   0  0  0  0  0  0  0  0  0  0  0  0
    9.8732    5.7775   14.3130 C   0  0  0  0  0  0  0  0  0  0  0  0
   10.3844    8.6869   17.7601 O   0  0  0  0  0  0  0  0  0  0  0  0
    5.0284    8.3963   23.7060 O   0  0  0  0  0  0  0  0  0  0  0  0
   12.4876    5.0643   20.4761 N   0  0  0  0  0  0  0  0  0  0  0  0
    8.4590    5.8998   16.2639 C   0  0  0  0  0  0  0  0  0  0  0  0
   10.6716    6.6642   20.2333 N   0  0  0  0  0  0  0  0  0  0  0  0
   11.0533    6.5394   20.4244 N   0  0  0  0  0  0  0  0  0  0  0  0
   10.1218    7.3428   21.2629 C   0  0  0  0  0  0  0  0  0  0  0  0
    9.5569    8.1635   16.7091 N   0  0  0  0  0  0  0  0  0  0  0  0
   11.4400    6.9847   16.5549 C   0  0  0  0  0  0  0  0  0  0  0  0
   10.6371    6.2204   22.4549 C   0  0  0  0  0  0  0  0  0  0  0  0
    6.0766    7.9286   24.0824 O   0  0  0  0  0  0  0  0  0  0  0  0
    8.2197    6.7649   22.8766 C   0  0  0  0  0  0  0  0  0  0  0  0
   11.3476    4.8952   22.3816 C   0  0  0  0  0  0  0  0  0  0  0  0
    7.1518    7.8236   24.8239 He  0  0  0  0  0  0  0  0  0  0  0  0
    9.6044    9.4798   16.4798 He  0  0  0  0  0  0  0  0  0  0  0  0
    6.7644    8.2845   20.1987 He  0  0  0  0  0  0  0  0  0  0  0  0
    8.1876    8.2340   22.1242 He  0  0  0  0  0  0  0  0  0  0  0  0
    9.3398    4.3860   14.7130 He  0  0  0  0  0  0  0  0  0  0  0  0
  1  5  1  0
  1 13  1  0
  1 15  3  0
  1 23  2  0
  1 24  2  0
  2 23  1  0
  2 24  1  0
  3 16  4  0
  3 23  4  0
  4  8  2  0
  4 11  1  0
  4 19  4  0
  5  7  3  0
  5 17  4  0
  5 25  3  0
  6  8  3  0
  6 10  2  0
  6 16  2  0
  6 24  4  0
  7 12  4  0
  7 14  4  0
  7 21  4  0
  7 24  3  0
  8 15  4  0
  8 16  4  0
  8 17  2  0
  8 20  3  0
  8 22  4  0
  8 25  3  0
  9 11  1  0
  9 22  2  0
  9 25  2  0
 10 15  1  0
 10 18  2  0
 11 13  1  0
 12 13  2  0
 12 22  3  0
 13 18  1  0
 13 19  3  0
 13 20  1  0
 14 23  2  0
 15 16  3  0
 15 24  2  0
 17 18  4  0
 17 19  1  0
 18 19  4  0
 19 20  1  0
 20 21  3  0
 20 22  1  0
 21 22  3  0
 21 23  1  0
 22 25  4  0
M  END
$$$$

 Created by Python create_sdf_string function

 30 42  0  0  0  0  0  0  0  0999 V2000
    8.3672    9.8362   18.1553 C   0  0  0  0  0  0  0  0  0  0  0  0
    7.8847    7.4755   22.8141 C   0  0  0  0  0  0  0  0  0  0  0  0
    9.0186    7.0292   16.1471 C   0  0  0  0  0  0  0  0  0  0  0  0
    9.6027    6.3201   22.4823 Cl  0  0  0  0  0  0  0  0  0  0  0  0
    8.0627    8.6496   19.8441 Cl  0  0  0  0  0  0  0  0  0  0  0  0
    9.1821   10.2487   16.5443 C   0  0  0  0  0  0  0  0  0  0  0  0
   12.0882    6.0306   20.9064 C   0  0  0  0  0  0  0  0  0  0  0  0
    5.8919    9.1392   21.0929 O   0  0  0  0  0  0  0  0  0  0  0  0
   13.0853    6.9836   19.4232 C   0  0  0  0  0  0  0  0  0  0  0  0
   10.6221    8.8676   18.5777 C   0  0  0  0  0  0  0  0  0  0  0  0
    9.6993    5.0562   13.9255 C   0  0  0  0  0  0  0  0  0  0  0  0
    5.6252    8.1798   22.9689 O   0  0  0  0  0  0  0  0  0  0  0  0
    7.2335    9.0069   19.7906 C   0  0  0  0  0  0  0  0  0  0  0  0
   12.2763    5.0354   20.3549 N   0  0  0  0  0  0  0  0  0  0  0  0
    7.9650    5.3532   16.0924 C   0  0  0  0  0  0  0  0  0  0  0  0
   11.2267    7.3042   20.4289 C   0  0  0  0  0  0  0  0  0  0  0  0
   11.1030    7.3201   19.9615 C   0  0  0  0  0  0  0  0  0  0  0  0
    9.2942    4.6981   14.4332 C   0  0  0  0  0  0  0  0  0  0  0  0
   10.5393    5.7034   22.7457 C   0  0  0  0  0  0  0  0  0  0  0  0
    8.7206    6.9097   23.0616 C   0  0  0  0  0  0  0  0  0  0  0  0
    8.4820    7.1809   25.0668 He  0  0  0  0  0  0  0  0  0  0  0  0
   10.6424    6.0808   14.7447 He  0  0  0  0  0  0  0  0  0  0  0  0
    7.1945    7.6157   25.3821 He  0  0  0  0  0  0  0  0  0  0  0  0
   10.2786    8.9894   18.0717 He  0  0  0  0  0  0  0  0  0  0  0  0
    7.2474    8.0870   21.5397 He  0  0  0  0  0  0  0  0  0  0  0  0
    9.6803    7.0745   20.9982 He  0  0  0  0  0  0  0  0  0  0  0  0
    9.7255    7.4261   17.0898 He  0  0  0  0  0  0  0  0  0  0  0  0
   11.1341    7.2498   15.3740 He  0  0  0  0  0  0  0  0  0  0  0  0
    6.5218    8.0001   24.2060 He  0  0  0  0  0  0  0  0  0  0  0  0
   11.6766    5.4429   22.1044 He  0  0  0  0  0  0  0  0  0  0  0  0
  1  5  1  0
  1  9  1  0
  1 18  2  0
  1 19  1  0
  2  3  3  0
  2 14  3  0
  2 20  1  0
  3  9  1  0
  3 10  3  0
  3 15  4  0
  4 19  4  0
  5 13  1  0
  5 15  4  0
  6 20  3  0
  7  9  3  0
  7 10  4  0
  7 11  1  0
  7 14  1  0
  7 16  4  0
  7 17  4  0
  7 19  2  0
  8 12  3  0
  8 13  2  0
  9 10  3  0
  9 14  1  0
  9 15  4  0
 10 13  1  0
 10 15  3  0
 11 18  2  0
 12 16  1  0
 12 19  4  0
 12 20  3  0
 13 16  3  0
 13 19  2  0
 14 17  2  0
 15 18  4  0
 15 19  1  0
 15 20  4  0
 16 17  4  0
 16 18  2  0
 17 18  4  0
 18 19  2  0
M  END
$$$$

 Created by Python create_sdf_string function

 30 58  0  0  0  0  0  0  0  0999 V2000
    7.6788    9.6912   18.3976 C   0  0  0  0  0  0  0  0  0  0  0  0
    7.2537    7.5113   22.7022 C   0  0  0  0  0  0  0  0  0  0  0  0
    8.8302    6.9113   16.6982 C   0  0  0  0  0  0  0  0  0  0  0  0
    9.7489    6.5529   22.5922 C   0  0  0  0  0  0  0  0  0  0  0  0
    7.5901    9.0535   19.2379 F   0  0  0  0  0  0  0  0  0  0  0  0
   10.6000    5.6685   14.6402 C   0  0  0  0  0  0  0  0  0  0  0  0
   12.1756    6.4743   19.8741 F   0  0  0  0  0  0  0  0  0  0  0  0
    6.1874    9.2936   20.3425 F   0  0  0  0  0  0  0  0  0  0  0  0
   13.2347    6.4547   19.2398 C   0  0  0  0  0  0  0  0  0  0  0  0
   10.4798    9.8050   18.1673 C   0  0  0  0  0  0  0  0  0  0  0  0
   10.1453    4.6455   13.6215 C   0  0  0  0  0  0  0  0  0  0  0  0
   10.4387    8.0465   17.3662 N   0  0  0  0  0  0  0  0  0  0  0  0
    4.9486    7.9229   23.8312 P   0  0  0  0  0  0  0  0  0  0  0  0
   12.7795    5.2189   20.2678 Cl  0  0  0  0  0  0  0  0  0  0  0  0
    8.7035    5.1074   15.7348 C   0  0  0  0  0  0  0  0  0  0  0  0
    7.7591    8.0987   21.5091 N   0  0  0  0  0  0  0  0  0  0  0  0
   11.1888    6.8768   20.2881 C   0  0  0  0  0  0  0  0  0  0  0  0
   10.8751    7.3444   20.2013 C   0  0  0  0  0  0  0  0  0  0  0  0
    8.9367    6.9611   21.0744 C   0  0  0  0  0  0  0  0  0  0  0  0
   10.6104    7.4885   16.6088 C   0  0  0  0  0  0  0  0  0  0  0  0
   10.4155    7.3073   15.3684 C   0  0  0  0  0  0  0  0  0  0  0  0
   10.7165    5.9917   23.5397 C   0  0  0  0  0  0  0  0  0  0  0  0
    6.5041    8.2003   23.9873 I   0  0  0  0  0  0  0  0  0  0  0  0
   12.0377    5.4045   22.2598 C   0  0  0  0  0  0  0  0  0  0  0  0
    8.4355    6.9820   24.7217 He  0  0  0  0  0  0  0  0  0  0  0  0
    6.9646    7.5076   24.9156 He  0  0  0  0  0  0  0  0  0  0  0  0
    9.6337   10.3360   15.9283 He  0  0  0  0  0  0  0  0  0  0  0  0
    7.9554    9.2957   20.1422 He  0  0  0  0  0  0  0  0  0  0  0  0
    9.6452    5.4274   14.5920 He  0  0  0  0  0  0  0  0  0  0  0  0
    9.2838    6.6122   23.5021 He  0  0  0  0  0  0  0  0  0  0  0  0
  1  5  1  0
  1  9  2  0
  1 12  4  0
  1 19  4  0
  2  4  3  0
  2  5  1  0
  2 11  3  0
  2 15  4  0
  2 16  1  0
  2 18  4  0
  3  9  4  0
  3 12  1  0
  3 15  4  0
  3 19  2  0
  3 20  4  0
  4  7  3  0
  4 11  2  0
  4 14  4  0
  4 16  4  0
  4 17  3  0
  4 19  4  0
  4 22  4  0
  4 23  4  0
  5  7  4  0
  5 12  4  0
  6  8  3  0
  6 10  3  0
  6 11  1  0
  7  9  3  0
  7 10  2  0
  7 11  3  0
  7 14  1  0
  7 17  4  0
  7 24  4  0
  8 11  4  0
  8 24  1  0
  9 14  1  0
  9 15  4  0
  9 17  4  0
 10 12  1  0
 10 14  1  0
 10 15  4  0
 10 16  4  0
 10 23  3  0
 11 19  1  0
 11 22  1  0
 12 20  1  0
 13 15  2  0
 13 21  1  0
 13 23  4  0
 16 24  3  0
 17 18  4  0
 17 23  4  0
 17 24  4  0
 18 19  4  0
 18 21  3  0
 18 22  3  0
 20 21  4  0
M  END
$$$$

 Created by Python create_sdf_string function

 30 56  0  0  0  0  0  0  0  0999 V2000
    7.1486    9.9292   18.1606 O   0  0  0  0  0  0  0  0  0  0  0  0
    7.1522    7.2576   23.0316 C   0  0  0  0  0  0  0  0  0  0  0  0
    9.2424    6.6572   16.6987 C   0  0  0  0  0  0  0  0  0  0  0  0
   10.1804    7.0796   21.5425 C   0  0  0  0  0  0  0  0  0  0  0  0
    8.5028    9.5981   19.7116 N   0  0  0  0  0  0  0  0  0  0  0  0
   10.8581    6.3796   15.1190 C   0  0  0  0  0  0  0  0  0  0  0  0
    6.6451    7.1389   25.2777 N   0  0  0  0  0  0  0  0  0  0  0  0
    9.1553   10.8217   15.7533 C   0  0  0  0  0  0  0  0  0  0  0  0
   13.4710    6.6600   19.1393 C   0  0  0  0  0  0  0  0  0  0  0  0
   10.6345   10.0430   17.9310 C   0  0  0  0  0  0  0  0  0  0  0  0
   10.0049    4.3047   14.0623 C   0  0  0  0  0  0  0  0  0  0  0  0
    9.5643    8.9984   16.8728 N   0  0  0  0  0  0  0  0  0  0  0  0
    5.7317    7.8498   23.4498 O   0  0  0  0  0  0  0  0  0  0  0  0
    7.3294    8.7225   20.7849 B   0  0  0  0  0  0  0  0  0  0  0  0
   13.2476    5.4789   20.1944 O   0  0  0  0  0  0  0  0  0  0  0  0
    8.6499    5.5832   16.1887 C   0  0  0  0  0  0  0  0  0  0  0  0
    7.7492    7.6819   21.7079 N   0  0  0  0  0  0  0  0  0  0  0  0
   11.4167    6.6968   19.8395 C   0  0  0  0  0  0  0  0  0  0  0  0
   10.5010    7.6548   20.2797 C   0  0  0  0  0  0  0  0  0  0  0  0
    9.4776    7.5140   21.0693 C   0  0  0  0  0  0  0  0  0  0  0  0
   10.9730    6.9460   15.2645 C   0  0  0  0  0  0  0  0  0  0  0  0
   10.3253    6.0716   23.5429 C   0  0  0  0  0  0  0  0  0  0  0  0
    6.4164    7.9199   23.1676 Cl  0  0  0  0  0  0  0  0  0  0  0  0
    8.9894    7.4552   23.8080 C   0  0  0  0  0  0  0  0  0  0  0  0
   11.8269    5.5585   21.8809 C   0  0  0  0  0  0  0  0  0  0  0  0
    7.8258    7.1151   25.2621 He  0  0  0  0  0  0  0  0  0  0  0  0
   11.9093    6.1079   20.8232 He  0  0  0  0  0  0  0  0  0  0  0  0
    6.4669    9.5429   20.9998 He  0  0  0  0  0  0  0  0  0  0  0  0
    9.3828    5.5847   14.5110 He  0  0  0  0  0  0  0  0  0  0  0  0
   10.1180    7.8049   16.9564 He  0  0  0  0  0  0  0  0  0  0  0  0
  1  5  1  0
  1 10  4  0
  1 13  2  0
  1 18  2  0
  1 21  3  0
  2  6  2  0
  2 12  4  0
  2 17  1  0
  2 18  3  0
  2 21  2  0
  2 23  1  0
  2 24  1  0
  3  5  3  0
  3 13  1  0
  3 16  4  0
  3 23  1  0
  4 14  3  0
  4 20  4  0
  4 21  4  0
  5  7  3  0
  5 10  4  0
  5 14  1  0
  6 13  3  0
  6 19  4  0
  7 13  3  0
  7 22  2  0
  7 25  3  0
  8 21  1  0
  8 23  1  0
  9 10  4  0
  9 15  1  0
  9 25  1  0
 10 15  4  0
 10 23  1  0
 10 24  1  0
 10 25  3  0
 11 14  3  0
 11 15  4  0
 11 17  1  0
 12 15  1  0
 12 18  1  0
 13 18  2  0
 13 22  4  0
 13 23  1  0
 14 16  4  0
 14 20  4  0
 16 22  4  0
 16 23  4  0
 17 19  3  0
 17 25  3  0
 18 19  4  0
 18 22  3  0
 18 23  4  0
 18 24  1  0
 19 20  4  0
 19 25  4  0
M  END
$$$$

 Created by Python create_sdf_string function

 30 37  0  0  0  0  0  0  0  0999 V2000
    7.4906    7.8214   23.1839 C   0  0  0  0  0  0  0  0  0  0  0  0
    8.8057    6.6492   16.2442 C   0  0  0  0  0  0  0  0  0  0  0  0
    8.4133    8.9998   19.6980 N   0  0  0  0  0  0  0  0  0  0  0  0
    8.0672    7.0031   24.8816 C   0  0  0  0  0  0  0  0  0  0  0  0
   10.6745    6.8954   15.0767 C   0  0  0  0  0  0  0  0  0  0  0  0
    6.1649    7.6851   24.3335 N   0  0  0  0  0  0  0  0  0  0  0  0
    9.3719   10.9185   15.9327 N   0  0  0  0  0  0  0  0  0  0  0  0
   11.9277    6.2035   20.5361 C   0  0  0  0  0  0  0  0  0  0  0  0
    6.0314    9.3598   21.1747 O   0  0  0  0  0  0  0  0  0  0  0  0
    9.5605   10.3196   17.6002 C   0  0  0  0  0  0  0  0  0  0  0  0
   10.1081    9.3536   17.2813 N   0  0  0  0  0  0  0  0  0  0  0  0
    7.5358    9.1718   20.7131 C   0  0  0  0  0  0  0  0  0  0  0  0
   13.1141    5.6169   20.2664 O   0  0  0  0  0  0  0  0  0  0  0  0
    8.1016    8.2533   21.6496 N   0  0  0  0  0  0  0  0  0  0  0  0
   11.7628    7.2980   20.0977 C   0  0  0  0  0  0  0  0  0  0  0  0
    9.3194    7.2036   20.9098 C   0  0  0  0  0  0  0  0  0  0  0  0
    9.7109    5.2927   14.8531 C   0  0  0  0  0  0  0  0  0  0  0  0
   10.6984    6.5238   15.8533 O   0  0  0  0  0  0  0  0  0  0  0  0
    9.9706    6.2760   23.1317 C   0  0  0  0  0  0  0  0  0  0  0  0
    7.1809    7.9949   23.3335 C   0  0  0  0  0  0  0  0  0  0  0  0
    8.8506    7.7963   23.7571 C   0  0  0  0  0  0  0  0  0  0  0  0
   11.7255    5.7149   21.7253 C   0  0  0  0  0  0  0  0  0  0  0  0
    7.5223    9.7514   18.7677 He  0  0  0  0  0  0  0  0  0  0  0  0
   10.3857    6.5943   21.7725 He  0  0  0  0  0  0  0  0  0  0  0  0
   13.5818    5.9689   18.6366 He  0  0  0  0  0  0  0  0  0  0  0  0
    9.7225    4.4867   14.1616 He  0  0  0  0  0  0  0  0  0  0  0  0
    5.9456    7.9194   23.6038 He  0  0  0  0  0  0  0  0  0  0  0  0
    8.7136    5.3778   15.9372 He  0  0  0  0  0  0  0  0  0  0  0  0
   10.2505    7.0243   20.4667 He  0  0  0  0  0  0  0  0  0  0  0  0
   10.1153    7.7293   16.0682 He  0  0  0  0  0  0  0  0  0  0  0  0
  1  5  4  0
  1 14  1  0
  1 20  1  0
  1 21  1  0
  2  5  1  0
  2  7  2  0
  3  4  3  0
  3 12  1  0
  3 20  4  0
  4  6  2  0
  4  7  3  0
  4  8  1  0
  4 15  4  0
  4 21  1  0
  5 17  4  0
  5 18  4  0
  6  8  2  0
  6 20  1  0
  6 21  2  0
  7 10  1  0
  7 11  1  0
  8 13  1  0
  8 14  2  0
  8 15  4  0
  8 22  4  0
  9 12  2  0
 10 11  1  0
 11 14  3  0
 11 17  3  0
 12 14  1  0
 13 20  4  0
 13 21  1  0
 14 16  1  0
 15 22  4  0
 16 20  3  0
 17 21  3  0
 19 21  4  0
M  END
$$$$

 Created by Python create_sdf_string function

 30 48  0  0  0  0  0  0  0  0999 V2000
    7.7246    9.7899   18.6466 C   0  0  0  0  0  0  0  0  0  0  0  0
    7.9702    7.5757   23.4795 C   0  0  0  0  0  0  0  0  0  0  0  0
    8.5099    7.0189   16.6491 Cl  0  0  0  0  0  0  0  0  0  0  0  0
   10.8802    6.5246   22.4800 C   0  0  0  0  0  0  0  0  0  0  0  0
    8.6532    9.3858   19.3946 N   0  0  0  0  0  0  0  0  0  0  0  0
    7.8757    7.5803   25.2866 C   0  0  0  0  0  0  0  0  0  0  0  0
    6.3513    7.5156   25.4887 N   0  0  0  0  0  0  0  0  0  0  0  0
    9.2133   11.0034   16.3081 N   0  0  0  0  0  0  0  0  0  0  0  0
   12.1386    6.5858   21.1348 C   0  0  0  0  0  0  0  0  0  0  0  0
    6.7002    9.0791   20.8047 O   0  0  0  0  0  0  0  0  0  0  0  0
    9.7024    9.9274   17.5037 P   0  0  0  0  0  0  0  0  0  0  0  0
    9.6966    3.9770   13.9769 O   0  0  0  0  0  0  0  0  0  0  0  0
   10.2980    8.7404   17.4112 N   0  0  0  0  0  0  0  0  0  0  0  0
    5.4244    7.9493   22.8796 O   0  0  0  0  0  0  0  0  0  0  0  0
    7.2397    8.6548   21.0636 I   0  0  0  0  0  0  0  0  0  0  0  0
    8.5199    5.6224   16.4464 C   0  0  0  0  0  0  0  0  0  0  0  0
    8.1947    8.3216   21.6161 N   0  0  0  0  0  0  0  0  0  0  0  0
   10.2765    7.4335   20.1929 C   0  0  0  0  0  0  0  0  0  0  0  0
    9.8918    7.6793   21.1526 C   0  0  0  0  0  0  0  0  0  0  0  0
   10.1303    7.8561   16.6659 C   0  0  0  0  0  0  0  0  0  0  0  0
   11.0001    7.8513   15.1402 C   0  0  0  0  0  0  0  0  0  0  0  0
    9.4244    6.3875   23.3431 C   0  0  0  0  0  0  0  0  0  0  0  0
    6.4022    7.5839   22.6264 C   0  0  0  0  0  0  0  0  0  0  0  0
   10.3142    5.9046   14.8775 He  0  0  0  0  0  0  0  0  0  0  0  0
   13.2032    6.0046   18.3331 He  0  0  0  0  0  0  0  0  0  0  0  0
   13.0079    5.3291   19.9006 He  0  0  0  0  0  0  0  0  0  0  0  0
   11.5273    6.5866   19.5603 He  0  0  0  0  0  0  0  0  0  0  0  0
    9.1732    5.2078   14.7971 He  0  0  0  0  0  0  0  0  0  0  0  0
    8.7817    7.5037   23.7164 He  0  0  0  0  0  0  0  0  0  0  0  0
   11.4482    5.8850   21.3922 He  0  0  0  0  0  0  0  0  0  0  0  0
  1  5  1  0
  1 21  2  0
  2  3  1  0
  2  9  4  0
  2 14  2  0
  2 17  1  0
  2 19  1  0
  2 23  3  0
  3  7  3  0
  3  8  3  0
  3 14  3  0
  3 20  4  0
  4  8  3  0
  4  9  4  0
  4 19  4  0
  4 23  4  0
  5  7  4  0
  5  9  4  0
  5 19  2  0
  6  7  2  0
  6 18  4  0
  6 19  3  0
  7 12  1  0
  7 14  4  0
  7 15  3  0
  7 23  1  0
  8 15  3  0
  9 15  1  0
  9 19  2  0
  9 23  3  0
 10 21  3  0
 11 13  1  0
 12 22  4  0
 12 23  1  0
 13 15  3  0
 13 17  3  0
 13 20  1  0
 14 18  3  0
 14 23  1  0
 15 17  1  0
 15 18  4  0
 16 20  2  0
 17 18  3  0
 17 19  1  0
 18 19  4  0
 19 21  4  0
 20 21  4  0
 21 22  4  0
M  END
$$$$

 Created by Python create_sdf_string function

 30 51  0  0  0  0  0  0  0  0999 V2000
    8.1487    9.9139   18.5057 C   0  0  0  0  0  0  0  0  0  0  0  0
    8.4384    7.8998   23.3687 Cl  0  0  0  0  0  0  0  0  0  0  0  0
    8.8345    6.5838   16.5696 C   0  0  0  0  0  0  0  0  0  0  0  0
   10.0527    6.7413   22.2296 C   0  0  0  0  0  0  0  0  0  0  0  0
    8.9802    9.5532   19.9410 N   0  0  0  0  0  0  0  0  0  0  0  0
    7.9949    7.4556   24.9359 C   0  0  0  0  0  0  0  0  0  0  0  0
   10.2624    6.0608   14.7977 C   0  0  0  0  0  0  0  0  0  0  0  0
    6.4813    7.7969   24.9780 N   0  0  0  0  0  0  0  0  0  0  0  0
    8.9739   10.7569   16.7566 O   0  0  0  0  0  0  0  0  0  0  0  0
    6.7470    8.7687   20.9172 Cl  0  0  0  0  0  0  0  0  0  0  0  0
   13.5175    6.1416   18.4900 C   0  0  0  0  0  0  0  0  0  0  0  0
    9.3714    9.6705   17.8392 C   0  0  0  0  0  0  0  0  0  0  0  0
    9.0412    4.3076   14.1200 O   0  0  0  0  0  0  0  0  0  0  0  0
   10.4158    8.9272   17.5101 N   0  0  0  0  0  0  0  0  0  0  0  0
    5.1214    7.4363   22.7098 O   0  0  0  0  0  0  0  0  0  0  0  0
    8.4227    6.1062   15.5847 C   0  0  0  0  0  0  0  0  0  0  0  0
    8.0113    7.9139   21.6854 N   0  0  0  0  0  0  0  0  0  0  0  0
   11.7019    6.8044   20.0516 C   0  0  0  0  0  0  0  0  0  0  0  0
    9.8665    8.0665   19.6878 C   0  0  0  0  0  0  0  0  0  0  0  0
   10.1007    6.7165   21.1211 C   0  0  0  0  0  0  0  0  0  0  0  0
    9.7961    5.5370   15.1605 C   0  0  0  0  0  0  0  0  0  0  0  0
    9.9083    7.7095   16.1138 C   0  0  0  0  0  0  0  0  0  0  0  0
   11.0149    7.2310   15.1974 F   0  0  0  0  0  0  0  0  0  0  0  0
    9.8972    6.7081   23.9643 N   0  0  0  0  0  0  0  0  0  0  0  0
    6.2894    7.7156   23.3042 C   0  0  0  0  0  0  0  0  0  0  0  0
    8.9169    6.8596   23.8460 C   0  0  0  0  0  0  0  0  0  0  0  0
   11.8998    5.9900   21.4192 F   0  0  0  0  0  0  0  0  0  0  0  0
   11.8569    6.1910   19.8965 He  0  0  0  0  0  0  0  0  0  0  0  0
    7.8121    8.5563   20.4913 He  0  0  0  0  0  0  0  0  0  0  0  0
   13.8056    6.0639   19.8851 He  0  0  0  0  0  0  0  0  0  0  0  0
  1  5  1  0
  1  9  3  0
  1 12  1  0
  2  3  2  0
  2  7  2  0
  2 25  1  0
  2 26  1  0
  3  4  2  0
  3 16  4  0
  3 20  1  0
  3 24  1  0
  4  8  3  0
  4 10  4  0
  4 14  4  0
  4 20  4  0
  4 23  2  0
  4 24  1  0
  4 27  2  0
  5  7  3  0
  6  8  2  0
  6  9  2  0
  6 17  1  0
  6 26  4  0
  6 27  3  0
  7 23  4  0
  8 14  1  0
  8 25  1  0
  9 12  2  0
  9 26  4  0
 10 18  3  0
 11 20  2  0
 11 21  4  0
 11 22  2  0
 11 24  2  0
 12 14  1  0
 13 14  4  0
 13 20  4  0
 13 21  1  0
 13 24  3  0
 14 16  1  0
 14 22  1  0
 15 22  4  0
 16 24  2  0
 16 26  4  0
 17 20  1  0
 18 22  1  0
 19 23  3  0
 20 22  2  0
 22 23  4  0
 22 26  1  0
 24 26  1  0
M  END
$$$$

 Created by Python create_sdf_string function

 30 53  0  0  0  0  0  0  0  0999 V2000
    7.7449    7.4478   23.0299 C   0  0  0  0  0  0  0  0  0  0  0  0
    8.3401    7.2409   16.3518 C   0  0  0  0  0  0  0  0  0  0  0  0
   10.5422    6.6168   22.1316 C   0  0  0  0  0  0  0  0  0  0  0  0
    8.2826    9.7803   19.8087 N   0  0  0  0  0  0  0  0  0  0  0  0
    7.8343    7.0847   24.8957 F   0  0  0  0  0  0  0  0  0  0  0  0
   10.6862    6.2503   14.8552 C   0  0  0  0  0  0  0  0  0  0  0  0
    6.7177    7.4095   25.3105 N   0  0  0  0  0  0  0  0  0  0  0  0
   11.9669    6.4305   20.8758 C   0  0  0  0  0  0  0  0  0  0  0  0
   13.3732    5.8962   18.2933 Br  0  0  0  0  0  0  0  0  0  0  0  0
    9.2475    9.6890   17.4313 C   0  0  0  0  0  0  0  0  0  0  0  0
    9.1311    4.8328   13.8824 O   0  0  0  0  0  0  0  0  0  0  0  0
   10.1035    8.4247   16.9307 N   0  0  0  0  0  0  0  0  0  0  0  0
    5.6268    8.0032   22.7234 O   0  0  0  0  0  0  0  0  0  0  0  0
    7.6814    8.5708   20.8527 P   0  0  0  0  0  0  0  0  0  0  0  0
   13.4999    5.8746   19.7636 O   0  0  0  0  0  0  0  0  0  0  0  0
    8.4865    5.4571   15.6461 C   0  0  0  0  0  0  0  0  0  0  0  0
    8.6585    7.5927   21.4186 C   0  0  0  0  0  0  0  0  0  0  0  0
   11.5753    6.7954   19.5063 P   0  0  0  0  0  0  0  0  0  0  0  0
    9.9400    7.4360   21.4498 C   0  0  0  0  0  0  0  0  0  0  0  0
    9.0609    5.4574   14.4029 C   0  0  0  0  0  0  0  0  0  0  0  0
   10.1077    7.7173   16.7823 C   0  0  0  0  0  0  0  0  0  0  0  0
    9.9626    6.2668   23.7194 N   0  0  0  0  0  0  0  0  0  0  0  0
    6.5965    7.7091   23.6012 C   0  0  0  0  0  0  0  0  0  0  0  0
    8.6644    7.3284   24.1498 C   0  0  0  0  0  0  0  0  0  0  0  0
   11.6832    6.0058   21.8888 C   0  0  0  0  0  0  0  0  0  0  0  0
    8.5308    9.6386   18.9818 He  0  0  0  0  0  0  0  0  0  0  0  0
    9.0816   10.6546   16.5019 He  0  0  0  0  0  0  0  0  0  0  0  0
    6.5527    9.1375   20.9955 He  0  0  0  0  0  0  0  0  0  0  0  0
   10.6673    7.8616   20.1509 He  0  0  0  0  0  0  0  0  0  0  0  0
   10.7497    7.0288   14.9843 He  0  0  0  0  0  0  0  0  0  0  0  0
  1  3  2  0
  1 14  4  0
  1 23  1  0
  1 24  1  0
  2 19  4  0
  3 10  1  0
  3 14  1  0
  3 22  1  0
  3 24  3  0
  3 25  4  0
  4 18  2  0
  4 20  3  0
  4 24  3  0
  4 25  4  0
  5  7  2  0
  5 13  2  0
  5 24  1  0
  5 25  3  0
  6 20  4  0
  6 23  1  0
  7 10  2  0
  7 12  4  0
  7 15  2  0
  7 23  1  0
  8 12  2  0
  8 13  1  0
  8 15  1  0
  8 18  3  0
  9 15  1  0
  9 20  2  0
 10 12  1  0
 10 16  3  0
 10 17  4  0
 10 21  3  0
 10 22  2  0
 10 25  4  0
 11 20  1  0
 11 25  1  0
 12 13  1  0
 12 16  2  0
 12 21  1  0
 12 22  3  0
 12 23  3  0
 13 17  1  0
 13 21  3  0
 13 23  2  0
 14 17  1  0
 14 19  1  0
 14 23  1  0
 16 20  4  0
 17 19  1  0
 18 23  3  0
 22 24  1  0
M  END
$$$$

 Created by Python create_sdf_string function

 30 56  0  0  0  0  0  0  0  0999 V2000
    8.3556    9.6976   17.9998 N   0  0  0  0  0  0  0  0  0  0  0  0
    7.9722    7.6999   22.6673 C   0  0  0  0  0  0  0  0  0  0  0  0
    8.8120    7.1953   16.2918 C   0  0  0  0  0  0  0  0  0  0  0  0
   10.3328    6.8873   22.1508 C   0  0  0  0  0  0  0  0  0  0  0  0
    8.4061    9.5466   19.5818 P   0  0  0  0  0  0  0  0  0  0  0  0
    8.1992    6.9014   25.4426 N   0  0  0  0  0  0  0  0  0  0  0  0
   10.5357    6.3935   14.6679 C   0  0  0  0  0  0  0  0  0  0  0  0
    7.0269    7.4407   24.8551 N   0  0  0  0  0  0  0  0  0  0  0  0
    8.8449   10.4278   16.2343 F   0  0  0  0  0  0  0  0  0  0  0  0
   12.0931    6.2115   20.5255 C   0  0  0  0  0  0  0  0  0  0  0  0
   13.6619    5.6712   18.5992 C   0  0  0  0  0  0  0  0  0  0  0  0
    8.3115    9.5993   17.6324 C   0  0  0  0  0  0  0  0  0  0  0  0
    9.2552    4.0669   13.4519 O   0  0  0  0  0  0  0  0  0  0  0  0
    5.4921    8.2169   22.7369 O   0  0  0  0  0  0  0  0  0  0  0  0
    7.3287    8.5851   20.8273 C   0  0  0  0  0  0  0  0  0  0  0  0
   13.2439    5.7247   19.3268 O   0  0  0  0  0  0  0  0  0  0  0  0
    8.5683    6.0229   15.2910 C   0  0  0  0  0  0  0  0  0  0  0  0
    8.4735    8.1350   21.5858 C   0  0  0  0  0  0  0  0  0  0  0  0
   11.8452    7.1473   19.4438 C   0  0  0  0  0  0  0  0  0  0  0  0
   10.4633    7.8947   19.6980 C   0  0  0  0  0  0  0  0  0  0  0  0
   10.2689    7.3226   21.2573 C   0  0  0  0  0  0  0  0  0  0  0  0
    9.3546    5.4901   14.5794 C   0  0  0  0  0  0  0  0  0  0  0  0
    9.7477    7.9641   16.5039 C   0  0  0  0  0  0  0  0  0  0  0  0
   10.8256    7.3191   15.0029 Se  0  0  0  0  0  0  0  0  0  0  0  0
    9.8653    6.6511   23.7564 N   0  0  0  0  0  0  0  0  0  0  0  0
    6.5014    7.8530   24.0809 C   0  0  0  0  0  0  0  0  0  0  0  0
    8.7703    7.0156   23.4344 C   0  0  0  0  0  0  0  0  0  0  0  0
   12.1719    6.2154   21.4912 C   0  0  0  0  0  0  0  0  0  0  0  0
    6.5223    8.6534   20.8541 He  0  0  0  0  0  0  0  0  0  0  0  0
   10.5232    8.6858   16.9310 He  0  0  0  0  0  0  0  0  0  0  0  0
  1  5  1  0
  1 12  1  0
  1 15  3  0
  1 28  2  0
  2 11  1  0
  2 15  3  0
  2 18  2  0
  2 25  2  0
  2 27  1  0
  3  5  2  0
  3 10  2  0
  3 17  4  0
  3 18  4  0
  3 23  4  0
  4  8  1  0
  4 20  2  0
  4 21  4  0
  4 23  4  0
  4 25  1  0
  4 28  4  0
  5 15  1  0
  5 21  2  0
  5 23  4  0
  6  8  2  0
  6 19  2  0
  6 22  1  0
  6 27  1  0
  7 10  4  0
  7 21  2  0
  7 22  4  0
  7 24  4  0
  8 13  2  0
  8 17  3  0
  8 25  4  0
  8 26  1  0
  8 27  2  0
  9 12  1  0
  9 21  4  0
 10 14  4  0
 10 16  1  0
 10 19  1  0
 10 28  4  0
 13 22  1  0
 13 28  4  0
 14 26  2  0
 15 17  2  0
 15 18  1  0
 16 20  4  0
 17 22  4  0
 19 21  4  0
 20 24  2  0
 20 26  2  0
 22 23  3  0
 22 24  2  0
 23 24  4  0
 25 27  1  0
M  END
$$$$

 Created by Python create_sdf_string function

 30 42  0  0  0  0  0  0  0  0999 V2000
    8.5453    9.1064   18.2870 N   0  0  0  0  0  0  0  0  0  0  0  0
    9.0355    7.0270   16.0249 C   0  0  0  0  0  0  0  0  0  0  0  0
    8.6453    9.6510   19.7740 N   0  0  0  0  0  0  0  0  0  0  0  0
    8.5256    6.9990   25.1939 N   0  0  0  0  0  0  0  0  0  0  0  0
   10.4305    6.5907   14.5883 C   0  0  0  0  0  0  0  0  0  0  0  0
    6.7993    7.3533   24.4958 N   0  0  0  0  0  0  0  0  0  0  0  0
    8.6994   10.2151   16.4690 O   0  0  0  0  0  0  0  0  0  0  0  0
   11.9716    5.8797   20.1782 Br  0  0  0  0  0  0  0  0  0  0  0  0
    6.2889    8.2960   21.2354 O   0  0  0  0  0  0  0  0  0  0  0  0
   13.8783    5.6010   18.5029 C   0  0  0  0  0  0  0  0  0  0  0  0
    8.6636    9.6952   17.1127 C   0  0  0  0  0  0  0  0  0  0  0  0
    9.2656    4.1899   13.7829 O   0  0  0  0  0  0  0  0  0  0  0  0
    9.8647    9.1351   16.5667 C   0  0  0  0  0  0  0  0  0  0  0  0
    5.9306    8.2867   23.3036 O   0  0  0  0  0  0  0  0  0  0  0  0
    7.3034    8.8216   20.2653 C   0  0  0  0  0  0  0  0  0  0  0  0
   13.3132    5.0952   19.5323 O   0  0  0  0  0  0  0  0  0  0  0  0
    8.4161    5.7366   15.3218 C   0  0  0  0  0  0  0  0  0  0  0  0
    8.5473    8.1903   21.8139 C   0  0  0  0  0  0  0  0  0  0  0  0
   11.8078    7.0623   19.4645 C   0  0  0  0  0  0  0  0  0  0  0  0
    9.9338    7.4183   21.5963 C   0  0  0  0  0  0  0  0  0  0  0  0
    9.2029    4.9744   14.5426 Cl  0  0  0  0  0  0  0  0  0  0  0  0
    9.6767    8.0099   15.5357 C   0  0  0  0  0  0  0  0  0  0  0  0
   11.1067    7.4178   15.2260 C   0  0  0  0  0  0  0  0  0  0  0  0
    8.7033    7.3359   23.6271 C   0  0  0  0  0  0  0  0  0  0  0  0
   11.7846    5.6546   21.5168 Cl  0  0  0  0  0  0  0  0  0  0  0  0
    8.3526    7.6396   22.9875 He  0  0  0  0  0  0  0  0  0  0  0  0
   10.1161    6.3988   22.1719 He  0  0  0  0  0  0  0  0  0  0  0  0
   10.4816    7.5555   20.1995 He  0  0  0  0  0  0  0  0  0  0  0  0
    9.8990    6.8857   23.1918 He  0  0  0  0  0  0  0  0  0  0  0  0
    7.1066    7.9444   23.6708 He  0  0  0  0  0  0  0  0  0  0  0  0
  1  3  1  0
  1 11  1  0
  1 23  2  0
  2 12  4  0
  2 17  4  0
  3  9  4  0
  3 20  1  0
  4  6  2  0
  4 17  2  0
  5  6  1  0
  5 21  4  0
  5 23  4  0
  6 13  4  0
  6 14  4  0
  7  9  3  0
  7 11  1  0
  8 15  1  0
  8 16  1  0
  8 18  2  0
  8 19  4  0
  8 24  4  0
  8 25  4  0
  9 10  1  0
  9 15  2  0
 10 11  3  0
 10 16  1  0
 10 22  1  0
 11 13  3  0
 13 16  2  0
 13 22  1  0
 13 23  3  0
 13 25  3  0
 14 23  4  0
 15 16  2  0
 15 18  1  0
 15 19  3  0
 16 24  3  0
 17 21  4  0
 18 20  1  0
 20 23  3  0
 21 24  1  0
 22 23  4  0
M  END
$$$$

 Created by Python create_sdf_string function

 30 37  0  0  0  0  0  0  0  0999 V2000
    8.6866    9.0389   18.2068 N   0  0  0  0  0  0  0  0  0  0  0  0
    7.9529    7.7085   23.1302 O   0  0  0  0  0  0  0  0  0  0  0  0
    8.1093    7.3031   16.0867 C   0  0  0  0  0  0  0  0  0  0  0  0
   10.3321    6.5971   22.4396 C   0  0  0  0  0  0  0  0  0  0  0  0
    8.6205    9.2215   19.8585 N   0  0  0  0  0  0  0  0  0  0  0  0
    8.5436    7.4973   24.6717 N   0  0  0  0  0  0  0  0  0  0  0  0
   10.6279    6.2452   14.1066 C   0  0  0  0  0  0  0  0  0  0  0  0
    7.2358    6.8947   24.5358 N   0  0  0  0  0  0  0  0  0  0  0  0
    8.2085   10.6165   16.6412 O   0  0  0  0  0  0  0  0  0  0  0  0
    6.7336    8.6853   20.7689 O   0  0  0  0  0  0  0  0  0  0  0  0
   14.0935    5.8096   18.4922 C   0  0  0  0  0  0  0  0  0  0  0  0
    8.5468    9.7563   17.5590 C   0  0  0  0  0  0  0  0  0  0  0  0
    9.4472    4.2775   14.0900 Br  0  0  0  0  0  0  0  0  0  0  0  0
    9.7052    8.7745   16.3800 C   0  0  0  0  0  0  0  0  0  0  0  0
    6.2245    8.5834   23.4390 O   0  0  0  0  0  0  0  0  0  0  0  0
    7.3593    8.8379   20.9377 C   0  0  0  0  0  0  0  0  0  0  0  0
   13.0670    5.2457   19.7456 O   0  0  0  0  0  0  0  0  0  0  0  0
    8.3758    5.6347   15.9519 N   0  0  0  0  0  0  0  0  0  0  0  0
    8.6354    8.1530   21.8723 C   0  0  0  0  0  0  0  0  0  0  0  0
   11.5228    6.9750   19.2887 C   0  0  0  0  0  0  0  0  0  0  0  0
   10.5778    7.5848   20.2875 S   0  0  0  0  0  0  0  0  0  0  0  0
    9.2647    5.4734   14.8742 C   0  0  0  0  0  0  0  0  0  0  0  0
   10.0156    6.2131   23.3735 N   0  0  0  0  0  0  0  0  0  0  0  0
    6.9478    7.8699   23.2982 C   0  0  0  0  0  0  0  0  0  0  0  0
   11.4185    5.8795   21.5745 C   0  0  0  0  0  0  0  0  0  0  0  0
   12.1844    5.7845   20.2983 He  0  0  0  0  0  0  0  0  0  0  0  0
    9.8418    7.6047   21.4085 He  0  0  0  0  0  0  0  0  0  0  0  0
    9.9601    7.8192   15.7932 He  0  0  0  0  0  0  0  0  0  0  0  0
   10.9038    7.4535   15.1485 He  0  0  0  0  0  0  0  0  0  0  0  0
    9.1203    6.9526   23.8902 He  0  0  0  0  0  0  0  0  0  0  0  0
  1  5  1  0
  1 13  4  0
  1 20  3  0
  1 21  2  0
  2  8  4  0
  2 13  3  0
  2 19  2  0
  2 21  4  0
  2 22  2  0
  2 24  1  0
  3 18  4  0
  4 14  4  0
  4 23  2  0
  4 25  3  0
  5  6  3  0
  5  9  1  0
  5 16  1  0
  6  8  2  0
  6 16  3  0
  7 22  4  0
  7 24  2  0
  8 19  4  0
  8 24  3  0
  9 11  3  0
  9 25  3  0
 10 16  1  0
 11 12  1  0
 11 23  1  0
 12 14  1  0
 13 17  1  0
 13 22  1  0
 15 24  2  0
 18 22  4  0
 20 21  4  0
 20 25  1  0
 21 23  4  0
 23 25  3  0
M  END
$$$$

 Created by Python create_sdf_string function

 30 47  0  0  0  0  0  0  0  0999 V2000
    8.1666    9.4026   18.4159 N   0  0  0  0  0  0  0  0  0  0  0  0
    8.4545    6.8726   16.0837 C   0  0  0  0  0  0  0  0  0  0  0  0
   10.5116    6.5730   22.2177 C   0  0  0  0  0  0  0  0  0  0  0  0
    8.2929    9.5048   20.2506 N   0  0  0  0  0  0  0  0  0  0  0  0
    8.1788    7.1587   25.0276 N   0  0  0  0  0  0  0  0  0  0  0  0
   10.5252    6.2569   14.0422 C   0  0  0  0  0  0  0  0  0  0  0  0
    6.6037    7.3641   25.0519 S   0  0  0  0  0  0  0  0  0  0  0  0
    7.7805   10.5930   16.6040 O   0  0  0  0  0  0  0  0  0  0  0  0
   11.9115    6.0006   20.6042 C   0  0  0  0  0  0  0  0  0  0  0  0
    6.3884    8.8604   20.5009 O   0  0  0  0  0  0  0  0  0  0  0  0
   13.8316    5.6008   18.6665 C   0  0  0  0  0  0  0  0  0  0  0  0
    8.9722    9.8313   17.2582 C   0  0  0  0  0  0  0  0  0  0  0  0
    9.7760    9.3890   16.4861 C   0  0  0  0  0  0  0  0  0  0  0  0
    5.9378    8.3074   23.1404 O   0  0  0  0  0  0  0  0  0  0  0  0
   12.7749    5.2094   20.0888 O   0  0  0  0  0  0  0  0  0  0  0  0
    8.6433    5.5470   15.5603 C   0  0  0  0  0  0  0  0  0  0  0  0
    8.9431    7.9052   21.0598 C   0  0  0  0  0  0  0  0  0  0  0  0
   11.6079    6.9903   19.3404 C   0  0  0  0  0  0  0  0  0  0  0  0
   10.5171    7.8036   19.9564 C   0  0  0  0  0  0  0  0  0  0  0  0
    9.9779    7.3647   21.2662 C   0  0  0  0  0  0  0  0  0  0  0  0
    9.7210    5.0224   14.6332 C   0  0  0  0  0  0  0  0  0  0  0  0
    9.3563    8.0030   15.7029 C   0  0  0  0  0  0  0  0  0  0  0  0
   10.5267    7.3693   15.0378 C   0  0  0  0  0  0  0  0  0  0  0  0
    9.9892    6.4935   23.6163 N   0  0  0  0  0  0  0  0  0  0  0  0
    6.9309    7.8061   23.6888 O   0  0  0  0  0  0  0  0  0  0  0  0
    9.3068    6.8753   23.5896 C   0  0  0  0  0  0  0  0  0  0  0  0
   10.9378    5.6229   21.4911 C   0  0  0  0  0  0  0  0  0  0  0  0
    8.0722    7.7065   22.7738 He  0  0  0  0  0  0  0  0  0  0  0  0
    9.4393    3.9256   13.8960 He  0  0  0  0  0  0  0  0  0  0  0  0
    7.6822    8.3731   20.7556 He  0  0  0  0  0  0  0  0  0  0  0  0
  1  4  1  0
  1  8  3  0
  1 10  1  0
  1 17  1  0
  1 22  1  0
  1 26  4  0
  2 16  4  0
  2 22  4  0
  2 25  1  0
  3  5  2  0
  3 20  4  0
  3 24  2  0
  3 27  4  0
  4 20  4  0
  4 27  4  0
  5  7  2  0
  5 17  2  0
  6 11  4  0
  6 21  4  0
  6 23  4  0
  6 26  1  0
  7 25  1  0
  8 17  2  0
  9 18  4  0
  9 24  1  0
  9 27  4  0
 10 12  2  0
 10 24  4  0
 11 15  1  0
 12 13  1  0
 12 14  1  0
 12 16  3  0
 12 21  1  0
 13 21  4  0
 13 22  1  0
 13 27  2  0
 14 25  2  0
 15 20  4  0
 15 21  3  0
 16 20  2  0
 16 21  4  0
 17 20  1  0
 19 20  1  0
 21 26  4  0
 22 23  4  0
 24 26  3  0
 24 27  2  0
M  END
$$$$

 Created by Python create_sdf_string function

 30 60  0  0  0  0  0  0  0  0999 V2000
    8.1269    9.0164   18.2290 C   0  0  0  0  0  0  0  0  0  0  0  0
    8.0895    7.5624   22.9242 C   0  0  0  0  0  0  0  0  0  0  0  0
    8.5654    7.1815   16.0080 C   0  0  0  0  0  0  0  0  0  0  0  0
   10.1245    6.4553   22.1799 C   0  0  0  0  0  0  0  0  0  0  0  0
    8.3855    9.7168   19.6502 N   0  0  0  0  0  0  0  0  0  0  0  0
    8.6860    7.2223   24.8915 N   0  0  0  0  0  0  0  0  0  0  0  0
   10.4735    6.0031   14.0510 C   0  0  0  0  0  0  0  0  0  0  0  0
    7.3766    7.2533   25.1518 N   0  0  0  0  0  0  0  0  0  0  0  0
    8.2641   10.4431   16.5787 O   0  0  0  0  0  0  0  0  0  0  0  0
   12.3869    5.8812   20.4612 C   0  0  0  0  0  0  0  0  0  0  0  0
    6.4772    8.1679   20.4375 O   0  0  0  0  0  0  0  0  0  0  0  0
   13.6596    5.3445   18.8250 C   0  0  0  0  0  0  0  0  0  0  0  0
    8.3650   10.0086   17.2906 C   0  0  0  0  0  0  0  0  0  0  0  0
    9.6714    4.4459   13.7726 O   0  0  0  0  0  0  0  0  0  0  0  0
    9.2937    9.3376   16.7976 O   0  0  0  0  0  0  0  0  0  0  0  0
    5.4316    8.2521   23.0622 O   0  0  0  0  0  0  0  0  0  0  0  0
    7.8062    8.9734   20.8683 C   0  0  0  0  0  0  0  0  0  0  0  0
   13.2711    5.3026   20.0489 O   0  0  0  0  0  0  0  0  0  0  0  0
    9.1183    5.2678   15.6412 C   0  0  0  0  0  0  0  0  0  0  0  0
   11.6123    7.3782   19.4939 C   0  0  0  0  0  0  0  0  0  0  0  0
   10.3359    7.6329   20.2237 C   0  0  0  0  0  0  0  0  0  0  0  0
    9.7963    7.2755   21.5288 C   0  0  0  0  0  0  0  0  0  0  0  0
    9.7686    5.3635   14.4743 Cl  0  0  0  0  0  0  0  0  0  0  0  0
    9.9971    6.5120   23.0890 N   0  0  0  0  0  0  0  0  0  0  0  0
    6.8191    7.8971   23.4446 C   0  0  0  0  0  0  0  0  0  0  0  0
    9.0626    7.0354   23.9149 F   0  0  0  0  0  0  0  0  0  0  0  0
   11.5463    5.6804   21.5042 C   0  0  0  0  0  0  0  0  0  0  0  0
    8.6039    8.1051   21.3238 He  0  0  0  0  0  0  0  0  0  0  0  0
    9.7114    7.9099   16.1055 He  0  0  0  0  0  0  0  0  0  0  0  0
   10.7131    7.7692   14.8687 He  0  0  0  0  0  0  0  0  0  0  0  0
  1  5  1  0
  1 13  1  0
  1 14  1  0
  1 16  4  0
  1 24  3  0
  2 21  1  0
  2 25  1  0
  2 26  1  0
  3 15  1  0
  3 17  2  0
  3 19  4  0
  4 10  3  0
  4 22  4  0
  4 24  2  0
  4 27  4  0
  5 12  2  0
  5 17  1  0
  6  8  2  0
  6 11  2  0
  6 15  3  0
  7 17  4  0
  7 23  4  0
  8  9  2  0
  8 12  1  0
  8 14  1  0
  8 16  3  0
  8 25  1  0
  9 13  1  0
  9 19  2  0
  9 22  2  0
  9 23  3  0
 10 14  2  0
 10 18  1  0
 10 20  4  0
 10 27  4  0
 11 17  1  0
 11 24  3  0
 12 18  1  0
 12 26  4  0
 13 15  1  0
 13 24  4  0
 14 23  1  0
 14 25  1  0
 15 23  2  0
 16 17  3  0
 16 21  2  0
 16 25  2  0
 16 27  2  0
 17 21  3  0
 18 23  4  0
 19 20  1  0
 19 21  3  0
 19 23  4  0
 20 21  4  0
 20 24  2  0
 20 25  4  0
 21 22  4  0
 21 26  2  0
 24 26  2  0
 26 27  3  0
M  END
$$$$

 Created by Python create_sdf_string function

 30 44  0  0  0  0  0  0  0  0999 V2000
    8.2831    7.9984   22.8229 C   0  0  0  0  0  0  0  0  0  0  0  0
    8.8493    6.6097   16.1180 C   0  0  0  0  0  0  0  0  0  0  0  0
   10.7597    6.5256   21.9938 C   0  0  0  0  0  0  0  0  0  0  0  0
    8.2923    9.4462   19.5028 N   0  0  0  0  0  0  0  0  0  0  0  0
    8.4901    7.0164   25.0939 Cl  0  0  0  0  0  0  0  0  0  0  0  0
   10.6018    6.3892   13.9485 C   0  0  0  0  0  0  0  0  0  0  0  0
    7.0230    7.5283   25.0042 N   0  0  0  0  0  0  0  0  0  0  0  0
    7.8825   10.4151   16.1631 O   0  0  0  0  0  0  0  0  0  0  0  0
   12.1285    5.8560   20.4087 C   0  0  0  0  0  0  0  0  0  0  0  0
    6.4139    8.2724   20.5869 O   0  0  0  0  0  0  0  0  0  0  0  0
   13.7312    5.6261   18.9566 C   0  0  0  0  0  0  0  0  0  0  0  0
   10.1093    4.3498   14.0396 O   0  0  0  0  0  0  0  0  0  0  0  0
    9.7043    8.8529   16.6747 N   0  0  0  0  0  0  0  0  0  0  0  0
    5.8091    8.1780   23.0087 O   0  0  0  0  0  0  0  0  0  0  0  0
    7.8261    9.1192   20.6707 C   0  0  0  0  0  0  0  0  0  0  0  0
   13.4558    5.4185   19.9841 F   0  0  0  0  0  0  0  0  0  0  0  0
    8.4929    7.8927   21.6814 C   0  0  0  0  0  0  0  0  0  0  0  0
   11.5843    7.1215   19.7950 C   0  0  0  0  0  0  0  0  0  0  0  0
   10.4796    7.5150   19.8055 C   0  0  0  0  0  0  0  0  0  0  0  0
    9.6963    7.4887   21.1204 C   0  0  0  0  0  0  0  0  0  0  0  0
    9.7827    5.2868   14.4767 P   0  0  0  0  0  0  0  0  0  0  0  0
    9.5714    8.0941   15.6088 C   0  0  0  0  0  0  0  0  0  0  0  0
   10.2752    7.6707   14.9023 N   0  0  0  0  0  0  0  0  0  0  0  0
   10.0251    6.3202   23.2352 N   0  0  0  0  0  0  0  0  0  0  0  0
    6.6118    7.7832   23.9140 C   0  0  0  0  0  0  0  0  0  0  0  0
    9.1073    7.0747   23.6230 C   0  0  0  0  0  0  0  0  0  0  0  0
   11.4485    5.6964   21.6269 C   0  0  0  0  0  0  0  0  0  0  0  0
    7.9959    9.3998   18.4326 He  0  0  0  0  0  0  0  0  0  0  0  0
    8.3632    9.2516   17.3404 He  0  0  0  0  0  0  0  0  0  0  0  0
    8.7184    5.2663   15.6042 He  0  0  0  0  0  0  0  0  0  0  0  0
  1 25  1  0
  1 26  1  0
  2 22  4  0
  3 19  3  0
  3 20  3  0
  3 24  2  0
  3 25  4  0
  3 27  4  0
  4 11  4  0
  4 14  3  0
  4 15  1  0
  4 18  1  0
  4 27  4  0
  5  7  2  0
  5 24  1  0
  5 26  1  0
  6  7  3  0
  6 15  3  0
  6 21  4  0
  6 23  4  0
  7 11  1  0
  7 17  4  0
  7 18  1  0
  7 25  1  0
  8 22  4  0
  9 16  1  0
  9 18  4  0
  9 27  4  0
 10 12  3  0
 10 15  1  0
 10 22  1  0
 11 12  1  0
 11 16  1  0
 11 23  4  0
 11 27  2  0
 12 17  3  0
 12 21  1  0
 14 25  2  0
 15 17  1  0
 17 20  1  0
 18 19  4  0
 22 23  4  0
 23 26  3  0
 24 26  2  0
M  END
$$$$

 Created by Python create_sdf_string function

 30 59  0  0  0  0  0  0  0  0999 V2000
    7.7847    9.4909   18.4000 C   0  0  0  0  0  0  0  0  0  0  0  0
    7.9229    8.0277   22.7940 C   0  0  0  0  0  0  0  0  0  0  0  0
    8.6521    6.6532   16.2974 C   0  0  0  0  0  0  0  0  0  0  0  0
   10.7594    6.2121   22.0330 C   0  0  0  0  0  0  0  0  0  0  0  0
    8.4431    9.2919   19.4392 N   0  0  0  0  0  0  0  0  0  0  0  0
    8.7226    6.6775   24.9840 C   0  0  0  0  0  0  0  0  0  0  0  0
   10.4990    6.4300   14.1993 C   0  0  0  0  0  0  0  0  0  0  0  0
    6.7947    7.5756   24.8154 N   0  0  0  0  0  0  0  0  0  0  0  0
    8.0869   10.0635   16.4345 O   0  0  0  0  0  0  0  0  0  0  0  0
   12.1649    6.2150   20.5818 C   0  0  0  0  0  0  0  0  0  0  0  0
    6.5387    8.3666   20.9303 O   0  0  0  0  0  0  0  0  0  0  0  0
   13.5680    5.6112   19.1235 C   0  0  0  0  0  0  0  0  0  0  0  0
    8.3853    9.5626   17.1547 C   0  0  0  0  0  0  0  0  0  0  0  0
    9.9925    4.1066   13.7392 O   0  0  0  0  0  0  0  0  0  0  0  0
    9.5113    8.6979   16.4749 N   0  0  0  0  0  0  0  0  0  0  0  0
    5.9393    8.4720   23.1582 O   0  0  0  0  0  0  0  0  0  0  0  0
    7.6562    9.2118   20.9079 C   0  0  0  0  0  0  0  0  0  0  0  0
   13.0498    5.0965   20.3016 O   0  0  0  0  0  0  0  0  0  0  0  0
    8.4582    5.7556   15.8430 C   0  0  0  0  0  0  0  0  0  0  0  0
    8.5982    8.0408   21.7559 C   0  0  0  0  0  0  0  0  0  0  0  0
   11.6122    6.8776   19.3823 C   0  0  0  0  0  0  0  0  0  0  0  0
   10.2873    7.6420   20.0667 C   0  0  0  0  0  0  0  0  0  0  0  0
    9.7271    7.2856   20.9050 Cl  0  0  0  0  0  0  0  0  0  0  0  0
    9.6954    5.0811   14.3804 C   0  0  0  0  0  0  0  0  0  0  0  0
    9.5920    7.8543   15.9649 C   0  0  0  0  0  0  0  0  0  0  0  0
   10.1122    7.8540   15.1284 N   0  0  0  0  0  0  0  0  0  0  0  0
    9.7331    6.7321   23.0550 N   0  0  0  0  0  0  0  0  0  0  0  0
    6.9485    7.8879   23.5768 C   0  0  0  0  0  0  0  0  0  0  0  0
    9.0542    7.3079   23.7548 C   0  0  0  0  0  0  0  0  0  0  0  0
   11.5861    5.8482   21.5775 C   0  0  0  0  0  0  0  0  0  0  0  0
  1  5  1  0
  1 13  1  0
  1 18  3  0
  1 19  4  0
  1 23  2  0
  2  9  2  0
  2 28  1  0
  2 29  1  0
  3 19  4  0
  3 22  1  0
  3 25  4  0
  4 23  4  0
  4 30  4  0
  5 17  1  0
  6  8  2  0
  6 29  1  0
  7 10  1  0
  7 17  3  0
  7 23  3  0
  7 24  4  0
  7 25  4  0
  7 26  4  0
  8 11  1  0
  8 14  1  0
  8 20  4  0
  8 25  3  0
  8 27  4  0
  8 28  1  0
  9 13  2  0
  9 19  3  0
  9 24  4  0
 10 18  1  0
 10 20  3  0
 10 21  4  0
 10 30  4  0
 11 17  1  0
 11 24  4  0
 11 27  2  0
 12 18  1  0
 13 17  2  0
 14 21  4  0
 14 24  1  0
 14 27  2  0
 15 16  4  0
 15 18  4  0
 15 23  4  0
 15 25  1  0
 16 27  4  0
 16 28  2  0
 17 20  1  0
 19 20  2  0
 19 24  4  0
 20 23  1  0
 20 24  4  0
 21 22  4  0
 25 26  4  0
 26 28  4  0
 26 29  2  0
 27 29  2  0
M  END
$$$$

 Created by Python create_sdf_string function

 30 34  0  0  0  0  0  0  0  0999 V2000
    7.7419    9.4151   18.3262 C   0  0  0  0  0  0  0  0  0  0  0  0
    8.5265    6.7032   15.6031 C   0  0  0  0  0  0  0  0  0  0  0  0
   10.5409    6.5262   22.2206 C   0  0  0  0  0  0  0  0  0  0  0  0
    8.6057    9.3392   19.7424 N   0  0  0  0  0  0  0  0  0  0  0  0
    8.2464    6.8030   25.2814 C   0  0  0  0  0  0  0  0  0  0  0  0
   10.5272    6.2423   14.2267 C   0  0  0  0  0  0  0  0  0  0  0  0
    7.9571   10.2923   16.0099 O   0  0  0  0  0  0  0  0  0  0  0  0
   11.9793    5.7952   20.2416 C   0  0  0  0  0  0  0  0  0  0  0  0
    6.5342    8.3298   20.7029 O   0  0  0  0  0  0  0  0  0  0  0  0
   13.6029    5.6412   18.8494 C   0  0  0  0  0  0  0  0  0  0  0  0
    8.4153    9.7007   16.8648 C   0  0  0  0  0  0  0  0  0  0  0  0
    9.8307    4.2820   13.5496 O   0  0  0  0  0  0  0  0  0  0  0  0
    9.6299    8.9453   16.5111 N   0  0  0  0  0  0  0  0  0  0  0  0
    5.7545    8.6724   23.3762 O   0  0  0  0  0  0  0  0  0  0  0  0
    7.5664    8.9558   20.5445 C   0  0  0  0  0  0  0  0  0  0  0  0
   12.8694    5.7145   20.3444 O   0  0  0  0  0  0  0  0  0  0  0  0
    8.8894    5.1829   15.4244 C   0  0  0  0  0  0  0  0  0  0  0  0
    8.5475    8.1431   21.7318 C   0  0  0  0  0  0  0  0  0  0  0  0
   11.4950    6.6421   19.5329 C   0  0  0  0  0  0  0  0  0  0  0  0
   10.1434    7.8032   19.5306 C   0  0  0  0  0  0  0  0  0  0  0  0
    9.7842    5.2631   14.6966 C   0  0  0  0  0  0  0  0  0  0  0  0
    9.5984    7.8861   16.1269 N   0  0  0  0  0  0  0  0  0  0  0  0
   10.3271    7.8287   14.9490 N   0  0  0  0  0  0  0  0  0  0  0  0
    6.9219    8.1981   23.9443 C   0  0  0  0  0  0  0  0  0  0  0  0
    9.0193    6.9924   23.7925 C   0  0  0  0  0  0  0  0  0  0  0  0
    8.0013    7.5348   22.8003 He  0  0  0  0  0  0  0  0  0  0  0  0
    7.0940    7.6429   24.8047 He  0  0  0  0  0  0  0  0  0  0  0  0
   10.0247    7.6345   20.9016 He  0  0  0  0  0  0  0  0  0  0  0  0
   10.2368    6.6368   23.4410 He  0  0  0  0  0  0  0  0  0  0  0  0
   11.6894    5.9329   21.6381 He  0  0  0  0  0  0  0  0  0  0  0  0
  1  4  3  0
  1 11  1  0
  2  5  4  0
  2 15  1  0
  2 17  4  0
  4 15  1  0
  4 21  4  0
  5 10  3  0
  5 19  2  0
  5 25  1  0
  6 21  4  0
  6 22  4  0
  6 23  4  0
  7 11  2  0
  8 16  1  0
  8 19  4  0
  9 15  2  0
 10 16  1  0
 10 17  3  0
 10 23  3  0
 11 12  4  0
 11 13  1  0
 11 19  1  0
 11 22  1  0
 12 21  1  0
 13 22  1  0
 14 20  4  0
 14 24  2  0
 15 18  1  0
 15 19  4  0
 17 21  1  0
 18 22  3  0
 19 20  4  0
 22 23  4  0
M  END
$$$$

 Created by Python create_sdf_string function

 30 57  0  0  0  0  0  0  0  0999 V2000
    8.4894    6.6249   16.0194 C   0  0  0  0  0  0  0  0  0  0  0  0
   10.2930    6.4761   22.3035 C   0  0  0  0  0  0  0  0  0  0  0  0
    8.0922    9.4478   19.3035 N   0  0  0  0  0  0  0  0  0  0  0  0
    8.3462    6.8355   25.2916 C   0  0  0  0  0  0  0  0  0  0  0  0
   10.8451    6.2991   14.4605 C   0  0  0  0  0  0  0  0  0  0  0  0
    7.2739    7.3525   25.0025 N   0  0  0  0  0  0  0  0  0  0  0  0
    8.0059    9.9939   16.2778 O   0  0  0  0  0  0  0  0  0  0  0  0
   12.0843    6.2453   20.2826 C   0  0  0  0  0  0  0  0  0  0  0  0
    6.6713    8.7749   20.7835 O   0  0  0  0  0  0  0  0  0  0  0  0
   13.6349    5.5719   18.9979 C   0  0  0  0  0  0  0  0  0  0  0  0
    8.6311    9.8824   16.9952 C   0  0  0  0  0  0  0  0  0  0  0  0
    9.7488    4.0420   13.9798 O   0  0  0  0  0  0  0  0  0  0  0  0
    9.5432    8.8047   16.7412 N   0  0  0  0  0  0  0  0  0  0  0  0
    6.2384    8.9526   23.0648 P   0  0  0  0  0  0  0  0  0  0  0  0
    7.7648    8.5412   20.4051 C   0  0  0  0  0  0  0  0  0  0  0  0
   13.4584    5.5590   19.8439 O   0  0  0  0  0  0  0  0  0  0  0  0
    8.7273    5.5449   15.4517 C   0  0  0  0  0  0  0  0  0  0  0  0
    8.9206    7.8644   21.6286 C   0  0  0  0  0  0  0  0  0  0  0  0
   11.1917    6.7936   19.2416 C   0  0  0  0  0  0  0  0  0  0  0  0
    9.8925    7.4887   20.0203 C   0  0  0  0  0  0  0  0  0  0  0  0
    9.7247    7.3401   20.9480 C   0  0  0  0  0  0  0  0  0  0  0  0
    9.6418    5.5067   14.6512 C   0  0  0  0  0  0  0  0  0  0  0  0
    9.6124    7.6886   15.9551 C   0  0  0  0  0  0  0  0  0  0  0  0
   10.4292    7.6296   14.7846 N   0  0  0  0  0  0  0  0  0  0  0  0
   10.2885    6.7609   23.6860 N   0  0  0  0  0  0  0  0  0  0  0  0
    6.7376    8.3729   23.8902 C   0  0  0  0  0  0  0  0  0  0  0  0
    9.1308    6.9312   23.8609 C   0  0  0  0  0  0  0  0  0  0  0  0
   11.7700    5.9430   21.7658 C   0  0  0  0  0  0  0  0  0  0  0  0
    7.9918    9.3448   18.2098 He  0  0  0  0  0  0  0  0  0  0  0  0
    8.1133    7.6900   22.8792 He  0  0  0  0  0  0  0  0  0  0  0  0
  1 17  4  0
  1 23  4  0
  2 21  4  0
  2 25  1  0
  2 27  1  0
  2 28  4  0
  3  5  2  0
  3 15  1  0
  3 27  1  0
  3 28  3  0
  4  6  2  0
  4 20  2  0
  4 27  1  0
  5 22  4  0
  5 24  4  0
  6 17  4  0
  6 20  1  0
  6 26  1  0
  7 11  2  0
  7 23  3  0
  7 28  3  0
  8 16  1  0
  8 17  3  0
  8 18  4  0
  8 19  4  0
  8 22  2  0
  8 23  1  0
  9 15  2  0
 10 11  1  0
 10 16  1  0
 10 23  2  0
 10 26  4  0
 11 13  1  0
 11 24  2  0
 12 16  4  0
 12 21  4  0
 12 22  1  0
 12 28  4  0
 13 15  2  0
 13 17  2  0
 13 23  1  0
 13 25  1  0
 13 27  2  0
 14 26  2  0
 15 18  4  0
 15 28  1  0
 17 22  1  0
 18 21  1  0
 19 20  4  0
 19 24  4  0
 20 21  4  0
 20 28  1  0
 22 24  1  0
 23 24  4  0
 23 26  2  0
 23 28  4  0
 25 27  2  0
M  END
$$$$

 Created by Python create_sdf_string function

 30 40  0  0  0  0  0  0  0  0999 V2000
    7.8293    9.7233   18.4679 C   0  0  0  0  0  0  0  0  0  0  0  0
    7.8469    7.7802   22.9023 C   0  0  0  0  0  0  0  0  0  0  0  0
    8.6198    6.9761   16.0278 C   0  0  0  0  0  0  0  0  0  0  0  0
   10.1782    6.7961   22.1274 C   0  0  0  0  0  0  0  0  0  0  0  0
    8.4394    7.1672   25.1095 C   0  0  0  0  0  0  0  0  0  0  0  0
   10.4390    6.3490   14.2906 C   0  0  0  0  0  0  0  0  0  0  0  0
    7.0257    7.6532   25.1104 N   0  0  0  0  0  0  0  0  0  0  0  0
    7.7996   10.4203   16.1245 O   0  0  0  0  0  0  0  0  0  0  0  0
    6.7234    8.6320   20.9342 O   0  0  0  0  0  0  0  0  0  0  0  0
   13.7126    5.8966   18.8815 C   0  0  0  0  0  0  0  0  0  0  0  0
    8.5593    9.4789   17.0134 C   0  0  0  0  0  0  0  0  0  0  0  0
    9.3882    8.8998   16.5930 N   0  0  0  0  0  0  0  0  0  0  0  0
    6.1295    9.0513   23.5332 O   0  0  0  0  0  0  0  0  0  0  0  0
    7.3463    8.7361   20.7162 C   0  0  0  0  0  0  0  0  0  0  0  0
   13.1767    5.7532   20.0276 O   0  0  0  0  0  0  0  0  0  0  0  0
    8.5304    5.5211   15.3256 C   0  0  0  0  0  0  0  0  0  0  0  0
    8.5151    8.0498   21.3140 C   0  0  0  0  0  0  0  0  0  0  0  0
   11.4141    6.6536   19.3127 C   0  0  0  0  0  0  0  0  0  0  0  0
   10.3291    7.2600   19.6345 C   0  0  0  0  0  0  0  0  0  0  0  0
    9.6962    7.2736   21.2611 C   0  0  0  0  0  0  0  0  0  0  0  0
    9.6796    5.2689   14.7865 C   0  0  0  0  0  0  0  0  0  0  0  0
   10.5553    7.7352   15.0134 N   0  0  0  0  0  0  0  0  0  0  0  0
   10.1412    6.5587   23.4259 N   0  0  0  0  0  0  0  0  0  0  0  0
    6.9169    8.0558   23.8513 C   0  0  0  0  0  0  0  0  0  0  0  0
    9.1461    7.1776   23.9192 C   0  0  0  0  0  0  0  0  0  0  0  0
   11.8909    6.0088   21.6512 C   0  0  0  0  0  0  0  0  0  0  0  0
    8.0484    9.5180   19.5963 He  0  0  0  0  0  0  0  0  0  0  0  0
   12.0274    6.3024   20.5337 He  0  0  0  0  0  0  0  0  0  0  0  0
    9.4389    3.9686   13.7340 He  0  0  0  0  0  0  0  0  0  0  0  0
    9.5251    7.7480   16.0738 He  0  0  0  0  0  0  0  0  0  0  0  0
  1 11  1  0
  1 15  4  0
  1 18  1  0
  1 20  3  0
  1 25  1  0
  2 17  2  0
  2 20  3  0
  2 24  1  0
  2 25  1  0
  3 12  4  0
  3 15  1  0
  3 16  4  0
  3 21  4  0
  4 20  4  0
  4 23  1  0
  4 24  1  0
  4 26  4  0
  5  7  2  0
  5 25  1  0
  6 21  4  0
  6 22  4  0
  7 24  1  0
  7 25  2  0
  8 10  4  0
  8 11  2  0
  9 26  4  0
 10 15  1  0
 10 26  3  0
 11 12  1  0
 11 14  3  0
 13 20  3  0
 15 24  4  0
 16 21  4  0
 16 22  4  0
 17 20  1  0
 18 19  4  0
 18 26  4  0
 19 20  4  0
 22 26  4  0
 23 25  2  0
M  END
$$$$

 Created by Python create_sdf_string function

 30 48  0  0  0  0  0  0  0  0999 V2000
    7.7674    9.8513   18.5492 C   0  0  0  0  0  0  0  0  0  0  0  0
    8.1111    7.5725   22.6870 C   0  0  0  0  0  0  0  0  0  0  0  0
    8.5470    7.1018   16.0628 C   0  0  0  0  0  0  0  0  0  0  0  0
   10.6042    6.5552   22.0662 C   0  0  0  0  0  0  0  0  0  0  0  0
    8.2932    9.5138   19.3095 O   0  0  0  0  0  0  0  0  0  0  0  0
    8.4763    6.9236   25.1096 C   0  0  0  0  0  0  0  0  0  0  0  0
   10.3715    6.4814   14.2259 C   0  0  0  0  0  0  0  0  0  0  0  0
    7.1838    7.6998   25.1933 N   0  0  0  0  0  0  0  0  0  0  0  0
    7.7927   10.2391   16.1070 O   0  0  0  0  0  0  0  0  0  0  0  0
   12.2308    6.2489   20.5532 C   0  0  0  0  0  0  0  0  0  0  0  0
    6.5125    8.6715   20.9170 O   0  0  0  0  0  0  0  0  0  0  0  0
   13.8872    5.9754   18.6259 C   0  0  0  0  0  0  0  0  0  0  0  0
    8.4061    9.7469   17.0056 O   0  0  0  0  0  0  0  0  0  0  0  0
    9.5117    3.9168   13.9334 Cl  0  0  0  0  0  0  0  0  0  0  0  0
    9.3940    9.1484   16.8063 N   0  0  0  0  0  0  0  0  0  0  0  0
    5.9942    8.7152   23.5893 O   0  0  0  0  0  0  0  0  0  0  0  0
    7.5826    8.8637   20.6543 C   0  0  0  0  0  0  0  0  0  0  0  0
   13.2843    5.7089   19.9725 O   0  0  0  0  0  0  0  0  0  0  0  0
    8.7964    5.6098   15.4148 C   0  0  0  0  0  0  0  0  0  0  0  0
    8.4926    7.9836   21.4946 N   0  0  0  0  0  0  0  0  0  0  0  0
   11.3442    7.0057   19.3813 C   0  0  0  0  0  0  0  0  0  0  0  0
   10.1472    7.2960   19.7436 C   0  0  0  0  0  0  0  0  0  0  0  0
    9.7938    7.3416   20.9114 C   0  0  0  0  0  0  0  0  0  0  0  0
    9.7052    5.5406   14.4933 C   0  0  0  0  0  0  0  0  0  0  0  0
    9.3163    7.6264   15.9933 Br  0  0  0  0  0  0  0  0  0  0  0  0
   10.5310    7.3376   14.7237 N   0  0  0  0  0  0  0  0  0  0  0  0
   10.0303    6.4035   23.3007 N   0  0  0  0  0  0  0  0  0  0  0  0
    8.8802    7.1840   23.6190 C   0  0  0  0  0  0  0  0  0  0  0  0
   11.6418    6.0704   21.7402 C   0  0  0  0  0  0  0  0  0  0  0  0
    6.8428    8.2804   23.7132 He  0  0  0  0  0  0  0  0  0  0  0  0
  1  5  1  0
  1 13  1  0
  2 13  1  0
  2 20  2  0
  2 21  4  0
  2 28  1  0
  3  8  4  0
  3 12  1  0
  3 19  4  0
  3 25  4  0
  4  7  2  0
  4 23  4  0
  4 27  1  0
  4 29  4  0
  5  9  3  0
  5 17  1  0
  6  8  2  0
  6 26  3  0
  6 28  1  0
  7 13  2  0
  7 24  4  0
  7 26  4  0
  8 11  3  0
  8 14  3  0
 10 16  4  0
 10 18  1  0
 10 21  4  0
 10 22  3  0
 10 29  4  0
 11 17  2  0
 12 17  1  0
 12 18  1  0
 13 15  1  0
 14 24  1  0
 14 25  3  0
 14 27  1  0
 15 18  2  0
 15 25  2  0
 15 26  2  0
 17 20  1  0
 18 24  1  0
 18 29  3  0
 19 24  4  0
 21 22  4  0
 21 23  4  0
 22 23  4  0
 25 26  4  0
 27 28  2  0
M  END
$$$$

 Created by Python create_sdf_string function

 30 55  0  0  0  0  0  0  0  0999 V2000
    7.7963    9.8613   18.7746 C   0  0  0  0  0  0  0  0  0  0  0  0
    7.9513    7.6241   22.9332 C   0  0  0  0  0  0  0  0  0  0  0  0
    8.6765    6.8454   15.9384 C   0  0  0  0  0  0  0  0  0  0  0  0
   10.6999    6.7691   22.0789 C   0  0  0  0  0  0  0  0  0  0  0  0
    8.2306    9.3283   19.4823 O   0  0  0  0  0  0  0  0  0  0  0  0
    8.5140    6.8520   24.9739 C   0  0  0  0  0  0  0  0  0  0  0  0
   10.2420    6.4774   14.1923 C   0  0  0  0  0  0  0  0  0  0  0  0
    7.1277    7.6899   25.0414 C   0  0  0  0  0  0  0  0  0  0  0  0
    7.7311   10.2709   15.9549 O   0  0  0  0  0  0  0  0  0  0  0  0
   12.1293    6.3323   20.4510 C   0  0  0  0  0  0  0  0  0  0  0  0
    6.7403    8.8909   20.7328 N   0  0  0  0  0  0  0  0  0  0  0  0
   13.8734    5.8408   18.6840 C   0  0  0  0  0  0  0  0  0  0  0  0
    8.5684    9.5896   16.7430 C   0  0  0  0  0  0  0  0  0  0  0  0
    9.5914    4.0818   13.8928 Cl  0  0  0  0  0  0  0  0  0  0  0  0
    9.5272    8.8686   16.7939 N   0  0  0  0  0  0  0  0  0  0  0  0
    5.7397    8.5098   23.6067 O   0  0  0  0  0  0  0  0  0  0  0  0
    7.5856    8.5009   20.7576 C   0  0  0  0  0  0  0  0  0  0  0  0
   13.5649    5.8110   19.9863 O   0  0  0  0  0  0  0  0  0  0  0  0
    8.6579    5.6104   15.7071 C   0  0  0  0  0  0  0  0  0  0  0  0
    8.4775    7.8255   21.3805 C   0  0  0  0  0  0  0  0  0  0  0  0
   11.1828    6.8685   19.4312 C   0  0  0  0  0  0  0  0  0  0  0  0
   10.3017    7.5618   19.8555 C   0  0  0  0  0  0  0  0  0  0  0  0
    9.9281    7.2408   21.1396 C   0  0  0  0  0  0  0  0  0  0  0  0
    9.5535    5.5322   14.4269 C   0  0  0  0  0  0  0  0  0  0  0  0
    9.5519    7.8390   15.8334 C   0  0  0  0  0  0  0  0  0  0  0  0
   10.5430    7.4105   15.1297 N   0  0  0  0  0  0  0  0  0  0  0  0
    9.9806    6.6008   23.0972 N   0  0  0  0  0  0  0  0  0  0  0  0
    6.8528    8.1115   23.5405 C   0  0  0  0  0  0  0  0  0  0  0  0
    9.0009    6.9220   23.5556 C   0  0  0  0  0  0  0  0  0  0  0  0
   11.8479    6.0183   21.7937 C   0  0  0  0  0  0  0  0  0  0  0  0
  1  5  1  0
  1  9  4  0
  1 11  3  0
  2 20  2  0
  2 26  4  0
  2 28  1  0
  2 29  1  0
  3 16  2  0
  3 19  4  0
  3 25  4  0
  4 23  4  0
  4 27  1  0
  4 30  4  0
  5 17  1  0
  5 21  1  0
  5 26  2  0
  6  8  2  0
  6 23  1  0
  6 29  1  0
  7 24  4  0
  7 26  4  0
  8 12  4  0
  8 18  1  0
  8 22  2  0
  8 24  3  0
  8 28  1  0
  9 13  2  0
  9 26  2  0
  9 29  3  0
  9 30  2  0
 10 18  1  0
 10 21  4  0
 10 22  3  0
 10 26  4  0
 10 30  4  0
 11 16  4  0
 11 17  2  0
 11 30  4  0
 12 16  3  0
 12 18  1  0
 13 15  1  0
 14 24  1  0
 14 27  3  0
 15 25  1  0
 16 28  4  0
 17 20  1  0
 19 24  4  0
 20 23  1  0
 20 27  4  0
 21 22  4  0
 22 23  1  0
 23 25  2  0
 25 26  4  0
 26 29  1  0
 27 29  3  0
M  END
$$$$

 Created by Python create_sdf_string function

 30 50  0  0  0  0  0  0  0  0999 V2000
    8.2194    9.8288   18.4183 C   0  0  0  0  0  0  0  0  0  0  0  0
    8.1722    7.6277   22.7128 C   0  0  0  0  0  0  0  0  0  0  0  0
    8.5249    6.9237   16.2161 C   0  0  0  0  0  0  0  0  0  0  0  0
   10.6492    6.3625   21.9972 C   0  0  0  0  0  0  0  0  0  0  0  0
    8.4997    9.2983   19.5365 O   0  0  0  0  0  0  0  0  0  0  0  0
    8.7175    6.8055   24.9932 C   0  0  0  0  0  0  0  0  0  0  0  0
   10.5407    6.5641   14.2964 C   0  0  0  0  0  0  0  0  0  0  0  0
    7.0879    7.7046   24.8398 C   0  0  0  0  0  0  0  0  0  0  0  0
    7.7694   10.1397   16.1590 O   0  0  0  0  0  0  0  0  0  0  0  0
   12.1609    6.3566   20.2473 C   0  0  0  0  0  0  0  0  0  0  0  0
    6.3727    8.7432   20.8547 O   0  0  0  0  0  0  0  0  0  0  0  0
   13.9007    5.6532   18.7593 C   0  0  0  0  0  0  0  0  0  0  0  0
    8.4390    9.8088   16.9195 C   0  0  0  0  0  0  0  0  0  0  0  0
    9.4748    4.0313   13.9015 Cl  0  0  0  0  0  0  0  0  0  0  0  0
    9.4032    8.8164   16.7046 N   0  0  0  0  0  0  0  0  0  0  0  0
    5.7261    8.6663   23.3162 O   0  0  0  0  0  0  0  0  0  0  0  0
    7.7421    8.6396   20.7905 C   0  0  0  0  0  0  0  0  0  0  0  0
   13.3967    6.0047   20.1514 O   0  0  0  0  0  0  0  0  0  0  0  0
    8.3215    5.5536   15.3217 C   0  0  0  0  0  0  0  0  0  0  0  0
    8.1960    7.9123   21.7748 C   0  0  0  0  0  0  0  0  0  0  0  0
   11.5159    6.9893   19.1995 C   0  0  0  0  0  0  0  0  0  0  0  0
   10.4274    7.4410   19.8036 C   0  0  0  0  0  0  0  0  0  0  0  0
    9.7318    7.3232   21.0822 C   0  0  0  0  0  0  0  0  0  0  0  0
    9.5415    5.5009   14.4500 C   0  0  0  0  0  0  0  0  0  0  0  0
    9.6730    7.8750   15.9214 C   0  0  0  0  0  0  0  0  0  0  0  0
   10.4270    7.4391   14.9492 N   0  0  0  0  0  0  0  0  0  0  0  0
    9.7823    6.5141   23.3102 N   0  0  0  0  0  0  0  0  0  0  0  0
    6.6734    8.0038   23.7439 C   0  0  0  0  0  0  0  0  0  0  0  0
    9.0976    6.9606   23.6418 C   0  0  0  0  0  0  0  0  0  0  0  0
   11.7626    6.0254   21.6624 C   0  0  0  0  0  0  0  0  0  0  0  0
  1  5  1  0
  1  6  4  0
  1 13  1  0
  1 14  3  0
  1 19  2  0
  1 20  3  0
  2 20  2  0
  2 28  1  0
  2 29  3  0
  3 19  4  0
  3 22  3  0
  3 25  4  0
  4  6  2  0
  4 23  4  0
  4 26  3  0
  4 27  1  0
  5 17  1  0
  5 21  3  0
  5 29  3  0
  6  8  2  0
  6 16  3  0
  6 29  1  0
  7 16  3  0
  7 24  4  0
  7 26  4  0
  8 28  1  0
  9 13  2  0
 10 12  3  0
 10 18  1  0
 10 21  4  0
 10 30  4  0
 11 17  2  0
 11 20  4  0
 12 15  4  0
 12 18  1  0
 13 15  1  0
 14 24  1  0
 15 25  1  0
 16 28  2  0
 17 20  1  0
 18 24  1  0
 19 24  4  0
 20 23  3  0
 21 22  4  0
 22 23  4  0
 22 26  2  0
 22 29  1  0
 23 26  3  0
 25 26  4  0
 27 29  2  0
M  END
$$$$

 Created by Python create_sdf_string function

 30 41  0  0  0  0  0  0  0  0999 V2000
    8.3103    9.9033   18.3658 C   0  0  0  0  0  0  0  0  0  0  0  0
    7.8060    7.6641   22.6495 C   0  0  0  0  0  0  0  0  0  0  0  0
    8.3971    6.8915   15.9654 C   0  0  0  0  0  0  0  0  0  0  0  0
   10.4418    6.7565   22.1617 C   0  0  0  0  0  0  0  0  0  0  0  0
    8.2611    9.0648   19.7839 O   0  0  0  0  0  0  0  0  0  0  0  0
    8.5428    6.9467   24.9216 C   0  0  0  0  0  0  0  0  0  0  0  0
   10.4865    6.4299   14.3789 C   0  0  0  0  0  0  0  0  0  0  0  0
    7.1449    7.6393   25.0525 C   0  0  0  0  0  0  0  0  0  0  0  0
    7.8027   10.1626   16.1755 O   0  0  0  0  0  0  0  0  0  0  0  0
   12.4424    6.2993   20.3011 C   0  0  0  0  0  0  0  0  0  0  0  0
    6.5949    8.7733   20.7986 O   0  0  0  0  0  0  0  0  0  0  0  0
    8.5191    9.4019   16.7932 C   0  0  0  0  0  0  0  0  0  0  0  0
    9.3905    4.0608   13.8086 Cl  0  0  0  0  0  0  0  0  0  0  0  0
    9.3149    9.2281   16.8566 N   0  0  0  0  0  0  0  0  0  0  0  0
    5.7731    8.6696   23.2740 O   0  0  0  0  0  0  0  0  0  0  0  0
    7.8397    8.6320   20.7619 C   0  0  0  0  0  0  0  0  0  0  0  0
   13.4399    5.7332   20.1468 O   0  0  0  0  0  0  0  0  0  0  0  0
    8.5991    5.7380   15.3500 C   0  0  0  0  0  0  0  0  0  0  0  0
    8.4017    7.9025   21.5530 C   0  0  0  0  0  0  0  0  0  0  0  0
   11.6208    7.0268   19.3724 C   0  0  0  0  0  0  0  0  0  0  0  0
   10.3041    7.6435   19.8313 C   0  0  0  0  0  0  0  0  0  0  0  0
    9.6687    7.3630   21.1536 C   0  0  0  0  0  0  0  0  0  0  0  0
    9.3862    5.5705   14.5141 C   0  0  0  0  0  0  0  0  0  0  0  0
    9.3692    7.5710   16.0286 N   0  0  0  0  0  0  0  0  0  0  0  0
   10.4432    7.5798   14.9654 N   0  0  0  0  0  0  0  0  0  0  0  0
    9.9115    6.4488   23.0686 N   0  0  0  0  0  0  0  0  0  0  0  0
    6.8958    8.2146   23.6825 C   0  0  0  0  0  0  0  0  0  0  0  0
    8.8014    6.9666   23.5458 F   0  0  0  0  0  0  0  0  0  0  0  0
   11.7073    6.0329   21.5209 C   0  0  0  0  0  0  0  0  0  0  0  0
   13.6965    5.7747   18.6077 He  0  0  0  0  0  0  0  0  0  0  0  0
  1  4  2  0
  1  5  1  0
  1  8  1  0
  2 19  2  0
  2 27  1  0
  2 28  1  0
  3 17  1  0
  3 18  4  0
  3 24  4  0
  3 28  4  0
  4 11  2  0
  4 22  4  0
  4 26  1  0
  4 29  4  0
  5  8  2  0
  5 16  1  0
  6  8  2  0
  6 28  1  0
  7  9  1  0
  7 17  4  0
  7 23  4  0
  7 25  4  0
  8 16  1  0
  8 27  1  0
  9 12  2  0
  9 17  2  0
  9 22  4  0
 10 17  1  0
 10 20  4  0
 10 29  1  0
 12 14  1  0
 13 23  1  0
 14 24  1  0
 15 27  2  0
 16 19  1  0
 18 23  4  0
 19 22  1  0
 20 21  4  0
 21 25  2  0
 24 25  4  0
 27 28  2  0
M  END
$$$$

 Created by Python create_sdf_string function

 30 42  0  0  0  0  0  0  0  0999 V2000
    8.2433    9.9233   18.5325 C   0  0  0  0  0  0  0  0  0  0  0  0
    8.0657    7.5101   22.8536 C   0  0  0  0  0  0  0  0  0  0  0  0
    8.4475    7.0643   16.1677 C   0  0  0  0  0  0  0  0  0  0  0  0
   10.6268    6.5970   21.8766 C   0  0  0  0  0  0  0  0  0  0  0  0
    8.4082    8.9641   19.4308 O   0  0  0  0  0  0  0  0  0  0  0  0
    8.5480    7.1848   25.0307 C   0  0  0  0  0  0  0  0  0  0  0  0
   10.3769    6.1957   14.3601 C   0  0  0  0  0  0  0  0  0  0  0  0
    7.2673    7.4637   25.1951 C   0  0  0  0  0  0  0  0  0  0  0  0
    7.8529   10.2841   16.0825 O   0  0  0  0  0  0  0  0  0  0  0  0
    6.6558    8.8783   20.8965 O   0  0  0  0  0  0  0  0  0  0  0  0
   13.7298    5.8753   18.7955 C   0  0  0  0  0  0  0  0  0  0  0  0
    8.4250    9.6901   16.7921 C   0  0  0  0  0  0  0  0  0  0  0  0
    9.5294    4.1551   13.8036 Cl  0  0  0  0  0  0  0  0  0  0  0  0
    9.5351    8.9862   16.7156 N   0  0  0  0  0  0  0  0  0  0  0  0
    5.8484    8.6950   23.4680 O   0  0  0  0  0  0  0  0  0  0  0  0
    7.7297    8.6198   20.6839 N   0  0  0  0  0  0  0  0  0  0  0  0
   13.4390    5.7232   20.1853 O   0  0  0  0  0  0  0  0  0  0  0  0
    8.3210    5.5971   15.2042 C   0  0  0  0  0  0  0  0  0  0  0  0
    8.6243    7.9496   21.4640 C   0  0  0  0  0  0  0  0  0  0  0  0
   11.4849    7.0310   19.4711 C   0  0  0  0  0  0  0  0  0  0  0  0
   10.2228    7.4960   19.8475 C   0  0  0  0  0  0  0  0  0  0  0  0
    9.6230    7.3086   20.9270 C   0  0  0  0  0  0  0  0  0  0  0  0
    9.6409    5.5275   14.5768 C   0  0  0  0  0  0  0  0  0  0  0  0
    9.3568    7.7648   15.8020 C   0  0  0  0  0  0  0  0  0  0  0  0
   10.4727    7.7887   15.1234 N   0  0  0  0  0  0  0  0  0  0  0  0
    9.8539    6.5536   23.1447 N   0  0  0  0  0  0  0  0  0  0  0  0
    6.8524    8.1536   23.6729 C   0  0  0  0  0  0  0  0  0  0  0  0
   11.7485    5.9682   21.5853 C   0  0  0  0  0  0  0  0  0  0  0  0
   12.1726    6.1695   20.3078 He  0  0  0  0  0  0  0  0  0  0  0  0
    8.9546    7.1300   23.6053 He  0  0  0  0  0  0  0  0  0  0  0  0
  1  5  1  0
  2 18  3  0
  2 19  2  0
  2 21  1  0
  2 27  1  0
  3 24  4  0
  4  5  1  0
  4 15  2  0
  4 22  4  0
  4 26  1  0
  4 28  4  0
  5 16  1  0
  6  7  3  0
  6  8  2  0
  6 20  3  0
  7 20  3  0
  7 23  4  0
  7 25  4  0
  8 20  4  0
  8 27  1  0
  9 12  2  0
 10 16  2  0
 10 20  2  0
 11 17  1  0
 12 14  1  0
 12 23  1  0
 12 24  4  0
 13 23  1  0
 14 24  2  0
 14 26  1  0
 15 24  2  0
 15 27  2  0
 16 19  1  0
 16 20  4  0
 16 25  1  0
 18 23  4  0
 19 22  1  0
 20 21  4  0
 21 22  3  0
 23 26  4  0
 24 25  4  0
 26 28  1  0
M  END
$$$$

 Created by Python create_sdf_string function

 30 40  0  0  0  0  0  0  0  0999 V2000
    8.1934    9.9490   18.4069 C   0  0  0  0  0  0  0  0  0  0  0  0
    8.1455    7.6717   22.7460 C   0  0  0  0  0  0  0  0  0  0  0  0
    8.4317    6.9549   16.0284 C   0  0  0  0  0  0  0  0  0  0  0  0
   10.3631    6.8519   21.9432 C   0  0  0  0  0  0  0  0  0  0  0  0
    8.5851    7.1882   25.2020 C   0  0  0  0  0  0  0  0  0  0  0  0
   10.4346    6.3952   14.3966 C   0  0  0  0  0  0  0  0  0  0  0  0
    7.2014    7.4448   25.0875 C   0  0  0  0  0  0  0  0  0  0  0  0
    7.9071   10.1236   16.2126 O   0  0  0  0  0  0  0  0  0  0  0  0
   12.0515    6.2960   20.4101 C   0  0  0  0  0  0  0  0  0  0  0  0
    6.7035    8.9532   20.6529 O   0  0  0  0  0  0  0  0  0  0  0  0
   13.8652    5.9912   18.8940 C   0  0  0  0  0  0  0  0  0  0  0  0
    8.3955    9.6809   16.8519 C   0  0  0  0  0  0  0  0  0  0  0  0
    9.3969    3.9548   13.6798 Cl  0  0  0  0  0  0  0  0  0  0  0  0
    9.4962    8.8539   16.6957 N   0  0  0  0  0  0  0  0  0  0  0  0
    5.9709    8.6673   23.5112 O   0  0  0  0  0  0  0  0  0  0  0  0
    7.7729    8.6304   20.7573 C   0  0  0  0  0  0  0  0  0  0  0  0
   13.5296    5.6946   19.8794 O   0  0  0  0  0  0  0  0  0  0  0  0
    8.2667    5.5996   15.4454 C   0  0  0  0  0  0  0  0  0  0  0  0
    8.4026    7.7925   21.6464 C   0  0  0  0  0  0  0  0  0  0  0  0
   10.1885    7.6213   19.7271 C   0  0  0  0  0  0  0  0  0  0  0  0
    9.8144    7.3031   20.8578 C   0  0  0  0  0  0  0  0  0  0  0  0
    9.4242    5.4454   14.4345 C   0  0  0  0  0  0  0  0  0  0  0  0
    9.5193    7.6552   15.8573 P   0  0  0  0  0  0  0  0  0  0  0  0
   10.4152    7.7248   15.1481 N   0  0  0  0  0  0  0  0  0  0  0  0
   10.0278    6.4405   23.1475 N   0  0  0  0  0  0  0  0  0  0  0  0
    7.0394    8.1692   23.7761 C   0  0  0  0  0  0  0  0  0  0  0  0
    8.8852    6.7052   23.5496 C   0  0  0  0  0  0  0  0  0  0  0  0
   11.7734    5.8725   21.6959 C   0  0  0  0  0  0  0  0  0  0  0  0
    8.2316    8.7687   19.5859 He  0  0  0  0  0  0  0  0  0  0  0  0
   11.5367    6.8608   19.3490 He  0  0  0  0  0  0  0  0  0  0  0  0
  1 12  1  0
  1 14  1  0
  2  6  3  0
  2 19  2  0
  2 26  1  0
  2 27  1  0
  2 28  2  0
  3 18  4  0
  3 23  4  0
  4 28  4  0
  5  7  2  0
  5 21  3  0
  5 27  1  0
  6 22  4  0
  6 24  4  0
  7 11  2  0
  7 26  1  0
  8 10  4  0
  8 12  2  0
  8 24  2  0
  9 28  4  0
 10 16  2  0
 10 27  3  0
 10 28  3  0
 11 17  1  0
 12 14  1  0
 12 18  2  0
 12 23  1  0
 13 16  4  0
 13 22  1  0
 15 26  2  0
 16 19  1  0
 18 22  4  0
 18 23  1  0
 19 21  1  0
 19 23  1  0
 20 21  4  0
 21 26  2  0
 23 24  4  0
 25 27  2  0
M  END
$$$$

 Created by Python create_sdf_string function

 30 44  0  0  0  0  0  0  0  0999 V2000
    8.3083    9.9139   18.4676 C   0  0  0  0  0  0  0  0  0  0  0  0
    8.1760    7.4925   22.8673 C   0  0  0  0  0  0  0  0  0  0  0  0
    8.1599    6.7956   16.0581 C   0  0  0  0  0  0  0  0  0  0  0  0
   10.4068    6.5490   21.9634 C   0  0  0  0  0  0  0  0  0  0  0  0
    8.2277    8.8272   19.4712 O   0  0  0  0  0  0  0  0  0  0  0  0
    8.5626    6.8284   25.0568 C   0  0  0  0  0  0  0  0  0  0  0  0
   10.3615    6.4022   14.2096 C   0  0  0  0  0  0  0  0  0  0  0  0
    7.2222    7.7225   25.0473 C   0  0  0  0  0  0  0  0  0  0  0  0
    7.8609   10.1308   16.0792 O   0  0  0  0  0  0  0  0  0  0  0  0
   12.1565    6.2329   20.3200 C   0  0  0  0  0  0  0  0  0  0  0  0
    6.7224    8.9191   20.7265 O   0  0  0  0  0  0  0  0  0  0  0  0
   13.8404    5.9884   18.8055 C   0  0  0  0  0  0  0  0  0  0  0  0
    8.3996    9.5221   17.1620 P   0  0  0  0  0  0  0  0  0  0  0  0
    9.4579    8.8219   16.5489 N   0  0  0  0  0  0  0  0  0  0  0  0
    6.0354    8.6501   23.4511 O   0  0  0  0  0  0  0  0  0  0  0  0
    7.7229    8.6618   20.5790 C   0  0  0  0  0  0  0  0  0  0  0  0
   13.5086    5.5648   19.9643 O   0  0  0  0  0  0  0  0  0  0  0  0
    8.3542    5.6661   15.3271 C   0  0  0  0  0  0  0  0  0  0  0  0
    8.5130    7.8883   21.5239 C   0  0  0  0  0  0  0  0  0  0  0  0
   11.5051    6.9310   19.3087 C   0  0  0  0  0  0  0  0  0  0  0  0
   10.2457    7.5199   19.6892 C   0  0  0  0  0  0  0  0  0  0  0  0
    9.8206    7.3162   21.0019 C   0  0  0  0  0  0  0  0  0  0  0  0
    9.3017    5.4632   14.6706 C   0  0  0  0  0  0  0  0  0  0  0  0
    9.4113    7.8033   15.8514 C   0  0  0  0  0  0  0  0  0  0  0  0
   10.3445    7.5816   15.0424 N   0  0  0  0  0  0  0  0  0  0  0  0
   10.0370    6.4192   23.1858 N   0  0  0  0  0  0  0  0  0  0  0  0
    7.0867    7.9007   23.7360 C   0  0  0  0  0  0  0  0  0  0  0  0
    9.0696    7.0422   23.6105 C   0  0  0  0  0  0  0  0  0  0  0  0
   11.7157    6.1441   21.5445 C   0  0  0  0  0  0  0  0  0  0  0  0
    9.5058    4.1442   13.7495 He  0  0  0  0  0  0  0  0  0  0  0  0
  1  5  1  0
  1 13  1  0
  2 16  1  0
  2 19  2  0
  2 23  1  0
  2 27  1  0
  2 28  1  0
  3 24  4  0
  4 16  2  0
  4 22  4  0
  4 26  1  0
  4 29  4  0
  5 10  3  0
  6  8  2  0
  7 11  1  0
  7 23  4  0
  7 25  4  0
  8 17  4  0
  8 24  3  0
  8 27  1  0
  9 13  2  0
 10 17  1  0
 10 18  4  0
 10 20  4  0
 10 29  4  0
 12 17  1  0
 12 29  1  0
 13 14  1  0
 14 24  1  0
 15 19  3  0
 15 25  4  0
 15 27  2  0
 16 19  1  0
 17 26  4  0
 18 23  4  0
 19 20  4  0
 19 22  1  0
 19 29  4  0
 20 21  4  0
 21 22  4  0
 21 24  2  0
 22 28  3  0
 24 25  4  0
 26 28  2  0
M  END
$$$$

 Created by Python create_sdf_string function

 30 43  0  0  0  0  0  0  0  0999 V2000
    8.3221    9.8243   18.3208 C   0  0  0  0  0  0  0  0  0  0  0  0
   10.5931    6.7475   21.9089 C   0  0  0  0  0  0  0  0  0  0  0  0
    8.2387    8.9734   19.4484 O   0  0  0  0  0  0  0  0  0  0  0  0
    8.5136    6.9104   25.0456 C   0  0  0  0  0  0  0  0  0  0  0  0
   10.3772    6.3987   14.4629 C   0  0  0  0  0  0  0  0  0  0  0  0
    7.2536    7.5555   25.1618 C   0  0  0  0  0  0  0  0  0  0  0  0
    7.7124   10.1646   16.2171 O   0  0  0  0  0  0  0  0  0  0  0  0
   12.2550    6.2244   20.2969 C   0  0  0  0  0  0  0  0  0  0  0  0
    6.6346    8.8536   20.8017 O   0  0  0  0  0  0  0  0  0  0  0  0
   14.1469    5.9804   18.8225 C   0  0  0  0  0  0  0  0  0  0  0  0
    8.4919    9.6207   17.0539 C   0  0  0  0  0  0  0  0  0  0  0  0
    9.5868    4.1855   13.7061 C   0  0  0  0  0  0  0  0  0  0  0  0
    9.4548    8.7387   16.6782 N   0  0  0  0  0  0  0  0  0  0  0  0
    5.9571    8.7375   23.4305 O   0  0  0  0  0  0  0  0  0  0  0  0
    7.6386    8.6056   20.5140 C   0  0  0  0  0  0  0  0  0  0  0  0
   13.4854    5.6042   20.0933 O   0  0  0  0  0  0  0  0  0  0  0  0
    8.2987    5.5797   15.4624 C   0  0  0  0  0  0  0  0  0  0  0  0
    8.4722    7.9243   21.5551 C   0  0  0  0  0  0  0  0  0  0  0  0
   11.5876    6.9168   19.2628 C   0  0  0  0  0  0  0  0  0  0  0  0
   10.2771    7.4930   19.8579 C   0  0  0  0  0  0  0  0  0  0  0  0
    9.8170    7.3449   21.0206 C   0  0  0  0  0  0  0  0  0  0  0  0
    9.2025    5.4044   14.4551 C   0  0  0  0  0  0  0  0  0  0  0  0
    9.3773    7.7502   15.8851 C   0  0  0  0  0  0  0  0  0  0  0  0
   10.2229    7.5423   14.9093 N   0  0  0  0  0  0  0  0  0  0  0  0
   10.1925    6.4369   23.1645 N   0  0  0  0  0  0  0  0  0  0  0  0
    6.9988    8.0474   23.6296 F   0  0  0  0  0  0  0  0  0  0  0  0
    9.0318    6.9179   23.5452 C   0  0  0  0  0  0  0  0  0  0  0  0
   11.6264    6.0121   21.5898 C   0  0  0  0  0  0  0  0  0  0  0  0
    8.2267    7.4463   22.7349 He  0  0  0  0  0  0  0  0  0  0  0  0
    8.1852    6.9064   16.0445 He  0  0  0  0  0  0  0  0  0  0  0  0
  1  3  1  0
  1 11  1  0
  2 21  4  0
  2 25  1  0
  2 28  4  0
  3  7  2  0
  3 15  1  0
  4  6  2  0
  4 12  1  0
  4 25  4  0
  4 27  1  0
  5 22  4  0
  5 24  4  0
  6 26  1  0
  7 11  2  0
  7 24  4  0
  8 16  1  0
  8 19  4  0
  8 28  4  0
  9 10  1  0
  9 15  2  0
 10 16  1  0
 10 17  4  0
 11 13  1  0
 12 14  2  0
 12 16  2  0
 12 22  1  0
 13 23  1  0
 14 26  2  0
 14 27  1  0
 15 18  1  0
 15 24  2  0
 16 20  3  0
 16 22  3  0
 17 22  4  0
 17 28  4  0
 18 21  1  0
 19 20  4  0
 19 22  3  0
 20 21  4  0
 20 27  2  0
 23 24  4  0
 25 27  2  0
M  END
$$$$

 Created by Python create_sdf_string function

 30 42  0  0  0  0  0  0  0  0999 V2000
    8.4343    9.7759   18.4747 C   0  0  0  0  0  0  0  0  0  0  0  0
    8.1395    7.5832   22.9460 C   0  0  0  0  0  0  0  0  0  0  0  0
   10.5389    6.6831   22.1270 C   0  0  0  0  0  0  0  0  0  0  0  0
    8.2795    9.0464   19.4144 O   0  0  0  0  0  0  0  0  0  0  0  0
    8.5078    6.7944   25.1256 C   0  0  0  0  0  0  0  0  0  0  0  0
   10.2607    6.3952   14.5708 C   0  0  0  0  0  0  0  0  0  0  0  0
    7.3577    7.5147   25.0842 C   0  0  0  0  0  0  0  0  0  0  0  0
    7.8626   10.1674   16.2758 O   0  0  0  0  0  0  0  0  0  0  0  0
   12.2547    6.1000   20.2688 C   0  0  0  0  0  0  0  0  0  0  0  0
    6.8316    8.8470   20.8037 O   0  0  0  0  0  0  0  0  0  0  0  0
   14.1059    5.9030   18.7980 C   0  0  0  0  0  0  0  0  0  0  0  0
    8.5864    9.5663   17.0594 C   0  0  0  0  0  0  0  0  0  0  0  0
    9.4229    4.1519   13.7086 C   0  0  0  0  0  0  0  0  0  0  0  0
    9.4752    8.8417   16.7243 N   0  0  0  0  0  0  0  0  0  0  0  0
    6.0115    8.5603   23.5180 O   0  0  0  0  0  0  0  0  0  0  0  0
    7.6608    8.7432   20.5367 C   0  0  0  0  0  0  0  0  0  0  0  0
   13.4078    5.6663   20.0025 O   0  0  0  0  0  0  0  0  0  0  0  0
    8.3413    5.5478   15.3845 C   0  0  0  0  0  0  0  0  0  0  0  0
    8.4681    7.8927   21.5518 C   0  0  0  0  0  0  0  0  0  0  0  0
   11.6003    6.9584   19.3928 C   0  0  0  0  0  0  0  0  0  0  0  0
   10.2921    7.3527   19.7862 C   0  0  0  0  0  0  0  0  0  0  0  0
    9.9851    7.4133   21.0477 C   0  0  0  0  0  0  0  0  0  0  0  0
    9.4351    5.4880   14.6205 C   0  0  0  0  0  0  0  0  0  0  0  0
    9.2909    7.6711   15.8308 C   0  0  0  0  0  0  0  0  0  0  0  0
   10.2714    7.4567   14.9699 N   0  0  0  0  0  0  0  0  0  0  0  0
    9.9696    6.4738   23.1091 N   0  0  0  0  0  0  0  0  0  0  0  0
    7.1151    8.0420   23.5077 C   0  0  0  0  0  0  0  0  0  0  0  0
    9.2222    6.8043   23.6262 C   0  0  0  0  0  0  0  0  0  0  0  0
   11.6476    6.1109   21.4751 C   0  0  0  0  0  0  0  0  0  0  0  0
    8.2922    6.8626   16.0985 He  0  0  0  0  0  0  0  0  0  0  0  0
  1  4  1  0
  1 12  1  0
  1 16  3  0
  2 19  2  0
  2 27  1  0
  2 28  1  0
  3  8  4  0
  3 22  4  0
  3 26  1  0
  3 29  4  0
  4 16  1  0
  5  7  2  0
  5 15  1  0
  5 18  4  0
  5 19  1  0
  5 28  1  0
  6 23  4  0
  6 25  4  0
  7 16  1  0
  7 27  1  0
  8 12  2  0
  9 17  1  0
  9 20  3  0
  9 29  4  0
 10 16  2  0
 10 20  4  0
 11 17  1  0
 12 13  2  0
 12 14  1  0
 13 18  2  0
 13 23  3  0
 14 23  1  0
 14 24  1  0
 15 27  2  0
 16 19  1  0
 18 23  4  0
 18 25  1  0
 19 22  1  0
 20 21  2  0
 21 22  1  0
 24 25  4  0
 26 28  2  0
M  END
$$$$

 Created by Python create_sdf_string function

 30 43  0  0  0  0  0  0  0  0999 V2000
    8.3964    9.9782   18.4942 C   0  0  0  0  0  0  0  0  0  0  0  0
    8.2572    7.5860   22.7967 C   0  0  0  0  0  0  0  0  0  0  0  0
    8.2641    6.9516   16.1787 C   0  0  0  0  0  0  0  0  0  0  0  0
   10.6439    6.5077   21.9211 C   0  0  0  0  0  0  0  0  0  0  0  0
    8.3450    9.0366   19.4610 O   0  0  0  0  0  0  0  0  0  0  0  0
    8.5957    6.8218   25.0337 C   0  0  0  0  0  0  0  0  0  0  0  0
   10.2225    6.3196   14.4026 C   0  0  0  0  0  0  0  0  0  0  0  0
    7.3161    7.4466   25.0583 C   0  0  0  0  0  0  0  0  0  0  0  0
    7.8643   10.1912   16.1859 O   0  0  0  0  0  0  0  0  0  0  0  0
   12.3085    6.1652   20.2168 C   0  0  0  0  0  0  0  0  0  0  0  0
    6.6799    8.9892   20.7816 O   0  0  0  0  0  0  0  0  0  0  0  0
   14.0564    5.8814   18.8330 N   0  0  0  0  0  0  0  0  0  0  0  0
    8.4921    9.6791   17.0978 C   0  0  0  0  0  0  0  0  0  0  0  0
    9.4353    4.2693   13.8191 C   0  0  0  0  0  0  0  0  0  0  0  0
    9.4241    8.6276   16.6473 N   0  0  0  0  0  0  0  0  0  0  0  0
    6.0489    8.6035   23.5690 O   0  0  0  0  0  0  0  0  0  0  0  0
    7.7464    8.6861   20.4272 C   0  0  0  0  0  0  0  0  0  0  0  0
   13.4109    5.7021   19.9413 O   0  0  0  0  0  0  0  0  0  0  0  0
    8.3305    5.6414   15.4565 C   0  0  0  0  0  0  0  0  0  0  0  0
    8.5643    7.8321   21.6183 C   0  0  0  0  0  0  0  0  0  0  0  0
   11.6108    6.8592   19.4054 C   0  0  0  0  0  0  0  0  0  0  0  0
   10.3033    7.5656   19.6131 C   0  0  0  0  0  0  0  0  0  0  0  0
    9.7356    7.4104   21.1184 C   0  0  0  0  0  0  0  0  0  0  0  0
    9.3239    5.4376   14.6163 C   0  0  0  0  0  0  0  0  0  0  0  0
    9.3150    7.7332   15.9347 C   0  0  0  0  0  0  0  0  0  0  0  0
   10.2275    7.5272   15.0552 N   0  0  0  0  0  0  0  0  0  0  0  0
   10.1027    6.4873   23.2338 N   0  0  0  0  0  0  0  0  0  0  0  0
    7.0637    7.9584   23.6384 C   0  0  0  0  0  0  0  0  0  0  0  0
   11.7299    6.1604   21.5039 C   0  0  0  0  0  0  0  0  0  0  0  0
    9.2594    6.8941   23.7050 He  0  0  0  0  0  0  0  0  0  0  0  0
  1  5  1  0
  1 13  1  0
  2 20  2  0
  2 28  1  0
  3 19  4  0
  3 25  4  0
  4  8  2  0
  4 23  4  0
  4 27  1  0
  4 29  4  0
  5 10  2  0
  5 17  1  0
  5 19  3  0
  6 26  1  0
  7 24  4  0
  7 26  4  0
  8 28  1  0
  9 13  2  0
  9 19  4  0
 10 18  1  0
 10 21  4  0
 10 29  4  0
 11 17  2  0
 11 18  3  0
 12 13  2  0
 12 18  1  0
 12 19  4  0
 12 26  2  0
 12 29  1  0
 13 15  1  0
 13 19  3  0
 14 17  3  0
 14 24  1  0
 15 25  1  0
 16 28  2  0
 17 20  1  0
 19 24  4  0
 20 23  1  0
 20 24  2  0
 21 22  4  0
 22 23  4  0
 25 26  4  0
 26 28  3  0
M  END
$$$$

 Created by Python create_sdf_string function

 30 41  0  0  0  0  0  0  0  0999 V2000
    8.3388    9.8526   18.5641 C   0  0  0  0  0  0  0  0  0  0  0  0
    8.0686    7.6778   22.7777 C   0  0  0  0  0  0  0  0  0  0  0  0
    8.2939    6.7854   16.2285 C   0  0  0  0  0  0  0  0  0  0  0  0
   10.5953    6.5645   21.9559 C   0  0  0  0  0  0  0  0  0  0  0  0
    8.3570    8.9339   19.5086 O   0  0  0  0  0  0  0  0  0  0  0  0
    8.5426    6.6684   24.9992 C   0  0  0  0  0  0  0  0  0  0  0  0
   10.3373    6.4532   14.3481 C   0  0  0  0  0  0  0  0  0  0  0  0
    7.3813    7.4090   25.0598 C   0  0  0  0  0  0  0  0  0  0  0  0
    7.8907   10.1796   16.1475 O   0  0  0  0  0  0  0  0  0  0  0  0
   12.1983    6.2316   20.2287 C   0  0  0  0  0  0  0  0  0  0  0  0
    6.8241    9.0519   20.7753 O   0  0  0  0  0  0  0  0  0  0  0  0
   14.1588    5.9372   18.8399 C   0  0  0  0  0  0  0  0  0  0  0  0
    8.4283    9.4500   17.1554 C   0  0  0  0  0  0  0  0  0  0  0  0
    9.3727    4.2953   13.8638 C   0  0  0  0  0  0  0  0  0  0  0  0
    9.5198    8.7310   16.7248 N   0  0  0  0  0  0  0  0  0  0  0  0
    6.0834    8.6709   23.4686 O   0  0  0  0  0  0  0  0  0  0  0  0
    7.9082    8.7414   20.6047 C   0  0  0  0  0  0  0  0  0  0  0  0
   13.3751    5.6059   19.9147 O   0  0  0  0  0  0  0  0  0  0  0  0
    8.1597    5.6135   15.6275 S   0  0  0  0  0  0  0  0  0  0  0  0
    8.5774    7.9112   21.5267 C   0  0  0  0  0  0  0  0  0  0  0  0
   11.5525    6.9305   19.3616 C   0  0  0  0  0  0  0  0  0  0  0  0
   10.3655    7.3730   19.6515 C   0  0  0  0  0  0  0  0  0  0  0  0
    9.9401    7.3316   20.8938 C   0  0  0  0  0  0  0  0  0  0  0  0
    9.3739    5.4442   14.5229 C   0  0  0  0  0  0  0  0  0  0  0  0
    9.2267    7.6212   16.0568 C   0  0  0  0  0  0  0  0  0  0  0  0
   10.2144    7.5927   15.0985 N   0  0  0  0  0  0  0  0  0  0  0  0
   10.2221    6.5545   23.2037 N   0  0  0  0  0  0  0  0  0  0  0  0
    7.0120    8.0107   23.7449 C   0  0  0  0  0  0  0  0  0  0  0  0
    9.1718    6.8556   23.6347 C   0  0  0  0  0  0  0  0  0  0  0  0
   11.7814    6.0297   21.5656 C   0  0  0  0  0  0  0  0  0  0  0  0
  1  5  1  0
  1 13  1  0
  2 20  2  0
  2 28  1  0
  2 29  1  0
  3 19  4  0
  3 25  4  0
  4  7  2  0
  4 10  3  0
  4 23  4  0
  4 27  1  0
  4 30  4  0
  5 13  4  0
  6  8  1  0
  6 11  2  0
  6 16  3  0
  6 29  1  0
  7 24  4  0
  7 26  4  0
  9 13  2  0
 10 18  1  0
 10 21  4  0
 10 30  4  0
 11 12  3  0
 11 17  2  0
 11 24  4  0
 12 18  1  0
 13 15  1  0
 14 24  1  0
 15 25  1  0
 16 28  2  0
 17 20  1  0
 19 24  4  0
 20 23  1  0
 20 24  2  0
 20 25  3  0
 21 22  4  0
 22 23  4  0
 25 26  4  0
 25 30  3  0
 27 29  2  0
M  END
$$$$

 Created by Python create_sdf_string function

 30 31  0  0  0  0  0  0  0  0999 V2000
    8.3501    9.8355   18.5387 C   0  0  0  0  0  0  0  0  0  0  0  0
    8.1442    7.5973   22.8535 C   0  0  0  0  0  0  0  0  0  0  0  0
    8.3750    6.7740   16.2594 C   0  0  0  0  0  0  0  0  0  0  0  0
   10.6030    6.5454   21.8435 C   0  0  0  0  0  0  0  0  0  0  0  0
    8.4443    8.8895   19.3408 O   0  0  0  0  0  0  0  0  0  0  0  0
    8.5936    6.6425   25.0069 C   0  0  0  0  0  0  0  0  0  0  0  0
   10.2247    6.5232   14.3416 C   0  0  0  0  0  0  0  0  0  0  0  0
    7.2759    7.5735   25.0736 C   0  0  0  0  0  0  0  0  0  0  0  0
    7.9853   10.1542   16.1816 O   0  0  0  0  0  0  0  0  0  0  0  0
   12.2624    6.2340   20.3299 C   0  0  0  0  0  0  0  0  0  0  0  0
    6.8206    8.9975   20.8539 O   0  0  0  0  0  0  0  0  0  0  0  0
   14.2224    5.9509   18.8528 C   0  0  0  0  0  0  0  0  0  0  0  0
    8.4484    9.6223   17.0599 C   0  0  0  0  0  0  0  0  0  0  0  0
    9.4060    4.3332   13.8014 C   0  0  0  0  0  0  0  0  0  0  0  0
    9.3638    8.6818   16.8360 N   0  0  0  0  0  0  0  0  0  0  0  0
    6.0680    8.6393   23.4619 O   0  0  0  0  0  0  0  0  0  0  0  0
    7.8109    8.7179   20.6030 C   0  0  0  0  0  0  0  0  0  0  0  0
   13.5044    5.6108   19.8678 O   0  0  0  0  0  0  0  0  0  0  0  0
    8.3596    5.5641   15.5235 C   0  0  0  0  0  0  0  0  0  0  0  0
    8.6346    8.0259   21.5396 C   0  0  0  0  0  0  0  0  0  0  0  0
   11.6460    6.8263   19.3296 C   0  0  0  0  0  0  0  0  0  0  0  0
    9.9222    7.4144   20.9026 C   0  0  0  0  0  0  0  0  0  0  0  0
    9.3147    5.5050   14.5683 C   0  0  0  0  0  0  0  0  0  0  0  0
    9.2754    7.6037   16.0518 C   0  0  0  0  0  0  0  0  0  0  0  0
   10.2130    6.4703   23.1090 N   0  0  0  0  0  0  0  0  0  0  0  0
    7.0464    7.9949   23.6543 C   0  0  0  0  0  0  0  0  0  0  0  0
    9.0804    6.8506   23.6510 C   0  0  0  0  0  0  0  0  0  0  0  0
   11.7924    6.1303   21.4964 C   0  0  0  0  0  0  0  0  0  0  0  0
   10.3477    7.4490   19.5839 He  0  0  0  0  0  0  0  0  0  0  0  0
   10.3129    7.4645   15.0664 He  0  0  0  0  0  0  0  0  0  0  0  0
  1  5  1  0
  1 13  1  0
  2 20  2  0
  2 24  1  0
  2 26  1  0
  2 27  1  0
  3 19  4  0
  3 20  4  0
  3 24  4  0
  4 22  4  0
  4 25  1  0
  4 28  4  0
  5 17  1  0
  6  8  1  0
  6 27  1  0
  8  9  3  0
  8 26  1  0
  9 13  2  0
 10 18  1  0
 10 21  4  0
 11 17  2  0
 12 18  1  0
 13 15  1  0
 14 23  1  0
 15 24  1  0
 16 26  2  0
 17 20  1  0
 18 22  1  0
 19 23  4  0
 20 22  1  0
 25 27  2  0
M  END
$$$$

 Created by Python create_sdf_string function

 30 39  0  0  0  0  0  0  0  0999 V2000
    8.2811    9.8670   18.6122 C   0  0  0  0  0  0  0  0  0  0  0  0
    8.1902    7.7976   22.7924 C   0  0  0  0  0  0  0  0  0  0  0  0
    8.3172    6.6915   16.2191 C   0  0  0  0  0  0  0  0  0  0  0  0
   10.6024    6.5833   21.7867 C   0  0  0  0  0  0  0  0  0  0  0  0
    8.3440    8.8492   19.3971 O   0  0  0  0  0  0  0  0  0  0  0  0
    8.4624    6.7267   24.9737 C   0  0  0  0  0  0  0  0  0  0  0  0
   10.2758    6.4400   14.3246 C   0  0  0  0  0  0  0  0  0  0  0  0
    7.2784    7.5865   25.0847 C   0  0  0  0  0  0  0  0  0  0  0  0
    7.9021   10.1973   16.2215 O   0  0  0  0  0  0  0  0  0  0  0  0
   12.2888    6.2991   20.3298 C   0  0  0  0  0  0  0  0  0  0  0  0
    6.7201    9.0341   20.8736 O   0  0  0  0  0  0  0  0  0  0  0  0
   14.2435    6.0040   18.8622 C   0  0  0  0  0  0  0  0  0  0  0  0
    8.4580    9.6028   17.0709 C   0  0  0  0  0  0  0  0  0  0  0  0
    9.4021    4.2724   13.8301 C   0  0  0  0  0  0  0  0  0  0  0  0
    9.3464    8.6520   16.8920 N   0  0  0  0  0  0  0  0  0  0  0  0
    6.1637    8.6307   23.3854 O   0  0  0  0  0  0  0  0  0  0  0  0
    7.8966    8.7322   20.6982 C   0  0  0  0  0  0  0  0  0  0  0  0
   13.5349    5.6088   19.8652 O   0  0  0  0  0  0  0  0  0  0  0  0
    8.4063    5.5673   15.4584 C   0  0  0  0  0  0  0  0  0  0  0  0
    8.6826    7.9230   21.4922 C   0  0  0  0  0  0  0  0  0  0  0  0
   11.5445    6.8648   19.2006 C   0  0  0  0  0  0  0  0  0  0  0  0
   10.2974    7.4259   19.5895 C   0  0  0  0  0  0  0  0  0  0  0  0
    9.9804    7.3770   21.0351 C   0  0  0  0  0  0  0  0  0  0  0  0
    9.2932    7.5910   16.0892 C   0  0  0  0  0  0  0  0  0  0  0  0
   10.2679    7.6009   15.0397 C   0  0  0  0  0  0  0  0  0  0  0  0
   10.1075    6.3586   23.1606 N   0  0  0  0  0  0  0  0  0  0  0  0
    7.0079    7.9868   23.5375 C   0  0  0  0  0  0  0  0  0  0  0  0
    9.2381    6.8898   23.5856 C   0  0  0  0  0  0  0  0  0  0  0  0
   11.9204    6.0824   21.4485 C   0  0  0  0  0  0  0  0  0  0  0  0
    9.2669    5.4431   14.5333 He  0  0  0  0  0  0  0  0  0  0  0  0
  1  5  1  0
  1 13  1  0
  1 18  4  0
  1 28  4  0
  2 10  4  0
  2 20  2  0
  2 27  1  0
  2 28  1  0
  3 13  2  0
  3 19  4  0
  3 24  4  0
  4 23  4  0
  4 26  1  0
  4 29  4  0
  5 17  1  0
  6  8  1  0
  6 28  1  0
  7 25  4  0
  8 27  1  0
  9 13  2  0
 10 18  1  0
 10 21  4  0
 10 29  4  0
 11 17  2  0
 12 18  1  0
 12 26  2  0
 13 15  1  0
 13 22  3  0
 15 18  2  0
 15 24  1  0
 15 27  1  0
 16 27  2  0
 17 20  1  0
 20 23  1  0
 21 22  4  0
 22 23  4  0
 24 25  4  0
 26 28  2  0
 26 29  1  0
M  END
$$$$

 Created by Python create_sdf_string function

 30 35  0  0  0  0  0  0  0  0999 V2000
    8.2107    9.8853   18.6094 C   0  0  0  0  0  0  0  0  0  0  0  0
    8.1604    7.7723   22.7924 C   0  0  0  0  0  0  0  0  0  0  0  0
    8.3721    6.7433   16.2407 C   0  0  0  0  0  0  0  0  0  0  0  0
   10.7140    6.5522   21.8763 C   0  0  0  0  0  0  0  0  0  0  0  0
    8.3011    8.8279   19.4656 O   0  0  0  0  0  0  0  0  0  0  0  0
    8.4514    6.6946   24.9423 C   0  0  0  0  0  0  0  0  0  0  0  0
   10.2302    6.4112   14.3073 C   0  0  0  0  0  0  0  0  0  0  0  0
    7.3570    7.6141   25.0908 C   0  0  0  0  0  0  0  0  0  0  0  0
    7.9271   10.0642   16.1858 O   0  0  0  0  0  0  0  0  0  0  0  0
    6.8570    9.0446   20.8800 O   0  0  0  0  0  0  0  0  0  0  0  0
   14.2307    6.0031   18.9068 C   0  0  0  0  0  0  0  0  0  0  0  0
    8.5493    9.5876   17.0913 C   0  0  0  0  0  0  0  0  0  0  0  0
    9.4576    4.3127   13.7800 C   0  0  0  0  0  0  0  0  0  0  0  0
    9.3916    8.7081   16.8621 N   0  0  0  0  0  0  0  0  0  0  0  0
    6.1195    8.6514   23.3144 O   0  0  0  0  0  0  0  0  0  0  0  0
    7.8606    8.7447   20.5946 C   0  0  0  0  0  0  0  0  0  0  0  0
   13.6230    5.6533   19.8840 O   0  0  0  0  0  0  0  0  0  0  0  0
    8.3047    5.5704   15.4139 C   0  0  0  0  0  0  0  0  0  0  0  0
    8.7075    7.9975   21.4476 C   0  0  0  0  0  0  0  0  0  0  0  0
   11.5971    6.8162   19.2533 C   0  0  0  0  0  0  0  0  0  0  0  0
   10.4273    7.4220   19.6301 C   0  0  0  0  0  0  0  0  0  0  0  0
    9.9684    7.2796   20.9173 C   0  0  0  0  0  0  0  0  0  0  0  0
    9.4166    5.5181   14.4882 C   0  0  0  0  0  0  0  0  0  0  0  0
    9.2523    7.6286   16.0158 C   0  0  0  0  0  0  0  0  0  0  0  0
   10.3309    7.5504   15.1363 C   0  0  0  0  0  0  0  0  0  0  0  0
   10.1628    6.3045   23.1085 N   0  0  0  0  0  0  0  0  0  0  0  0
    7.0352    7.9990   23.6030 C   0  0  0  0  0  0  0  0  0  0  0  0
    9.1491    6.9508   23.5772 C   0  0  0  0  0  0  0  0  0  0  0  0
   11.8616    6.1067   21.4660 C   0  0  0  0  0  0  0  0  0  0  0  0
   12.3165    6.2245   20.2155 He  0  0  0  0  0  0  0  0  0  0  0  0
  1  5  1  0
  1 12  1  0
  1 25  4  0
  2 19  2  0
  2 22  2  0
  2 27  1  0
  2 28  1  0
  3 18  4  0
  3 24  4  0
  4 22  4  0
  4 26  1  0
  4 29  4  0
  5 16  1  0
  6  8  1  0
  6 28  1  0
  7 21  3  0
  7 23  4  0
  7 25  4  0
  8 27  1  0
  9 12  2  0
 10 16  2  0
 11 17  1  0
 12 14  1  0
 12 24  4  0
 13 23  1  0
 14 24  1  0
 15 27  2  0
 16 19  1  0
 18 23  4  0
 19 22  1  0
 20 21  4  0
 21 22  4  0
 24 25  4  0
 25 26  3  0
 26 28  2  0
M  END
$$$$

 Created by Python create_sdf_string function

 30 33  0  0  0  0  0  0  0  0999 V2000
    8.2639    9.9815   18.5609 C   0  0  0  0  0  0  0  0  0  0  0  0
    8.2100    7.6887   22.8187 C   0  0  0  0  0  0  0  0  0  0  0  0
    8.3277    6.7538   16.2025 C   0  0  0  0  0  0  0  0  0  0  0  0
   10.7070    6.5355   21.8287 C   0  0  0  0  0  0  0  0  0  0  0  0
    8.2510    8.8257   19.3755 O   0  0  0  0  0  0  0  0  0  0  0  0
    8.5688    6.7055   24.9513 C   0  0  0  0  0  0  0  0  0  0  0  0
   10.3211    6.3528   14.2808 C   0  0  0  0  0  0  0  0  0  0  0  0
    7.3514    7.6718   25.0692 C   0  0  0  0  0  0  0  0  0  0  0  0
    7.9847   10.1234   16.2370 O   0  0  0  0  0  0  0  0  0  0  0  0
   12.4114    6.2539   20.2203 C   0  0  0  0  0  0  0  0  0  0  0  0
    6.7961    9.1398   20.9012 O   0  0  0  0  0  0  0  0  0  0  0  0
   14.2877    6.1082   18.8514 C   0  0  0  0  0  0  0  0  0  0  0  0
    8.5582    9.5665   17.1305 C   0  0  0  0  0  0  0  0  0  0  0  0
    9.4355    4.2453   13.7550 C   0  0  0  0  0  0  0  0  0  0  0  0
    9.3757    8.6589   16.8583 N   0  0  0  0  0  0  0  0  0  0  0  0
    6.1669    8.6362   23.3295 O   0  0  0  0  0  0  0  0  0  0  0  0
    7.8855    8.7056   20.6021 C   0  0  0  0  0  0  0  0  0  0  0  0
   13.5790    5.7086   19.9129 O   0  0  0  0  0  0  0  0  0  0  0  0
    8.3290    5.5922   15.3971 C   0  0  0  0  0  0  0  0  0  0  0  0
    8.7264    7.9688   21.4836 C   0  0  0  0  0  0  0  0  0  0  0  0
   11.6855    6.8247   19.3345 C   0  0  0  0  0  0  0  0  0  0  0  0
   10.3838    7.3950   19.5626 C   0  0  0  0  0  0  0  0  0  0  0  0
    9.3144    5.3744   14.4787 C   0  0  0  0  0  0  0  0  0  0  0  0
    9.3174    7.7118   16.0158 C   0  0  0  0  0  0  0  0  0  0  0  0
   10.2866    7.5642   15.1055 C   0  0  0  0  0  0  0  0  0  0  0  0
   10.2003    6.3854   23.0943 N   0  0  0  0  0  0  0  0  0  0  0  0
    7.0292    8.0784   23.6315 C   0  0  0  0  0  0  0  0  0  0  0  0
    9.0895    6.9535   23.6391 C   0  0  0  0  0  0  0  0  0  0  0  0
   11.8991    6.0132   21.4712 C   0  0  0  0  0  0  0  0  0  0  0  0
    9.9747    7.2840   20.9726 He  0  0  0  0  0  0  0  0  0  0  0  0
  1  5  1  0
  1 13  1  0
  2 20  2  0
  2 28  1  0
  3 19  4  0
  3 24  4  0
  4 26  1  0
  4 29  4  0
  5  9  3  0
  5 17  1  0
  6  8  1  0
  6 17  2  0
  6 28  1  0
  7 23  4  0
  7 25  4  0
  8 27  1  0
  9 13  2  0
  9 15  4  0
 10 18  1  0
 10 21  4  0
 10 29  4  0
 11 17  2  0
 12 18  1  0
 13 15  1  0
 13 24  1  0
 14 23  1  0
 15 24  1  0
 16 27  2  0
 17 20  1  0
 19 23  4  0
 21 22  4  0
 24 25  4  0
 26 28  2  0
M  END
$$$$

 Created by Python create_sdf_string function

 30 38  0  0  0  0  0  0  0  0999 V2000
    8.3097    9.9566   18.5374 C   0  0  0  0  0  0  0  0  0  0  0  0
    8.2794    7.6754   22.7256 C   0  0  0  0  0  0  0  0  0  0  0  0
    8.3358    6.7404   16.2198 C   0  0  0  0  0  0  0  0  0  0  0  0
   10.6733    6.5422   21.8867 C   0  0  0  0  0  0  0  0  0  0  0  0
    8.3105    8.8789   19.3276 O   0  0  0  0  0  0  0  0  0  0  0  0
    8.5326    6.7517   24.9716 C   0  0  0  0  0  0  0  0  0  0  0  0
   10.2630    6.3364   14.3006 C   0  0  0  0  0  0  0  0  0  0  0  0
    7.3889    7.6097   25.0173 C   0  0  0  0  0  0  0  0  0  0  0  0
    8.0723   10.0867   16.1803 O   0  0  0  0  0  0  0  0  0  0  0  0
   12.3476    6.2069   20.2003 C   0  0  0  0  0  0  0  0  0  0  0  0
    6.7366    9.1595   20.9261 O   0  0  0  0  0  0  0  0  0  0  0  0
   14.3330    6.0855   18.8223 S   0  0  0  0  0  0  0  0  0  0  0  0
    8.5211    9.6328   17.1504 C   0  0  0  0  0  0  0  0  0  0  0  0
    9.3805    4.2493   13.7287 C   0  0  0  0  0  0  0  0  0  0  0  0
    9.4442    8.6555   16.8703 N   0  0  0  0  0  0  0  0  0  0  0  0
    6.1420    8.6598   23.3292 O   0  0  0  0  0  0  0  0  0  0  0  0
    7.8767    8.6749   20.6056 C   0  0  0  0  0  0  0  0  0  0  0  0
   13.6890    5.6947   19.8989 O   0  0  0  0  0  0  0  0  0  0  0  0
    8.3393    5.6171   15.3479 C   0  0  0  0  0  0  0  0  0  0  0  0
    8.6865    7.8954   21.4846 C   0  0  0  0  0  0  0  0  0  0  0  0
   11.6837    6.8833   19.2667 C   0  0  0  0  0  0  0  0  0  0  0  0
   10.4317    7.3454   19.6631 F   0  0  0  0  0  0  0  0  0  0  0  0
    9.9515    7.3337   20.9039 C   0  0  0  0  0  0  0  0  0  0  0  0
    9.3370    5.4150   14.4271 C   0  0  0  0  0  0  0  0  0  0  0  0
    9.3496    7.6326   16.0274 C   0  0  0  0  0  0  0  0  0  0  0  0
   10.3030    7.4578   15.1124 C   0  0  0  0  0  0  0  0  0  0  0  0
   10.2208    6.4335   23.0821 N   0  0  0  0  0  0  0  0  0  0  0  0
    7.1391    8.0392   23.6491 C   0  0  0  0  0  0  0  0  0  0  0  0
    9.1478    6.9400   23.4944 C   0  0  0  0  0  0  0  0  0  0  0  0
   11.8880    6.0608   21.5257 C   0  0  0  0  0  0  0  0  0  0  0  0
  1  5  1  0
  1 13  1  0
  2 20  2  0
  2 29  1  0
  3 19  4  0
  3 25  4  0
  4 23  4  0
  4 27  1  0
  4 30  4  0
  5 17  1  0
  5 25  3  0
  6  8  1  0
  6 29  1  0
  6 30  4  0
  7 24  4  0
  7 26  4  0
  8 12  1  0
  8 28  1  0
  9 13  2  0
 10 18  1  0
 10 21  4  0
 10 30  4  0
 11 17  2  0
 12 18  1  0
 12 25  2  0
 13 15  1  0
 14 24  1  0
 15 25  1  0
 16 28  2  0
 17 20  1  0
 19 23  1  0
 19 24  4  0
 20 23  1  0
 21 22  2  0
 21 29  1  0
 22 23  4  0
 25 26  4  0
 27 29  2  0
M  END
$$$$

 Created by Python create_sdf_string function

 30 37  0  0  0  0  0  0  0  0999 V2000
    8.2493    9.9111   18.5447 C   0  0  0  0  0  0  0  0  0  0  0  0
    8.3234    7.6719   22.7378 C   0  0  0  0  0  0  0  0  0  0  0  0
    8.3671    6.7000   16.2909 C   0  0  0  0  0  0  0  0  0  0  0  0
   10.6949    6.5944   21.8607 C   0  0  0  0  0  0  0  0  0  0  0  0
    8.2863    8.8604   19.3544 O   0  0  0  0  0  0  0  0  0  0  0  0
    8.5757    6.7653   24.9035 C   0  0  0  0  0  0  0  0  0  0  0  0
   10.2876    6.2730   14.3014 C   0  0  0  0  0  0  0  0  0  0  0  0
    7.3612    7.6106   24.9691 C   0  0  0  0  0  0  0  0  0  0  0  0
    8.0063   10.0582   16.1886 O   0  0  0  0  0  0  0  0  0  0  0  0
   12.4726    6.2132   20.2694 C   0  0  0  0  0  0  0  0  0  0  0  0
    6.8045    9.1373   20.8976 O   0  0  0  0  0  0  0  0  0  0  0  0
   14.3056    6.0971   18.8272 C   0  0  0  0  0  0  0  0  0  0  0  0
    8.6202    9.5754   17.0744 C   0  0  0  0  0  0  0  0  0  0  0  0
    9.3984    4.2864   13.7022 C   0  0  0  0  0  0  0  0  0  0  0  0
    9.4871    8.6309   16.8755 N   0  0  0  0  0  0  0  0  0  0  0  0
    6.1677    8.6192   23.3187 O   0  0  0  0  0  0  0  0  0  0  0  0
    7.8651    8.6771   20.5652 C   0  0  0  0  0  0  0  0  0  0  0  0
   13.6837    5.6382   19.8834 O   0  0  0  0  0  0  0  0  0  0  0  0
    8.3294    5.5456   15.3696 C   0  0  0  0  0  0  0  0  0  0  0  0
    8.6600    7.9104   21.4918 C   0  0  0  0  0  0  0  0  0  0  0  0
   11.6454    6.8192   19.2932 C   0  0  0  0  0  0  0  0  0  0  0  0
   10.4303    7.3937   19.5889 C   0  0  0  0  0  0  0  0  0  0  0  0
    9.9022    7.2913   20.8927 C   0  0  0  0  0  0  0  0  0  0  0  0
    9.3365    5.4028   14.4262 C   0  0  0  0  0  0  0  0  0  0  0  0
    9.4102    7.6290   16.0271 C   0  0  0  0  0  0  0  0  0  0  0  0
   10.3092    7.4222   15.1425 C   0  0  0  0  0  0  0  0  0  0  0  0
   10.1887    6.4578   23.0976 N   0  0  0  0  0  0  0  0  0  0  0  0
    7.1369    8.0689   23.6244 C   0  0  0  0  0  0  0  0  0  0  0  0
    9.1217    6.8704   23.5485 C   0  0  0  0  0  0  0  0  0  0  0  0
   11.9499    6.0183   21.4693 C   0  0  0  0  0  0  0  0  0  0  0  0
  1  5  1  0
  1 12  1  0
  1 13  1  0
  2 20  2  0
  2 28  1  0
  2 29  1  0
  3 19  4  0
  3 25  4  0
  4 23  4  0
  4 27  1  0
  4 30  4  0
  5 17  1  0
  6  8  1  0
  6 29  1  0
  7 24  4  0
  7 26  4  0
  8 25  2  0
  8 28  1  0
 10 18  1  0
 10 30  4  0
 11 17  2  0
 11 20  4  0
 12 18  1  0
 13 15  1  0
 14 15  1  0
 14 24  1  0
 15 25  1  0
 15 26  4  0
 16 28  2  0
 17 20  2  0
 18 29  2  0
 19 24  1  0
 20 23  1  0
 21 22  4  0
 22 23  3  0
 25 26  4  0
 27 29  2  0
M  END
$$$$

 Created by Python create_sdf_string function

 30 38  0  0  0  0  0  0  0  0999 V2000
    8.2843    9.9639   18.4822 Se  0  0  0  0  0  0  0  0  0  0  0  0
    8.2593    7.6793   22.7464 C   0  0  0  0  0  0  0  0  0  0  0  0
    8.3383    6.6398   16.2237 C   0  0  0  0  0  0  0  0  0  0  0  0
   10.7038    6.5529   21.8199 C   0  0  0  0  0  0  0  0  0  0  0  0
    8.2897    8.8569   19.3521 O   0  0  0  0  0  0  0  0  0  0  0  0
    8.5707    6.8051   24.9121 C   0  0  0  0  0  0  0  0  0  0  0  0
   10.3183    6.2857   14.2596 C   0  0  0  0  0  0  0  0  0  0  0  0
    7.3827    7.6138   24.9610 C   0  0  0  0  0  0  0  0  0  0  0  0
    8.0002   10.1160   16.1825 O   0  0  0  0  0  0  0  0  0  0  0  0
   12.4117    6.1648   20.2137 C   0  0  0  0  0  0  0  0  0  0  0  0
    6.8220    9.1219   20.9202 O   0  0  0  0  0  0  0  0  0  0  0  0
   14.3592    6.1127   18.8074 C   0  0  0  0  0  0  0  0  0  0  0  0
    8.6075    9.6153   17.0637 C   0  0  0  0  0  0  0  0  0  0  0  0
    9.3147    4.2837   13.6951 C   0  0  0  0  0  0  0  0  0  0  0  0
    9.5357    8.7043   16.9267 N   0  0  0  0  0  0  0  0  0  0  0  0
    6.1410    8.6276   23.3314 O   0  0  0  0  0  0  0  0  0  0  0  0
    7.8949    8.6676   20.5896 C   0  0  0  0  0  0  0  0  0  0  0  0
   13.6499    5.6714   19.8890 O   0  0  0  0  0  0  0  0  0  0  0  0
    8.3864    5.5401   15.3910 C   0  0  0  0  0  0  0  0  0  0  0  0
    8.6762    7.8600   21.4197 C   0  0  0  0  0  0  0  0  0  0  0  0
   11.6462    6.8741   19.2678 C   0  0  0  0  0  0  0  0  0  0  0  0
   10.4142    7.4214   19.6325 C   0  0  0  0  0  0  0  0  0  0  0  0
    9.9222    7.3149   20.8900 C   0  0  0  0  0  0  0  0  0  0  0  0
    9.3002    5.3407   14.4948 C   0  0  0  0  0  0  0  0  0  0  0  0
    9.4334    7.6234   16.0383 C   0  0  0  0  0  0  0  0  0  0  0  0
   10.3360    7.3850   15.1328 C   0  0  0  0  0  0  0  0  0  0  0  0
   10.2387    6.4524   23.1029 N   0  0  0  0  0  0  0  0  0  0  0  0
    7.1855    8.0824   23.5799 C   0  0  0  0  0  0  0  0  0  0  0  0
    9.1454    6.8748   23.5065 C   0  0  0  0  0  0  0  0  0  0  0  0
   11.9502    6.0390   21.4941 C   0  0  0  0  0  0  0  0  0  0  0  0
  1  2  4  0
  1  5  1  0
  1 13  1  0
  2 20  2  0
  2 22  4  0
  2 28  1  0
  2 29  1  0
  3 19  4  0
  3 25  4  0
  4 23  4  0
  4 27  1  0
  4 30  4  0
  5 17  1  0
  6  8  1  0
  6 29  1  0
  7 24  4  0
  7 26  4  0
  8 28  1  0
  9 13  2  0
 10 18  1  0
 10 21  4  0
 10 29  4  0
 10 30  4  0
 11 17  2  0
 12 18  1  0
 13 15  1  0
 13 23  2  0
 14 24  1  0
 15 25  1  0
 16 28  2  0
 17 20  1  0
 19 24  4  0
 20 23  1  0
 20 29  3  0
 21 22  4  0
 22 23  4  0
 25 26  4  0
 27 29  2  0
M  END
$$$$

 Created by Python create_sdf_string function

 30 38  0  0  0  0  0  0  0  0999 V2000
    8.2833    9.9168   18.5092 C   0  0  0  0  0  0  0  0  0  0  0  0
    8.3204    7.6821   22.7201 C   0  0  0  0  0  0  0  0  0  0  0  0
    8.3661    6.6464   16.2538 C   0  0  0  0  0  0  0  0  0  0  0  0
   10.6968    6.5809   21.7862 C   0  0  0  0  0  0  0  0  0  0  0  0
    8.3080    8.8440   19.3353 O   0  0  0  0  0  0  0  0  0  0  0  0
    8.5833    6.8137   24.8732 C   0  0  0  0  0  0  0  0  0  0  0  0
   10.3195    6.2265   14.2453 C   0  0  0  0  0  0  0  0  0  0  0  0
    7.3729    7.6544   24.9256 C   0  0  0  0  0  0  0  0  0  0  0  0
    8.0219   10.1047   16.1432 O   0  0  0  0  0  0  0  0  0  0  0  0
   12.3943    6.1785   20.1560 C   0  0  0  0  0  0  0  0  0  0  0  0
    6.8456    9.1427   20.9148 O   0  0  0  0  0  0  0  0  0  0  0  0
   14.3883    6.1140   18.7877 C   0  0  0  0  0  0  0  0  0  0  0  0
    8.6356    9.5923   17.0532 C   0  0  0  0  0  0  0  0  0  0  0  0
    9.2841    4.2588   13.6783 O   0  0  0  0  0  0  0  0  0  0  0  0
    9.5908    8.6797   16.8886 N   0  0  0  0  0  0  0  0  0  0  0  0
    6.1606    8.6609   23.3038 O   0  0  0  0  0  0  0  0  0  0  0  0
    7.8957    8.7017   20.5628 C   0  0  0  0  0  0  0  0  0  0  0  0
   13.6676    5.6951   19.8542 O   0  0  0  0  0  0  0  0  0  0  0  0
    8.3682    5.5348   15.4587 C   0  0  0  0  0  0  0  0  0  0  0  0
    8.7118    7.8396   21.4495 C   0  0  0  0  0  0  0  0  0  0  0  0
   11.7172    6.8730   19.2494 C   0  0  0  0  0  0  0  0  0  0  0  0
   10.4395    7.4270   19.6526 C   0  0  0  0  0  0  0  0  0  0  0  0
    9.9981    7.3184   20.8918 C   0  0  0  0  0  0  0  0  0  0  0  0
    9.3276    5.3608   14.4542 C   0  0  0  0  0  0  0  0  0  0  0  0
    9.4126    7.5642   16.0218 C   0  0  0  0  0  0  0  0  0  0  0  0
   10.3442    7.3852   15.0848 C   0  0  0  0  0  0  0  0  0  0  0  0
   10.2237    6.4409   23.0835 N   0  0  0  0  0  0  0  0  0  0  0  0
    7.1787    8.0306   23.6227 C   0  0  0  0  0  0  0  0  0  0  0  0
    9.1594    6.8976   23.5122 C   0  0  0  0  0  0  0  0  0  0  0  0
   11.9220    6.0344   21.4895 C   0  0  0  0  0  0  0  0  0  0  0  0
  1  5  1  0
  1 13  1  0
  1 25  4  0
  2 20  2  0
  2 28  1  0
  2 29  1  0
  3 19  4  0
  3 25  4  0
  4 18  1  0
  4 23  4  0
  4 27  1  0
  4 30  4  0
  5 17  1  0
  6  8  1  0
  6 18  4  0
  6 29  1  0
  7 19  1  0
  7 24  4  0
  7 26  4  0
  8 28  1  0
  9 13  2  0
  9 18  2  0
 10 18  1  0
 10 21  4  0
 10 30  4  0
 11 17  2  0
 12 18  1  0
 13 15  1  0
 14 20  2  0
 14 24  1  0
 15 25  1  0
 16 28  2  0
 19 24  4  0
 20 23  1  0
 21 22  4  0
 22 23  4  0
 25 26  4  0
 27 29  2  0
M  END
$$$$

 Created by Python create_sdf_string function

 30 34  0  0  0  0  0  0  0  0999 V2000
    8.2744    9.9525   18.4775 C   0  0  0  0  0  0  0  0  0  0  0  0
    8.3287    7.6601   22.7270 C   0  0  0  0  0  0  0  0  0  0  0  0
    8.4354    6.6869   16.2606 C   0  0  0  0  0  0  0  0  0  0  0  0
   10.7111    6.5687   21.7663 C   0  0  0  0  0  0  0  0  0  0  0  0
    8.3261    8.8179   19.2749 O   0  0  0  0  0  0  0  0  0  0  0  0
    8.5893    6.8118   24.8850 C   0  0  0  0  0  0  0  0  0  0  0  0
   10.3023    6.2390   14.2752 C   0  0  0  0  0  0  0  0  0  0  0  0
    7.3885    7.6585   24.9434 C   0  0  0  0  0  0  0  0  0  0  0  0
    8.0394   10.0939   16.1377 O   0  0  0  0  0  0  0  0  0  0  0  0
   12.4253    6.2033   20.1974 C   0  0  0  0  0  0  0  0  0  0  0  0
    6.8724    9.1336   20.8784 O   0  0  0  0  0  0  0  0  0  0  0  0
   14.3672    6.1046   18.8209 C   0  0  0  0  0  0  0  0  0  0  0  0
    8.6295    9.5607   17.0292 C   0  0  0  0  0  0  0  0  0  0  0  0
    9.2679    4.2711   13.7180 O   0  0  0  0  0  0  0  0  0  0  0  0
    9.5812    8.6299   16.8583 N   0  0  0  0  0  0  0  0  0  0  0  0
    6.2306    8.6462   23.3076 O   0  0  0  0  0  0  0  0  0  0  0  0
    7.8765    8.6590   20.5546 C   0  0  0  0  0  0  0  0  0  0  0  0
   13.6532    5.7169   19.8389 O   0  0  0  0  0  0  0  0  0  0  0  0
    8.3700    5.5351   15.4176 C   0  0  0  0  0  0  0  0  0  0  0  0
    8.7234    7.8587   21.4405 C   0  0  0  0  0  0  0  0  0  0  0  0
   11.7466    6.8778   19.2236 C   0  0  0  0  0  0  0  0  0  0  0  0
   10.4554    7.4387   19.6086 C   0  0  0  0  0  0  0  0  0  0  0  0
   10.0166    7.3207   20.8673 C   0  0  0  0  0  0  0  0  0  0  0  0
    9.3042    5.3270   14.4709 C   0  0  0  0  0  0  0  0  0  0  0  0
    9.4374    7.6014   16.0587 C   0  0  0  0  0  0  0  0  0  0  0  0
   10.3999    7.3375   15.0505 C   0  0  0  0  0  0  0  0  0  0  0  0
   10.2337    6.4385   23.0927 N   0  0  0  0  0  0  0  0  0  0  0  0
    7.1765    8.0906   23.5913 C   0  0  0  0  0  0  0  0  0  0  0  0
    9.1607    6.9102   23.4886 C   0  0  0  0  0  0  0  0  0  0  0  0
   11.9262    6.0348   21.4753 C   0  0  0  0  0  0  0  0  0  0  0  0
  1  5  1  0
  1 13  1  0
  2 20  2  0
  2 28  1  0
  2 29  1  0
  3 19  4  0
  3 25  4  0
  4 23  4  0
  4 27  1  0
  4 30  4  0
  5 15  4  0
  5 17  1  0
  6  8  1  0
  6 29  1  0
  7 24  4  0
  7 26  4  0
  8 28  1  0
  9 13  2  0
 10 18  1  0
 10 21  4  0
 10 30  4  0
 11 17  2  0
 12 18  1  0
 13 15  1  0
 14 24  1  0
 15 25  1  0
 16 28  2  0
 17 20  1  0
 19 24  4  0
 20 23  1  0
 21 22  4  0
 22 23  4  0
 25 26  4  0
 27 29  2  0
M  END
$$$$

 Created by Python create_sdf_string function

 30 31  0  0  0  0  0  0  0  0999 V2000
    8.2857    9.9121   18.4418 C   0  0  0  0  0  0  0  0  0  0  0  0
    8.3299    7.6686   22.7128 C   0  0  0  0  0  0  0  0  0  0  0  0
    8.4113    6.6726   16.2474 C   0  0  0  0  0  0  0  0  0  0  0  0
   10.7507    6.5714   21.7929 C   0  0  0  0  0  0  0  0  0  0  0  0
    8.3518    8.7944   19.2919 O   0  0  0  0  0  0  0  0  0  0  0  0
    8.6401    6.7938   24.9160 C   0  0  0  0  0  0  0  0  0  0  0  0
   10.3215    6.2194   14.2620 C   0  0  0  0  0  0  0  0  0  0  0  0
    7.4151    7.6383   24.9484 C   0  0  0  0  0  0  0  0  0  0  0  0
    8.0647   10.0962   16.1081 O   0  0  0  0  0  0  0  0  0  0  0  0
   12.4715    6.2145   20.2141 C   0  0  0  0  0  0  0  0  0  0  0  0
    6.9053    9.1165   20.8784 O   0  0  0  0  0  0  0  0  0  0  0  0
   14.4021    6.0811   18.8411 C   0  0  0  0  0  0  0  0  0  0  0  0
    8.6510    9.5673   17.0195 C   0  0  0  0  0  0  0  0  0  0  0  0
    9.2449    4.2846   13.7296 O   0  0  0  0  0  0  0  0  0  0  0  0
    9.5922    8.6521   16.8628 N   0  0  0  0  0  0  0  0  0  0  0  0
    6.2542    8.6622   23.2799 O   0  0  0  0  0  0  0  0  0  0  0  0
    7.9008    8.6850   20.5378 C   0  0  0  0  0  0  0  0  0  0  0  0
   13.6539    5.7018   19.8525 O   0  0  0  0  0  0  0  0  0  0  0  0
    8.3672    5.5433   15.4287 C   0  0  0  0  0  0  0  0  0  0  0  0
    8.7514    7.8808   21.4276 C   0  0  0  0  0  0  0  0  0  0  0  0
   11.7520    6.8851   19.2140 N   0  0  0  0  0  0  0  0  0  0  0  0
   10.4977    7.4128   19.5853 C   0  0  0  0  0  0  0  0  0  0  0  0
    9.9943    7.3012   20.8879 C   0  0  0  0  0  0  0  0  0  0  0  0
    9.3139    5.3215   14.5034 C   0  0  0  0  0  0  0  0  0  0  0  0
    9.4593    7.5910   16.0024 C   0  0  0  0  0  0  0  0  0  0  0  0
   10.3949    7.3900   15.0869 C   0  0  0  0  0  0  0  0  0  0  0  0
   10.2261    6.3935   23.0936 N   0  0  0  0  0  0  0  0  0  0  0  0
    7.2083    8.0940   23.5664 C   0  0  0  0  0  0  0  0  0  0  0  0
    9.1696    6.8973   23.5114 C   0  0  0  0  0  0  0  0  0  0  0  0
   11.9164    6.0455   21.4590 C   0  0  0  0  0  0  0  0  0  0  0  0
  1  5  1  0
  1 13  1  0
  2 20  2  0
  2 28  1  0
  2 29  1  0
  3 19  4  0
  3 25  4  0
  4 23  4  0
  4 27  1  0
  5 11  1  0
  5 17  1  0
  6  8  1  0
  7 24  4  0
  8 28  1  0
  9 13  2  0
 10 18  1  0
 10 21  4  0
 10 30  4  0
 11 17  2  0
 12 18  1  0
 13 15  1  0
 14 24  1  0
 15 25  1  0
 16 28  2  0
 17 20  1  0
 19 24  4  0
 20 23  1  0
 21 22  4  0
 22 23  4  0
 25 26  4  0
 27 29  2  0
M  END
$$$$

 Created by Python create_sdf_string function

 30 33  0  0  0  0  0  0  0  0999 V2000
    8.3014    9.8832   18.4202 C   0  0  0  0  0  0  0  0  0  0  0  0
    8.3377    7.6772   22.7208 C   0  0  0  0  0  0  0  0  0  0  0  0
    8.4173    6.6840   16.2441 C   0  0  0  0  0  0  0  0  0  0  0  0
   10.7434    6.5645   21.7977 C   0  0  0  0  0  0  0  0  0  0  0  0
    8.3539    8.7999   19.2906 O   0  0  0  0  0  0  0  0  0  0  0  0
    8.6855    6.7849   24.8959 C   0  0  0  0  0  0  0  0  0  0  0  0
   10.3351    6.2083   14.2930 C   0  0  0  0  0  0  0  0  0  0  0  0
    7.4308    7.6171   24.9260 C   0  0  0  0  0  0  0  0  0  0  0  0
    8.1011   10.0684   16.0929 O   0  0  0  0  0  0  0  0  0  0  0  0
   12.4548    6.2191   20.2034 C   0  0  0  0  0  0  0  0  0  0  0  0
    6.9151    9.1085   20.8946 O   0  0  0  0  0  0  0  0  0  0  0  0
   14.3708    6.0812   18.8323 C   0  0  0  0  0  0  0  0  0  0  0  0
    8.6688    9.5582   17.0005 C   0  0  0  0  0  0  0  0  0  0  0  0
    9.2506    4.2698   13.7451 O   0  0  0  0  0  0  0  0  0  0  0  0
    9.6051    8.6536   16.8484 N   0  0  0  0  0  0  0  0  0  0  0  0
    6.2587    8.6796   23.2613 O   0  0  0  0  0  0  0  0  0  0  0  0
    7.9283    8.6764   20.5548 C   0  0  0  0  0  0  0  0  0  0  0  0
   13.6649    5.7019   19.8761 O   0  0  0  0  0  0  0  0  0  0  0  0
    8.3598    5.5271   15.4411 C   0  0  0  0  0  0  0  0  0  0  0  0
    8.7493    7.8694   21.4178 C   0  0  0  0  0  0  0  0  0  0  0  0
   11.7545    6.8719   19.2537 C   0  0  0  0  0  0  0  0  0  0  0  0
   10.5140    7.4264   19.5924 C   0  0  0  0  0  0  0  0  0  0  0  0
    9.9965    7.2942   20.8915 C   0  0  0  0  0  0  0  0  0  0  0  0
    9.3251    5.3325   14.4805 C   0  0  0  0  0  0  0  0  0  0  0  0
    9.4315    7.5866   16.0199 C   0  0  0  0  0  0  0  0  0  0  0  0
   10.4339    7.3644   15.0715 C   0  0  0  0  0  0  0  0  0  0  0  0
   10.2251    6.4183   23.0564 N   0  0  0  0  0  0  0  0  0  0  0  0
    7.2231    8.0904   23.5625 C   0  0  0  0  0  0  0  0  0  0  0  0
    9.1747    6.8848   23.4940 C   0  0  0  0  0  0  0  0  0  0  0  0
   11.9293    6.0207   21.4697 C   0  0  0  0  0  0  0  0  0  0  0  0
  1  5  1  0
  1 13  1  0
  2 20  2  0
  2 28  1  0
  2 29  1  0
  3 19  4  0
  3 25  4  0
  4 23  4  0
  4 27  1  0
  4 30  4  0
  5 17  1  0
  6  8  1  0
  6 29  1  0
  7 24  4  0
  7 26  4  0
  8 28  1  0
  9 13  2  0
 10 18  1  0
 10 21  4  0
 10 30  4  0
 11 17  2  0
 12 18  1  0
 13 15  1  0
 14 24  1  0
 15 25  1  0
 16 28  2  0
 17 20  1  0
 19 24  4  0
 20 23  1  0
 21 22  4  0
 22 23  4  0
 25 26  4  0
 27 29  2  0
M  END
$$$$

 Created by Python create_sdf_string function

 30 33  0  0  0  0  0  0  0  0999 V2000
    8.2970    9.8784   18.4161 C   0  0  0  0  0  0  0  0  0  0  0  0
    8.3562    7.6670   22.6972 C   0  0  0  0  0  0  0  0  0  0  0  0
    8.4163    6.6876   16.2337 C   0  0  0  0  0  0  0  0  0  0  0  0
   10.7276    6.5644   21.7793 C   0  0  0  0  0  0  0  0  0  0  0  0
    8.3801    8.8072   19.2924 O   0  0  0  0  0  0  0  0  0  0  0  0
    8.6915    6.7915   24.8842 C   0  0  0  0  0  0  0  0  0  0  0  0
   10.3394    6.1919   14.2980 C   0  0  0  0  0  0  0  0  0  0  0  0
    7.4236    7.6019   24.9244 C   0  0  0  0  0  0  0  0  0  0  0  0
    8.1194   10.0692   16.0744 O   0  0  0  0  0  0  0  0  0  0  0  0
   12.4780    6.2151   20.1962 C   0  0  0  0  0  0  0  0  0  0  0  0
    6.9074    9.1122   20.8969 O   0  0  0  0  0  0  0  0  0  0  0  0
   14.3848    6.0780   18.8105 C   0  0  0  0  0  0  0  0  0  0  0  0
    8.6670    9.5470   17.0050 C   0  0  0  0  0  0  0  0  0  0  0  0
    9.2571    4.2745   13.7544 O   0  0  0  0  0  0  0  0  0  0  0  0
    9.6329    8.6404   16.8393 N   0  0  0  0  0  0  0  0  0  0  0  0
    6.2712    8.6782   23.2464 O   0  0  0  0  0  0  0  0  0  0  0  0
    7.9471    8.6621   20.5606 C   0  0  0  0  0  0  0  0  0  0  0  0
   13.6815    5.7051   19.8782 O   0  0  0  0  0  0  0  0  0  0  0  0
    8.3457    5.5239   15.4430 C   0  0  0  0  0  0  0  0  0  0  0  0
    8.7562    7.8618   21.4055 C   0  0  0  0  0  0  0  0  0  0  0  0
   11.7761    6.8719   19.2563 C   0  0  0  0  0  0  0  0  0  0  0  0
   10.5165    7.4262   19.5862 C   0  0  0  0  0  0  0  0  0  0  0  0
   10.0048    7.2820   20.8718 C   0  0  0  0  0  0  0  0  0  0  0  0
    9.3208    5.3166   14.4759 C   0  0  0  0  0  0  0  0  0  0  0  0
    9.4550    7.5789   16.0117 C   0  0  0  0  0  0  0  0  0  0  0  0
   10.4269    7.3476   15.0831 C   0  0  0  0  0  0  0  0  0  0  0  0
   10.2374    6.4231   23.0503 N   0  0  0  0  0  0  0  0  0  0  0  0
    7.2344    8.0818   23.5366 C   0  0  0  0  0  0  0  0  0  0  0  0
    9.1936    6.8886   23.4872 C   0  0  0  0  0  0  0  0  0  0  0  0
   11.9501    6.0261   21.4368 C   0  0  0  0  0  0  0  0  0  0  0  0
  1  5  1  0
  1 13  1  0
  2 20  2  0
  2 28  1  0
  2 29  1  0
  3 19  4  0
  3 25  4  0
  4 23  4  0
  4 27  1  0
  4 30  4  0
  5 17  1  0
  6  8  1  0
  6 29  1  0
  7 24  4  0
  7 26  4  0
  8 28  1  0
  9 13  2  0
 10 18  1  0
 10 21  4  0
 10 30  4  0
 11 17  2  0
 12 18  4  0
 13 15  1  0
 14 24  1  0
 15 25  1  0
 16 28  2  0
 17 20  1  0
 19 24  4  0
 20 23  1  0
 21 22  4  0
 22 23  4  0
 25 26  4  0
 27 29  2  0
M  END
$$$$

 Created by Python create_sdf_string function

 30 34  0  0  0  0  0  0  0  0999 V2000
    8.3023    9.8688   18.4210 C   0  0  0  0  0  0  0  0  0  0  0  0
    8.3626    7.6613   22.6809 C   0  0  0  0  0  0  0  0  0  0  0  0
    8.4146    6.6889   16.2386 C   0  0  0  0  0  0  0  0  0  0  0  0
   10.7463    6.5649   21.7791 C   0  0  0  0  0  0  0  0  0  0  0  0
    8.4131    8.8011   19.2882 O   0  0  0  0  0  0  0  0  0  0  0  0
    8.7054    6.7860   24.8697 C   0  0  0  0  0  0  0  0  0  0  0  0
   10.3428    6.1831   14.3048 C   0  0  0  0  0  0  0  0  0  0  0  0
    7.4261    7.5931   24.9116 C   0  0  0  0  0  0  0  0  0  0  0  0
    8.1374   10.0605   16.0626 O   0  0  0  0  0  0  0  0  0  0  0  0
   12.4895    6.2104   20.1857 C   0  0  0  0  0  0  0  0  0  0  0  0
    6.9119    9.1107   20.8988 O   0  0  0  0  0  0  0  0  0  0  0  0
   14.3969    6.0738   18.7883 C   0  0  0  0  0  0  0  0  0  0  0  0
    8.6741    9.5420   17.0031 C   0  0  0  0  0  0  0  0  0  0  0  0
    9.2582    4.2716   13.7573 O   0  0  0  0  0  0  0  0  0  0  0  0
    9.6415    8.6348   16.8306 N   0  0  0  0  0  0  0  0  0  0  0  0
    6.2852    8.6918   23.2237 O   0  0  0  0  0  0  0  0  0  0  0  0
    7.9671    8.6599   20.5495 C   0  0  0  0  0  0  0  0  0  0  0  0
   13.7139    5.7086   19.8706 O   0  0  0  0  0  0  0  0  0  0  0  0
    8.3379    5.5208   15.4437 C   0  0  0  0  0  0  0  0  0  0  0  0
    8.7637    7.8464   21.4031 C   0  0  0  0  0  0  0  0  0  0  0  0
   11.7811    6.8820   19.2449 C   0  0  0  0  0  0  0  0  0  0  0  0
   10.5123    7.4289   19.5785 C   0  0  0  0  0  0  0  0  0  0  0  0
   10.0111    7.2931   20.8571 C   0  0  0  0  0  0  0  0  0  0  0  0
    9.3134    5.3094   14.4871 C   0  0  0  0  0  0  0  0  0  0  0  0
    9.4558    7.5720   16.0135 C   0  0  0  0  0  0  0  0  0  0  0  0
   10.4212    7.3301   15.0922 C   0  0  0  0  0  0  0  0  0  0  0  0
   10.2395    6.4210   23.0375 N   0  0  0  0  0  0  0  0  0  0  0  0
    7.2413    8.0772   23.5177 C   0  0  0  0  0  0  0  0  0  0  0  0
    9.1953    6.9080   23.4729 C   0  0  0  0  0  0  0  0  0  0  0  0
   11.9540    6.0296   21.4304 C   0  0  0  0  0  0  0  0  0  0  0  0
  1  5  1  0
  1 13  1  0
  2 20  2  0
  2 28  1  0
  2 29  1  0
  3 19  4  0
  3 25  4  0
  4 23  4  0
  4 27  1  0
  4 30  4  0
  5 17  1  0
  6  8  1  0
  6 29  1  0
  7 24  4  0
  7 26  4  0
  8 28  1  0
  9 13  2  0
 10 18  1  0
 10 21  4  0
 10 30  4  0
 11 17  2  0
 12 18  1  0
 13 15  1  0
 14 24  1  0
 15 25  1  0
 16 28  2  0
 17 20  1  0
 19 20  4  0
 19 24  4  0
 20 23  1  0
 21 22  4  0
 22 23  4  0
 25 26  4  0
 27 29  2  0
M  END
$$$$

 Created by Python create_sdf_string function

 30 33  0  0  0  0  0  0  0  0999 V2000
    8.3036    9.8571   18.4133 C   0  0  0  0  0  0  0  0  0  0  0  0
    8.3694    7.6612   22.6703 C   0  0  0  0  0  0  0  0  0  0  0  0
    8.4143    6.6863   16.2273 C   0  0  0  0  0  0  0  0  0  0  0  0
   10.7581    6.5674   21.7636 C   0  0  0  0  0  0  0  0  0  0  0  0
    8.4452    8.7960   19.2958 O   0  0  0  0  0  0  0  0  0  0  0  0
    8.7122    6.7842   24.8569 C   0  0  0  0  0  0  0  0  0  0  0  0
   10.3400    6.1726   14.3081 C   0  0  0  0  0  0  0  0  0  0  0  0
    7.4297    7.5873   24.8962 C   0  0  0  0  0  0  0  0  0  0  0  0
    8.1566   10.0536   16.0516 O   0  0  0  0  0  0  0  0  0  0  0  0
   12.4989    6.2074   20.1776 C   0  0  0  0  0  0  0  0  0  0  0  0
    6.9192    9.1053   20.9073 O   0  0  0  0  0  0  0  0  0  0  0  0
   14.3979    6.0729   18.7784 C   0  0  0  0  0  0  0  0  0  0  0  0
    8.6811    9.5354   16.9998 C   0  0  0  0  0  0  0  0  0  0  0  0
    9.2512    4.2713   13.7653 O   0  0  0  0  0  0  0  0  0  0  0  0
    9.6495    8.6317   16.8332 N   0  0  0  0  0  0  0  0  0  0  0  0
    6.2934    8.6988   23.1988 O   0  0  0  0  0  0  0  0  0  0  0  0
    7.9806    8.6543   20.5437 C   0  0  0  0  0  0  0  0  0  0  0  0
   13.7270    5.7144   19.8610 O   0  0  0  0  0  0  0  0  0  0  0  0
    8.3351    5.5235   15.4478 C   0  0  0  0  0  0  0  0  0  0  0  0
    8.7700    7.8434   21.3915 C   0  0  0  0  0  0  0  0  0  0  0  0
   11.7856    6.8851   19.2401 C   0  0  0  0  0  0  0  0  0  0  0  0
   10.5281    7.4276   19.5649 C   0  0  0  0  0  0  0  0  0  0  0  0
   10.0256    7.2907   20.8484 C   0  0  0  0  0  0  0  0  0  0  0  0
    9.3113    5.3049   14.4911 C   0  0  0  0  0  0  0  0  0  0  0  0
    9.4607    7.5646   16.0139 C   0  0  0  0  0  0  0  0  0  0  0  0
   10.4192    7.3157   15.0955 C   0  0  0  0  0  0  0  0  0  0  0  0
   10.2489    6.4227   23.0218 N   0  0  0  0  0  0  0  0  0  0  0  0
    7.2472    8.0746   23.5050 C   0  0  0  0  0  0  0  0  0  0  0  0
    9.2051    6.9101   23.4604 C   0  0  0  0  0  0  0  0  0  0  0  0
   11.9646    6.0299   21.4251 C   0  0  0  0  0  0  0  0  0  0  0  0
  1  5  1  0
  1 13  1  0
  2 20  2  0
  2 28  1  0
  2 29  1  0
  3 19  4  0
  3 25  4  0
  4 23  4  0
  4 27  1  0
  4 30  4  0
  5 17  1  0
  6  8  1  0
  6 29  1  0
  7 24  4  0
  7 26  4  0
  8 28  1  0
  9 13  2  0
 10 18  1  0
 10 21  4  0
 10 30  4  0
 11 17  2  0
 12 18  1  0
 13 15  1  0
 14 24  1  0
 15 25  1  0
 16 28  2  0
 17 20  1  0
 19 24  4  0
 20 23  1  0
 21 22  4  0
 22 23  4  0
 25 26  4  0
 27 29  2  0
M  END
$$$$

 Created by Python create_sdf_string function

 30 33  0  0  0  0  0  0  0  0999 V2000
    8.3036    9.8571   18.4133 C   0  0  0  0  0  0  0  0  0  0  0  0
    8.3694    7.6612   22.6703 C   0  0  0  0  0  0  0  0  0  0  0  0
    8.4143    6.6863   16.2273 C   0  0  0  0  0  0  0  0  0  0  0  0
   10.7581    6.5674   21.7636 C   0  0  0  0  0  0  0  0  0  0  0  0
    8.4452    8.7960   19.2958 O   0  0  0  0  0  0  0  0  0  0  0  0
    8.7122    6.7842   24.8569 C   0  0  0  0  0  0  0  0  0  0  0  0
   10.3400    6.1726   14.3081 C   0  0  0  0  0  0  0  0  0  0  0  0
    7.4297    7.5873   24.8962 C   0  0  0  0  0  0  0  0  0  0  0  0
    8.1566   10.0536   16.0516 O   0  0  0  0  0  0  0  0  0  0  0  0
   12.4989    6.2074   20.1776 C   0  0  0  0  0  0  0  0  0  0  0  0
    6.9192    9.1053   20.9073 O   0  0  0  0  0  0  0  0  0  0  0  0
   14.3979    6.0729   18.7784 C   0  0  0  0  0  0  0  0  0  0  0  0
    8.6811    9.5354   16.9998 C   0  0  0  0  0  0  0  0  0  0  0  0
    9.2512    4.2713   13.7653 O   0  0  0  0  0  0  0  0  0  0  0  0
    9.6495    8.6317   16.8332 N   0  0  0  0  0  0  0  0  0  0  0  0
    6.2934    8.6988   23.1988 O   0  0  0  0  0  0  0  0  0  0  0  0
    7.9806    8.6543   20.5437 C   0  0  0  0  0  0  0  0  0  0  0  0
   13.7270    5.7144   19.8610 O   0  0  0  0  0  0  0  0  0  0  0  0
    8.3351    5.5235   15.4478 C   0  0  0  0  0  0  0  0  0  0  0  0
    8.7700    7.8434   21.3915 C   0  0  0  0  0  0  0  0  0  0  0  0
   11.7856    6.8851   19.2401 C   0  0  0  0  0  0  0  0  0  0  0  0
   10.5281    7.4276   19.5649 C   0  0  0  0  0  0  0  0  0  0  0  0
   10.0256    7.2907   20.8484 C   0  0  0  0  0  0  0  0  0  0  0  0
    9.3113    5.3049   14.4911 C   0  0  0  0  0  0  0  0  0  0  0  0
    9.4607    7.5646   16.0139 C   0  0  0  0  0  0  0  0  0  0  0  0
   10.4192    7.3157   15.0955 C   0  0  0  0  0  0  0  0  0  0  0  0
   10.2489    6.4227   23.0218 N   0  0  0  0  0  0  0  0  0  0  0  0
    7.2472    8.0746   23.5050 C   0  0  0  0  0  0  0  0  0  0  0  0
    9.2051    6.9101   23.4604 C   0  0  0  0  0  0  0  0  0  0  0  0
   11.9646    6.0299   21.4251 C   0  0  0  0  0  0  0  0  0  0  0  0
  1  5  1  0
  1 13  1  0
  2 20  2  0
  2 28  1  0
  2 29  1  0
  3 19  4  0
  3 25  4  0
  4 23  4  0
  4 27  1  0
  4 30  4  0
  5 17  1  0
  6  8  1  0
  6 29  1  0
  7 24  4  0
  7 26  4  0
  8 28  1  0
  9 13  2  0
 10 18  1  0
 10 21  4  0
 10 30  4  0
 11 17  2  0
 12 18  1  0
 13 15  1  0
 14 24  1  0
 15 25  1  0
 16 28  2  0
 17 20  1  0
 19 24  4  0
 20 23  1  0
 21 22  4  0
 22 23  4  0
 25 26  4  0
 27 29  2  0
M  END
$$$$

 Created by Python create_sdf_string function

 30 33  0  0  0  0  0  0  0  0999 V2000
    8.3036    9.8571   18.4133 C   0  0  0  0  0  0  0  0  0  0  0  0
    8.3694    7.6612   22.6703 C   0  0  0  0  0  0  0  0  0  0  0  0
    8.4143    6.6863   16.2273 C   0  0  0  0  0  0  0  0  0  0  0  0
   10.7581    6.5674   21.7636 C   0  0  0  0  0  0  0  0  0  0  0  0
    8.4452    8.7960   19.2958 O   0  0  0  0  0  0  0  0  0  0  0  0
    8.7122    6.7842   24.8569 C   0  0  0  0  0  0  0  0  0  0  0  0
   10.3400    6.1726   14.3081 C   0  0  0  0  0  0  0  0  0  0  0  0
    7.4297    7.5873   24.8962 C   0  0  0  0  0  0  0  0  0  0  0  0
    8.1566   10.0536   16.0516 O   0  0  0  0  0  0  0  0  0  0  0  0
   12.4989    6.2074   20.1776 C   0  0  0  0  0  0  0  0  0  0  0  0
    6.9192    9.1053   20.9073 O   0  0  0  0  0  0  0  0  0  0  0  0
   14.3979    6.0729   18.7784 C   0  0  0  0  0  0  0  0  0  0  0  0
    8.6811    9.5354   16.9998 C   0  0  0  0  0  0  0  0  0  0  0  0
    9.2512    4.2713   13.7653 O   0  0  0  0  0  0  0  0  0  0  0  0
    9.6495    8.6317   16.8332 N   0  0  0  0  0  0  0  0  0  0  0  0
    6.2934    8.6988   23.1988 O   0  0  0  0  0  0  0  0  0  0  0  0
    7.9806    8.6543   20.5437 C   0  0  0  0  0  0  0  0  0  0  0  0
   13.7270    5.7144   19.8610 O   0  0  0  0  0  0  0  0  0  0  0  0
    8.3351    5.5235   15.4478 C   0  0  0  0  0  0  0  0  0  0  0  0
    8.7700    7.8434   21.3915 C   0  0  0  0  0  0  0  0  0  0  0  0
   11.7856    6.8851   19.2401 C   0  0  0  0  0  0  0  0  0  0  0  0
   10.5281    7.4276   19.5649 C   0  0  0  0  0  0  0  0  0  0  0  0
   10.0256    7.2907   20.8484 C   0  0  0  0  0  0  0  0  0  0  0  0
    9.3113    5.3049   14.4911 C   0  0  0  0  0  0  0  0  0  0  0  0
    9.4607    7.5646   16.0139 C   0  0  0  0  0  0  0  0  0  0  0  0
   10.4192    7.3157   15.0955 C   0  0  0  0  0  0  0  0  0  0  0  0
   10.2489    6.4227   23.0218 N   0  0  0  0  0  0  0  0  0  0  0  0
    7.2472    8.0746   23.5050 C   0  0  0  0  0  0  0  0  0  0  0  0
    9.2051    6.9101   23.4604 C   0  0  0  0  0  0  0  0  0  0  0  0
   11.9646    6.0299   21.4251 C   0  0  0  0  0  0  0  0  0  0  0  0
  1  5  1  0
  1 13  1  0
  2 20  2  0
  2 28  1  0
  2 29  1  0
  3 19  4  0
  3 25  4  0
  4 23  4  0
  4 27  1  0
  4 30  4  0
  5 17  1  0
  6  8  1  0
  6 29  1  0
  7 24  4  0
  7 26  4  0
  8 28  1  0
  9 13  2  0
 10 18  1  0
 10 21  4  0
 10 30  4  0
 11 17  2  0
 12 18  1  0
 13 15  1  0
 14 24  1  0
 15 25  1  0
 16 28  2  0
 17 20  1  0
 19 24  4  0
 20 23  1  0
 21 22  4  0
 22 23  4  0
 25 26  4  0
 27 29  2  0
M  END
$$$$

 Created by Python create_sdf_string function

 30 33  0  0  0  0  0  0  0  0999 V2000
    8.3036    9.8571   18.4133 C   0  0  0  0  0  0  0  0  0  0  0  0
    8.3694    7.6612   22.6703 C   0  0  0  0  0  0  0  0  0  0  0  0
    8.4143    6.6863   16.2273 C   0  0  0  0  0  0  0  0  0  0  0  0
   10.7581    6.5674   21.7636 C   0  0  0  0  0  0  0  0  0  0  0  0
    8.4452    8.7960   19.2958 O   0  0  0  0  0  0  0  0  0  0  0  0
    8.7122    6.7842   24.8569 C   0  0  0  0  0  0  0  0  0  0  0  0
   10.3400    6.1726   14.3081 C   0  0  0  0  0  0  0  0  0  0  0  0
    7.4297    7.5873   24.8962 C   0  0  0  0  0  0  0  0  0  0  0  0
    8.1566   10.0536   16.0516 O   0  0  0  0  0  0  0  0  0  0  0  0
   12.4989    6.2074   20.1776 C   0  0  0  0  0  0  0  0  0  0  0  0
    6.9192    9.1053   20.9073 O   0  0  0  0  0  0  0  0  0  0  0  0
   14.3979    6.0729   18.7784 C   0  0  0  0  0  0  0  0  0  0  0  0
    8.6811    9.5354   16.9998 C   0  0  0  0  0  0  0  0  0  0  0  0
    9.2512    4.2713   13.7653 O   0  0  0  0  0  0  0  0  0  0  0  0
    9.6495    8.6317   16.8332 N   0  0  0  0  0  0  0  0  0  0  0  0
    6.2934    8.6988   23.1988 O   0  0  0  0  0  0  0  0  0  0  0  0
    7.9806    8.6543   20.5437 C   0  0  0  0  0  0  0  0  0  0  0  0
   13.7270    5.7144   19.8610 O   0  0  0  0  0  0  0  0  0  0  0  0
    8.3351    5.5235   15.4478 C   0  0  0  0  0  0  0  0  0  0  0  0
    8.7700    7.8434   21.3915 C   0  0  0  0  0  0  0  0  0  0  0  0
   11.7856    6.8851   19.2401 C   0  0  0  0  0  0  0  0  0  0  0  0
   10.5281    7.4276   19.5649 C   0  0  0  0  0  0  0  0  0  0  0  0
   10.0256    7.2907   20.8484 C   0  0  0  0  0  0  0  0  0  0  0  0
    9.3113    5.3049   14.4911 C   0  0  0  0  0  0  0  0  0  0  0  0
    9.4607    7.5646   16.0139 C   0  0  0  0  0  0  0  0  0  0  0  0
   10.4192    7.3157   15.0955 C   0  0  0  0  0  0  0  0  0  0  0  0
   10.2489    6.4227   23.0218 N   0  0  0  0  0  0  0  0  0  0  0  0
    7.2472    8.0746   23.5050 C   0  0  0  0  0  0  0  0  0  0  0  0
    9.2051    6.9101   23.4604 C   0  0  0  0  0  0  0  0  0  0  0  0
   11.9646    6.0299   21.4251 C   0  0  0  0  0  0  0  0  0  0  0  0
  1  5  1  0
  1 13  1  0
  2 20  2  0
  2 28  1  0
  2 29  1  0
  3 19  4  0
  3 25  4  0
  4 23  4  0
  4 27  1  0
  4 30  4  0
  5 17  1  0
  6  8  1  0
  6 29  1  0
  7 24  4  0
  7 26  4  0
  8 28  1  0
  9 13  2  0
 10 18  1  0
 10 21  4  0
 10 30  4  0
 11 17  2  0
 12 18  1  0
 13 15  1  0
 14 24  1  0
 15 25  1  0
 16 28  2  0
 17 20  1  0
 19 24  4  0
 20 23  1  0
 21 22  4  0
 22 23  4  0
 25 26  4  0
 27 29  2  0
M  END
$$$$

 Created by Python create_sdf_string function

 30 33  0  0  0  0  0  0  0  0999 V2000
    8.3036    9.8571   18.4133 C   0  0  0  0  0  0  0  0  0  0  0  0
    8.3694    7.6612   22.6703 C   0  0  0  0  0  0  0  0  0  0  0  0
    8.4143    6.6863   16.2273 C   0  0  0  0  0  0  0  0  0  0  0  0
   10.7581    6.5674   21.7636 C   0  0  0  0  0  0  0  0  0  0  0  0
    8.4452    8.7960   19.2958 O   0  0  0  0  0  0  0  0  0  0  0  0
    8.7122    6.7842   24.8569 C   0  0  0  0  0  0  0  0  0  0  0  0
   10.3400    6.1726   14.3081 C   0  0  0  0  0  0  0  0  0  0  0  0
    7.4297    7.5873   24.8962 C   0  0  0  0  0  0  0  0  0  0  0  0
    8.1566   10.0536   16.0516 O   0  0  0  0  0  0  0  0  0  0  0  0
   12.4989    6.2074   20.1776 C   0  0  0  0  0  0  0  0  0  0  0  0
    6.9192    9.1053   20.9073 O   0  0  0  0  0  0  0  0  0  0  0  0
   14.3979    6.0729   18.7784 C   0  0  0  0  0  0  0  0  0  0  0  0
    8.6811    9.5354   16.9998 C   0  0  0  0  0  0  0  0  0  0  0  0
    9.2512    4.2713   13.7653 O   0  0  0  0  0  0  0  0  0  0  0  0
    9.6495    8.6317   16.8332 N   0  0  0  0  0  0  0  0  0  0  0  0
    6.2934    8.6988   23.1988 O   0  0  0  0  0  0  0  0  0  0  0  0
    7.9806    8.6543   20.5437 C   0  0  0  0  0  0  0  0  0  0  0  0
   13.7270    5.7144   19.8610 O   0  0  0  0  0  0  0  0  0  0  0  0
    8.3351    5.5235   15.4478 C   0  0  0  0  0  0  0  0  0  0  0  0
    8.7700    7.8434   21.3915 C   0  0  0  0  0  0  0  0  0  0  0  0
   11.7856    6.8851   19.2401 C   0  0  0  0  0  0  0  0  0  0  0  0
   10.5281    7.4276   19.5649 C   0  0  0  0  0  0  0  0  0  0  0  0
   10.0256    7.2907   20.8484 C   0  0  0  0  0  0  0  0  0  0  0  0
    9.3113    5.3049   14.4911 C   0  0  0  0  0  0  0  0  0  0  0  0
    9.4607    7.5646   16.0139 C   0  0  0  0  0  0  0  0  0  0  0  0
   10.4192    7.3157   15.0955 C   0  0  0  0  0  0  0  0  0  0  0  0
   10.2489    6.4227   23.0218 N   0  0  0  0  0  0  0  0  0  0  0  0
    7.2472    8.0746   23.5050 C   0  0  0  0  0  0  0  0  0  0  0  0
    9.2051    6.9101   23.4604 C   0  0  0  0  0  0  0  0  0  0  0  0
   11.9646    6.0299   21.4251 C   0  0  0  0  0  0  0  0  0  0  0  0
  1  5  1  0
  1 13  1  0
  2 20  2  0
  2 28  1  0
  2 29  1  0
  3 19  4  0
  3 25  4  0
  4 23  4  0
  4 27  1  0
  4 30  4  0
  5 17  1  0
  6  8  1  0
  6 29  1  0
  7 24  4  0
  7 26  4  0
  8 28  1  0
  9 13  2  0
 10 18  1  0
 10 21  4  0
 10 30  4  0
 11 17  2  0
 12 18  1  0
 13 15  1  0
 14 24  1  0
 15 25  1  0
 16 28  2  0
 17 20  1  0
 19 24  4  0
 20 23  1  0
 21 22  4  0
 22 23  4  0
 25 26  4  0
 27 29  2  0
M  END
$$$$

 Created by Python create_sdf_string function

 30 33  0  0  0  0  0  0  0  0999 V2000
    8.3036    9.8571   18.4133 C   0  0  0  0  0  0  0  0  0  0  0  0
    8.3694    7.6612   22.6703 C   0  0  0  0  0  0  0  0  0  0  0  0
    8.4143    6.6863   16.2273 C   0  0  0  0  0  0  0  0  0  0  0  0
   10.7581    6.5674   21.7636 C   0  0  0  0  0  0  0  0  0  0  0  0
    8.4452    8.7960   19.2958 O   0  0  0  0  0  0  0  0  0  0  0  0
    8.7122    6.7842   24.8569 C   0  0  0  0  0  0  0  0  0  0  0  0
   10.3400    6.1726   14.3081 C   0  0  0  0  0  0  0  0  0  0  0  0
    7.4297    7.5873   24.8962 C   0  0  0  0  0  0  0  0  0  0  0  0
    8.1566   10.0536   16.0516 O   0  0  0  0  0  0  0  0  0  0  0  0
   12.4989    6.2074   20.1776 C   0  0  0  0  0  0  0  0  0  0  0  0
    6.9192    9.1053   20.9073 O   0  0  0  0  0  0  0  0  0  0  0  0
   14.3979    6.0729   18.7784 C   0  0  0  0  0  0  0  0  0  0  0  0
    8.6811    9.5354   16.9998 C   0  0  0  0  0  0  0  0  0  0  0  0
    9.2512    4.2713   13.7653 O   0  0  0  0  0  0  0  0  0  0  0  0
    9.6495    8.6317   16.8332 N   0  0  0  0  0  0  0  0  0  0  0  0
    6.2934    8.6988   23.1988 O   0  0  0  0  0  0  0  0  0  0  0  0
    7.9806    8.6543   20.5437 C   0  0  0  0  0  0  0  0  0  0  0  0
   13.7270    5.7144   19.8610 O   0  0  0  0  0  0  0  0  0  0  0  0
    8.3351    5.5235   15.4478 C   0  0  0  0  0  0  0  0  0  0  0  0
    8.7700    7.8434   21.3915 C   0  0  0  0  0  0  0  0  0  0  0  0
   11.7856    6.8851   19.2401 C   0  0  0  0  0  0  0  0  0  0  0  0
   10.5281    7.4276   19.5649 C   0  0  0  0  0  0  0  0  0  0  0  0
   10.0256    7.2907   20.8484 C   0  0  0  0  0  0  0  0  0  0  0  0
    9.3113    5.3049   14.4911 C   0  0  0  0  0  0  0  0  0  0  0  0
    9.4607    7.5646   16.0139 C   0  0  0  0  0  0  0  0  0  0  0  0
   10.4192    7.3157   15.0955 C   0  0  0  0  0  0  0  0  0  0  0  0
   10.2489    6.4227   23.0218 N   0  0  0  0  0  0  0  0  0  0  0  0
    7.2472    8.0746   23.5050 C   0  0  0  0  0  0  0  0  0  0  0  0
    9.2051    6.9101   23.4604 C   0  0  0  0  0  0  0  0  0  0  0  0
   11.9646    6.0299   21.4251 C   0  0  0  0  0  0  0  0  0  0  0  0
  1  5  1  0
  1 13  1  0
  2 20  2  0
  2 28  1  0
  2 29  1  0
  3 19  4  0
  3 25  4  0
  4 23  4  0
  4 27  1  0
  4 30  4  0
  5 17  1  0
  6  8  1  0
  6 29  1  0
  7 24  4  0
  7 26  4  0
  8 28  1  0
  9 13  2  0
 10 18  1  0
 10 21  4  0
 10 30  4  0
 11 17  2  0
 12 18  1  0
 13 15  1  0
 14 24  1  0
 15 25  1  0
 16 28  2  0
 17 20  1  0
 19 24  4  0
 20 23  1  0
 21 22  4  0
 22 23  4  0
 25 26  4  0
 27 29  2  0
M  END
$$$$

 Created by Python create_sdf_string function

 30 33  0  0  0  0  0  0  0  0999 V2000
    8.3036    9.8571   18.4133 C   0  0  0  0  0  0  0  0  0  0  0  0
    8.3694    7.6612   22.6703 C   0  0  0  0  0  0  0  0  0  0  0  0
    8.4143    6.6863   16.2273 C   0  0  0  0  0  0  0  0  0  0  0  0
   10.7581    6.5674   21.7636 C   0  0  0  0  0  0  0  0  0  0  0  0
    8.4452    8.7960   19.2958 O   0  0  0  0  0  0  0  0  0  0  0  0
    8.7122    6.7842   24.8569 C   0  0  0  0  0  0  0  0  0  0  0  0
   10.3400    6.1726   14.3081 C   0  0  0  0  0  0  0  0  0  0  0  0
    7.4297    7.5873   24.8962 C   0  0  0  0  0  0  0  0  0  0  0  0
    8.1566   10.0536   16.0516 O   0  0  0  0  0  0  0  0  0  0  0  0
   12.4989    6.2074   20.1776 C   0  0  0  0  0  0  0  0  0  0  0  0
    6.9192    9.1053   20.9073 O   0  0  0  0  0  0  0  0  0  0  0  0
   14.3979    6.0729   18.7784 C   0  0  0  0  0  0  0  0  0  0  0  0
    8.6811    9.5354   16.9998 C   0  0  0  0  0  0  0  0  0  0  0  0
    9.2512    4.2713   13.7653 O   0  0  0  0  0  0  0  0  0  0  0  0
    9.6495    8.6317   16.8332 N   0  0  0  0  0  0  0  0  0  0  0  0
    6.2934    8.6988   23.1988 O   0  0  0  0  0  0  0  0  0  0  0  0
    7.9806    8.6543   20.5437 C   0  0  0  0  0  0  0  0  0  0  0  0
   13.7270    5.7144   19.8610 O   0  0  0  0  0  0  0  0  0  0  0  0
    8.3351    5.5235   15.4478 C   0  0  0  0  0  0  0  0  0  0  0  0
    8.7700    7.8434   21.3915 C   0  0  0  0  0  0  0  0  0  0  0  0
   11.7856    6.8851   19.2401 C   0  0  0  0  0  0  0  0  0  0  0  0
   10.5281    7.4276   19.5649 C   0  0  0  0  0  0  0  0  0  0  0  0
   10.0256    7.2907   20.8484 C   0  0  0  0  0  0  0  0  0  0  0  0
    9.3113    5.3049   14.4911 C   0  0  0  0  0  0  0  0  0  0  0  0
    9.4607    7.5646   16.0139 C   0  0  0  0  0  0  0  0  0  0  0  0
   10.4192    7.3157   15.0955 C   0  0  0  0  0  0  0  0  0  0  0  0
   10.2489    6.4227   23.0218 N   0  0  0  0  0  0  0  0  0  0  0  0
    7.2472    8.0746   23.5050 C   0  0  0  0  0  0  0  0  0  0  0  0
    9.2051    6.9101   23.4604 C   0  0  0  0  0  0  0  0  0  0  0  0
   11.9646    6.0299   21.4251 C   0  0  0  0  0  0  0  0  0  0  0  0
  1  5  1  0
  1 13  1  0
  2 20  2  0
  2 28  1  0
  2 29  1  0
  3 19  4  0
  3 25  4  0
  4 23  4  0
  4 27  1  0
  4 30  4  0
  5 17  1  0
  6  8  1  0
  6 29  1  0
  7 24  4  0
  7 26  4  0
  8 28  1  0
  9 13  2  0
 10 18  1  0
 10 21  4  0
 10 30  4  0
 11 17  2  0
 12 18  1  0
 13 15  1  0
 14 24  1  0
 15 25  1  0
 16 28  2  0
 17 20  1  0
 19 24  4  0
 20 23  1  0
 21 22  4  0
 22 23  4  0
 25 26  4  0
 27 29  2  0
M  END
$$$$

 Created by Python create_sdf_string function

 30 33  0  0  0  0  0  0  0  0999 V2000
    8.3036    9.8571   18.4133 C   0  0  0  0  0  0  0  0  0  0  0  0
    8.3694    7.6612   22.6703 C   0  0  0  0  0  0  0  0  0  0  0  0
    8.4143    6.6863   16.2273 C   0  0  0  0  0  0  0  0  0  0  0  0
   10.7581    6.5674   21.7636 C   0  0  0  0  0  0  0  0  0  0  0  0
    8.4452    8.7960   19.2958 O   0  0  0  0  0  0  0  0  0  0  0  0
    8.7122    6.7842   24.8569 C   0  0  0  0  0  0  0  0  0  0  0  0
   10.3400    6.1726   14.3081 C   0  0  0  0  0  0  0  0  0  0  0  0
    7.4297    7.5873   24.8962 C   0  0  0  0  0  0  0  0  0  0  0  0
    8.1566   10.0536   16.0516 O   0  0  0  0  0  0  0  0  0  0  0  0
   12.4989    6.2074   20.1776 C   0  0  0  0  0  0  0  0  0  0  0  0
    6.9192    9.1053   20.9073 O   0  0  0  0  0  0  0  0  0  0  0  0
   14.3979    6.0729   18.7784 C   0  0  0  0  0  0  0  0  0  0  0  0
    8.6811    9.5354   16.9998 C   0  0  0  0  0  0  0  0  0  0  0  0
    9.2512    4.2713   13.7653 O   0  0  0  0  0  0  0  0  0  0  0  0
    9.6495    8.6317   16.8332 N   0  0  0  0  0  0  0  0  0  0  0  0
    6.2934    8.6988   23.1988 O   0  0  0  0  0  0  0  0  0  0  0  0
    7.9806    8.6543   20.5437 C   0  0  0  0  0  0  0  0  0  0  0  0
   13.7270    5.7144   19.8610 O   0  0  0  0  0  0  0  0  0  0  0  0
    8.3351    5.5235   15.4478 C   0  0  0  0  0  0  0  0  0  0  0  0
    8.7700    7.8434   21.3915 C   0  0  0  0  0  0  0  0  0  0  0  0
   11.7856    6.8851   19.2401 C   0  0  0  0  0  0  0  0  0  0  0  0
   10.5281    7.4276   19.5649 C   0  0  0  0  0  0  0  0  0  0  0  0
   10.0256    7.2907   20.8484 C   0  0  0  0  0  0  0  0  0  0  0  0
    9.3113    5.3049   14.4911 C   0  0  0  0  0  0  0  0  0  0  0  0
    9.4607    7.5646   16.0139 C   0  0  0  0  0  0  0  0  0  0  0  0
   10.4192    7.3157   15.0955 C   0  0  0  0  0  0  0  0  0  0  0  0
   10.2489    6.4227   23.0218 N   0  0  0  0  0  0  0  0  0  0  0  0
    7.2472    8.0746   23.5050 C   0  0  0  0  0  0  0  0  0  0  0  0
    9.2051    6.9101   23.4604 C   0  0  0  0  0  0  0  0  0  0  0  0
   11.9646    6.0299   21.4251 C   0  0  0  0  0  0  0  0  0  0  0  0
  1  5  1  0
  1 13  1  0
  2 20  2  0
  2 28  1  0
  2 29  1  0
  3 19  4  0
  3 25  4  0
  4 23  4  0
  4 27  1  0
  4 30  4  0
  5 17  1  0
  6  8  1  0
  6 29  1  0
  7 24  4  0
  7 26  4  0
  8 28  1  0
  9 13  2  0
 10 18  1  0
 10 21  4  0
 10 30  4  0
 11 17  2  0
 12 18  1  0
 13 15  1  0
 14 24  1  0
 15 25  1  0
 16 28  2  0
 17 20  1  0
 19 24  4  0
 20 23  1  0
 21 22  4  0
 22 23  4  0
 25 26  4  0
 27 29  2  0
M  END
$$$$

 Created by Python create_sdf_string function

 30 33  0  0  0  0  0  0  0  0999 V2000
    8.3036    9.8571   18.4133 C   0  0  0  0  0  0  0  0  0  0  0  0
    8.3694    7.6612   22.6703 C   0  0  0  0  0  0  0  0  0  0  0  0
    8.4143    6.6863   16.2273 C   0  0  0  0  0  0  0  0  0  0  0  0
   10.7581    6.5674   21.7636 C   0  0  0  0  0  0  0  0  0  0  0  0
    8.4452    8.7960   19.2958 O   0  0  0  0  0  0  0  0  0  0  0  0
    8.7122    6.7842   24.8569 C   0  0  0  0  0  0  0  0  0  0  0  0
   10.3400    6.1726   14.3081 C   0  0  0  0  0  0  0  0  0  0  0  0
    7.4297    7.5873   24.8962 C   0  0  0  0  0  0  0  0  0  0  0  0
    8.1566   10.0536   16.0516 O   0  0  0  0  0  0  0  0  0  0  0  0
   12.4989    6.2074   20.1776 C   0  0  0  0  0  0  0  0  0  0  0  0
    6.9192    9.1053   20.9073 O   0  0  0  0  0  0  0  0  0  0  0  0
   14.3979    6.0729   18.7784 C   0  0  0  0  0  0  0  0  0  0  0  0
    8.6811    9.5354   16.9998 C   0  0  0  0  0  0  0  0  0  0  0  0
    9.2512    4.2713   13.7653 O   0  0  0  0  0  0  0  0  0  0  0  0
    9.6495    8.6317   16.8332 N   0  0  0  0  0  0  0  0  0  0  0  0
    6.2934    8.6988   23.1988 O   0  0  0  0  0  0  0  0  0  0  0  0
    7.9806    8.6543   20.5437 C   0  0  0  0  0  0  0  0  0  0  0  0
   13.7270    5.7144   19.8610 O   0  0  0  0  0  0  0  0  0  0  0  0
    8.3351    5.5235   15.4478 C   0  0  0  0  0  0  0  0  0  0  0  0
    8.7700    7.8434   21.3915 C   0  0  0  0  0  0  0  0  0  0  0  0
   11.7856    6.8851   19.2401 C   0  0  0  0  0  0  0  0  0  0  0  0
   10.5281    7.4276   19.5649 C   0  0  0  0  0  0  0  0  0  0  0  0
   10.0256    7.2907   20.8484 C   0  0  0  0  0  0  0  0  0  0  0  0
    9.3113    5.3049   14.4911 C   0  0  0  0  0  0  0  0  0  0  0  0
    9.4607    7.5646   16.0139 C   0  0  0  0  0  0  0  0  0  0  0  0
   10.4192    7.3157   15.0955 C   0  0  0  0  0  0  0  0  0  0  0  0
   10.2489    6.4227   23.0218 N   0  0  0  0  0  0  0  0  0  0  0  0
    7.2472    8.0746   23.5050 C   0  0  0  0  0  0  0  0  0  0  0  0
    9.2051    6.9101   23.4604 C   0  0  0  0  0  0  0  0  0  0  0  0
   11.9646    6.0299   21.4251 C   0  0  0  0  0  0  0  0  0  0  0  0
  1  5  1  0
  1 13  1  0
  2 20  2  0
  2 28  1  0
  2 29  1  0
  3 19  4  0
  3 25  4  0
  4 23  4  0
  4 27  1  0
  4 30  4  0
  5 17  1  0
  6  8  1  0
  6 29  1  0
  7 24  4  0
  7 26  4  0
  8 28  1  0
  9 13  2  0
 10 18  1  0
 10 21  4  0
 10 30  4  0
 11 17  2  0
 12 18  1  0
 13 15  1  0
 14 24  1  0
 15 25  1  0
 16 28  2  0
 17 20  1  0
 19 24  4  0
 20 23  1  0
 21 22  4  0
 22 23  4  0
 25 26  4  0
 27 29  2  0
M  END
$$$$

 Created by Python create_sdf_string function

 30 33  0  0  0  0  0  0  0  0999 V2000
    8.3036    9.8571   18.4133 C   0  0  0  0  0  0  0  0  0  0  0  0
    8.3694    7.6612   22.6703 C   0  0  0  0  0  0  0  0  0  0  0  0
    8.4143    6.6863   16.2273 C   0  0  0  0  0  0  0  0  0  0  0  0
   10.7581    6.5674   21.7636 C   0  0  0  0  0  0  0  0  0  0  0  0
    8.4452    8.7960   19.2958 O   0  0  0  0  0  0  0  0  0  0  0  0
    8.7122    6.7842   24.8569 C   0  0  0  0  0  0  0  0  0  0  0  0
   10.3400    6.1726   14.3081 C   0  0  0  0  0  0  0  0  0  0  0  0
    7.4297    7.5873   24.8962 C   0  0  0  0  0  0  0  0  0  0  0  0
    8.1566   10.0536   16.0516 O   0  0  0  0  0  0  0  0  0  0  0  0
   12.4989    6.2074   20.1776 C   0  0  0  0  0  0  0  0  0  0  0  0
    6.9192    9.1053   20.9073 O   0  0  0  0  0  0  0  0  0  0  0  0
   14.3979    6.0729   18.7784 C   0  0  0  0  0  0  0  0  0  0  0  0
    8.6811    9.5354   16.9998 C   0  0  0  0  0  0  0  0  0  0  0  0
    9.2512    4.2713   13.7653 O   0  0  0  0  0  0  0  0  0  0  0  0
    9.6495    8.6317   16.8332 N   0  0  0  0  0  0  0  0  0  0  0  0
    6.2934    8.6988   23.1988 O   0  0  0  0  0  0  0  0  0  0  0  0
    7.9806    8.6543   20.5437 C   0  0  0  0  0  0  0  0  0  0  0  0
   13.7270    5.7144   19.8610 O   0  0  0  0  0  0  0  0  0  0  0  0
    8.3351    5.5235   15.4478 C   0  0  0  0  0  0  0  0  0  0  0  0
    8.7700    7.8434   21.3915 C   0  0  0  0  0  0  0  0  0  0  0  0
   11.7856    6.8851   19.2401 C   0  0  0  0  0  0  0  0  0  0  0  0
   10.5281    7.4276   19.5649 C   0  0  0  0  0  0  0  0  0  0  0  0
   10.0256    7.2907   20.8484 C   0  0  0  0  0  0  0  0  0  0  0  0
    9.3113    5.3049   14.4911 C   0  0  0  0  0  0  0  0  0  0  0  0
    9.4607    7.5646   16.0139 C   0  0  0  0  0  0  0  0  0  0  0  0
   10.4192    7.3157   15.0955 C   0  0  0  0  0  0  0  0  0  0  0  0
   10.2489    6.4227   23.0218 N   0  0  0  0  0  0  0  0  0  0  0  0
    7.2472    8.0746   23.5050 C   0  0  0  0  0  0  0  0  0  0  0  0
    9.2051    6.9101   23.4604 C   0  0  0  0  0  0  0  0  0  0  0  0
   11.9646    6.0299   21.4251 C   0  0  0  0  0  0  0  0  0  0  0  0
  1  5  1  0
  1 13  1  0
  2 20  2  0
  2 28  1  0
  2 29  1  0
  3 19  4  0
  3 25  4  0
  4 23  4  0
  4 27  1  0
  4 30  4  0
  5 17  1  0
  6  8  1  0
  6 29  1  0
  7 24  4  0
  7 26  4  0
  8 28  1  0
  9 13  2  0
 10 18  1  0
 10 21  4  0
 10 30  4  0
 11 17  2  0
 12 18  1  0
 13 15  1  0
 14 24  1  0
 15 25  1  0
 16 28  2  0
 17 20  1  0
 19 24  4  0
 20 23  1  0
 21 22  4  0
 22 23  4  0
 25 26  4  0
 27 29  2  0
M  END
$$$$

 Created by Python create_sdf_string function

 30 33  0  0  0  0  0  0  0  0999 V2000
    8.3036    9.8571   18.4133 C   0  0  0  0  0  0  0  0  0  0  0  0
    8.3694    7.6612   22.6703 C   0  0  0  0  0  0  0  0  0  0  0  0
    8.4143    6.6863   16.2273 C   0  0  0  0  0  0  0  0  0  0  0  0
   10.7581    6.5674   21.7636 C   0  0  0  0  0  0  0  0  0  0  0  0
    8.4452    8.7960   19.2958 O   0  0  0  0  0  0  0  0  0  0  0  0
    8.7122    6.7842   24.8569 C   0  0  0  0  0  0  0  0  0  0  0  0
   10.3400    6.1726   14.3081 C   0  0  0  0  0  0  0  0  0  0  0  0
    7.4297    7.5873   24.8962 C   0  0  0  0  0  0  0  0  0  0  0  0
    8.1566   10.0536   16.0516 O   0  0  0  0  0  0  0  0  0  0  0  0
   12.4989    6.2074   20.1776 C   0  0  0  0  0  0  0  0  0  0  0  0
    6.9192    9.1053   20.9073 O   0  0  0  0  0  0  0  0  0  0  0  0
   14.3979    6.0729   18.7784 C   0  0  0  0  0  0  0  0  0  0  0  0
    8.6811    9.5354   16.9998 C   0  0  0  0  0  0  0  0  0  0  0  0
    9.2512    4.2713   13.7653 O   0  0  0  0  0  0  0  0  0  0  0  0
    9.6495    8.6317   16.8332 N   0  0  0  0  0  0  0  0  0  0  0  0
    6.2934    8.6988   23.1988 O   0  0  0  0  0  0  0  0  0  0  0  0
    7.9806    8.6543   20.5437 C   0  0  0  0  0  0  0  0  0  0  0  0
   13.7270    5.7144   19.8610 O   0  0  0  0  0  0  0  0  0  0  0  0
    8.3351    5.5235   15.4478 C   0  0  0  0  0  0  0  0  0  0  0  0
    8.7700    7.8434   21.3915 C   0  0  0  0  0  0  0  0  0  0  0  0
   11.7856    6.8851   19.2401 C   0  0  0  0  0  0  0  0  0  0  0  0
   10.5281    7.4276   19.5649 C   0  0  0  0  0  0  0  0  0  0  0  0
   10.0256    7.2907   20.8484 C   0  0  0  0  0  0  0  0  0  0  0  0
    9.3113    5.3049   14.4911 C   0  0  0  0  0  0  0  0  0  0  0  0
    9.4607    7.5646   16.0139 C   0  0  0  0  0  0  0  0  0  0  0  0
   10.4192    7.3157   15.0955 C   0  0  0  0  0  0  0  0  0  0  0  0
   10.2489    6.4227   23.0218 N   0  0  0  0  0  0  0  0  0  0  0  0
    7.2472    8.0746   23.5050 C   0  0  0  0  0  0  0  0  0  0  0  0
    9.2051    6.9101   23.4604 C   0  0  0  0  0  0  0  0  0  0  0  0
   11.9646    6.0299   21.4251 C   0  0  0  0  0  0  0  0  0  0  0  0
  1  5  1  0
  1 13  1  0
  2 20  2  0
  2 28  1  0
  2 29  1  0
  3 19  4  0
  3 25  4  0
  4 23  4  0
  4 27  1  0
  4 30  4  0
  5 17  1  0
  6  8  1  0
  6 29  1  0
  7 24  4  0
  7 26  4  0
  8 28  1  0
  9 13  2  0
 10 18  1  0
 10 21  4  0
 10 30  4  0
 11 17  2  0
 12 18  1  0
 13 15  1  0
 14 24  1  0
 15 25  1  0
 16 28  2  0
 17 20  1  0
 19 24  4  0
 20 23  1  0
 21 22  4  0
 22 23  4  0
 25 26  4  0
 27 29  2  0
M  END
$$$$

 Created by Python create_sdf_string function

 30 33  0  0  0  0  0  0  0  0999 V2000
    8.3036    9.8571   18.4133 C   0  0  0  0  0  0  0  0  0  0  0  0
    8.3694    7.6612   22.6703 C   0  0  0  0  0  0  0  0  0  0  0  0
    8.4143    6.6863   16.2273 C   0  0  0  0  0  0  0  0  0  0  0  0
   10.7581    6.5674   21.7636 C   0  0  0  0  0  0  0  0  0  0  0  0
    8.4452    8.7960   19.2958 O   0  0  0  0  0  0  0  0  0  0  0  0
    8.7122    6.7842   24.8569 C   0  0  0  0  0  0  0  0  0  0  0  0
   10.3400    6.1726   14.3081 C   0  0  0  0  0  0  0  0  0  0  0  0
    7.4297    7.5873   24.8962 C   0  0  0  0  0  0  0  0  0  0  0  0
    8.1566   10.0536   16.0516 O   0  0  0  0  0  0  0  0  0  0  0  0
   12.4989    6.2074   20.1776 C   0  0  0  0  0  0  0  0  0  0  0  0
    6.9192    9.1053   20.9073 O   0  0  0  0  0  0  0  0  0  0  0  0
   14.3979    6.0729   18.7784 C   0  0  0  0  0  0  0  0  0  0  0  0
    8.6811    9.5354   16.9998 C   0  0  0  0  0  0  0  0  0  0  0  0
    9.2512    4.2713   13.7653 O   0  0  0  0  0  0  0  0  0  0  0  0
    9.6495    8.6317   16.8332 N   0  0  0  0  0  0  0  0  0  0  0  0
    6.2934    8.6988   23.1988 O   0  0  0  0  0  0  0  0  0  0  0  0
    7.9806    8.6543   20.5437 C   0  0  0  0  0  0  0  0  0  0  0  0
   13.7270    5.7144   19.8610 O   0  0  0  0  0  0  0  0  0  0  0  0
    8.3351    5.5235   15.4478 C   0  0  0  0  0  0  0  0  0  0  0  0
    8.7700    7.8434   21.3915 C   0  0  0  0  0  0  0  0  0  0  0  0
   11.7856    6.8851   19.2401 C   0  0  0  0  0  0  0  0  0  0  0  0
   10.5281    7.4276   19.5649 C   0  0  0  0  0  0  0  0  0  0  0  0
   10.0256    7.2907   20.8484 C   0  0  0  0  0  0  0  0  0  0  0  0
    9.3113    5.3049   14.4911 C   0  0  0  0  0  0  0  0  0  0  0  0
    9.4607    7.5646   16.0139 C   0  0  0  0  0  0  0  0  0  0  0  0
   10.4192    7.3157   15.0955 C   0  0  0  0  0  0  0  0  0  0  0  0
   10.2489    6.4227   23.0218 N   0  0  0  0  0  0  0  0  0  0  0  0
    7.2472    8.0746   23.5050 C   0  0  0  0  0  0  0  0  0  0  0  0
    9.2051    6.9101   23.4604 C   0  0  0  0  0  0  0  0  0  0  0  0
   11.9646    6.0299   21.4251 C   0  0  0  0  0  0  0  0  0  0  0  0
  1  5  1  0
  1 13  1  0
  2 20  2  0
  2 28  1  0
  2 29  1  0
  3 19  4  0
  3 25  4  0
  4 23  4  0
  4 27  1  0
  4 30  4  0
  5 17  1  0
  6  8  1  0
  6 29  1  0
  7 24  4  0
  7 26  4  0
  8 28  1  0
  9 13  2  0
 10 18  1  0
 10 21  4  0
 10 30  4  0
 11 17  2  0
 12 18  1  0
 13 15  1  0
 14 24  1  0
 15 25  1  0
 16 28  2  0
 17 20  1  0
 19 24  4  0
 20 23  1  0
 21 22  4  0
 22 23  4  0
 25 26  4  0
 27 29  2  0
M  END
$$$$

 Created by Python create_sdf_string function

 30 33  0  0  0  0  0  0  0  0999 V2000
    8.3036    9.8571   18.4133 C   0  0  0  0  0  0  0  0  0  0  0  0
    8.3694    7.6612   22.6703 C   0  0  0  0  0  0  0  0  0  0  0  0
    8.4143    6.6863   16.2273 C   0  0  0  0  0  0  0  0  0  0  0  0
   10.7581    6.5674   21.7636 C   0  0  0  0  0  0  0  0  0  0  0  0
    8.4452    8.7960   19.2958 O   0  0  0  0  0  0  0  0  0  0  0  0
    8.7122    6.7842   24.8569 C   0  0  0  0  0  0  0  0  0  0  0  0
   10.3400    6.1726   14.3081 C   0  0  0  0  0  0  0  0  0  0  0  0
    7.4297    7.5873   24.8962 C   0  0  0  0  0  0  0  0  0  0  0  0
    8.1566   10.0536   16.0516 O   0  0  0  0  0  0  0  0  0  0  0  0
   12.4989    6.2074   20.1776 C   0  0  0  0  0  0  0  0  0  0  0  0
    6.9192    9.1053   20.9073 O   0  0  0  0  0  0  0  0  0  0  0  0
   14.3979    6.0729   18.7784 C   0  0  0  0  0  0  0  0  0  0  0  0
    8.6811    9.5354   16.9998 C   0  0  0  0  0  0  0  0  0  0  0  0
    9.2512    4.2713   13.7653 O   0  0  0  0  0  0  0  0  0  0  0  0
    9.6495    8.6317   16.8332 N   0  0  0  0  0  0  0  0  0  0  0  0
    6.2934    8.6988   23.1988 O   0  0  0  0  0  0  0  0  0  0  0  0
    7.9806    8.6543   20.5437 C   0  0  0  0  0  0  0  0  0  0  0  0
   13.7270    5.7144   19.8610 O   0  0  0  0  0  0  0  0  0  0  0  0
    8.3351    5.5235   15.4478 C   0  0  0  0  0  0  0  0  0  0  0  0
    8.7700    7.8434   21.3915 C   0  0  0  0  0  0  0  0  0  0  0  0
   11.7856    6.8851   19.2401 C   0  0  0  0  0  0  0  0  0  0  0  0
   10.5281    7.4276   19.5649 C   0  0  0  0  0  0  0  0  0  0  0  0
   10.0256    7.2907   20.8484 C   0  0  0  0  0  0  0  0  0  0  0  0
    9.3113    5.3049   14.4911 C   0  0  0  0  0  0  0  0  0  0  0  0
    9.4607    7.5646   16.0139 C   0  0  0  0  0  0  0  0  0  0  0  0
   10.4192    7.3157   15.0955 C   0  0  0  0  0  0  0  0  0  0  0  0
   10.2489    6.4227   23.0218 N   0  0  0  0  0  0  0  0  0  0  0  0
    7.2472    8.0746   23.5050 C   0  0  0  0  0  0  0  0  0  0  0  0
    9.2051    6.9101   23.4604 C   0  0  0  0  0  0  0  0  0  0  0  0
   11.9646    6.0299   21.4251 C   0  0  0  0  0  0  0  0  0  0  0  0
  1  5  1  0
  1 13  1  0
  2 20  2  0
  2 28  1  0
  2 29  1  0
  3 19  4  0
  3 25  4  0
  4 23  4  0
  4 27  1  0
  4 30  4  0
  5 17  1  0
  6  8  1  0
  6 29  1  0
  7 24  4  0
  7 26  4  0
  8 28  1  0
  9 13  2  0
 10 18  1  0
 10 21  4  0
 10 30  4  0
 11 17  2  0
 12 18  1  0
 13 15  1  0
 14 24  1  0
 15 25  1  0
 16 28  2  0
 17 20  1  0
 19 24  4  0
 20 23  1  0
 21 22  4  0
 22 23  4  0
 25 26  4  0
 27 29  2  0
M  END
$$$$

 Created by Python create_sdf_string function

 30 33  0  0  0  0  0  0  0  0999 V2000
    8.3036    9.8571   18.4133 C   0  0  0  0  0  0  0  0  0  0  0  0
    8.3694    7.6612   22.6703 C   0  0  0  0  0  0  0  0  0  0  0  0
    8.4143    6.6863   16.2273 C   0  0  0  0  0  0  0  0  0  0  0  0
   10.7581    6.5674   21.7636 C   0  0  0  0  0  0  0  0  0  0  0  0
    8.4452    8.7960   19.2958 O   0  0  0  0  0  0  0  0  0  0  0  0
    8.7122    6.7842   24.8569 C   0  0  0  0  0  0  0  0  0  0  0  0
   10.3400    6.1726   14.3081 C   0  0  0  0  0  0  0  0  0  0  0  0
    7.4297    7.5873   24.8962 C   0  0  0  0  0  0  0  0  0  0  0  0
    8.1566   10.0536   16.0516 O   0  0  0  0  0  0  0  0  0  0  0  0
   12.4989    6.2074   20.1776 C   0  0  0  0  0  0  0  0  0  0  0  0
    6.9192    9.1053   20.9073 O   0  0  0  0  0  0  0  0  0  0  0  0
   14.3979    6.0729   18.7784 C   0  0  0  0  0  0  0  0  0  0  0  0
    8.6811    9.5354   16.9998 C   0  0  0  0  0  0  0  0  0  0  0  0
    9.2512    4.2713   13.7653 O   0  0  0  0  0  0  0  0  0  0  0  0
    9.6495    8.6317   16.8332 N   0  0  0  0  0  0  0  0  0  0  0  0
    6.2934    8.6988   23.1988 O   0  0  0  0  0  0  0  0  0  0  0  0
    7.9806    8.6543   20.5437 C   0  0  0  0  0  0  0  0  0  0  0  0
   13.7270    5.7144   19.8610 O   0  0  0  0  0  0  0  0  0  0  0  0
    8.3351    5.5235   15.4478 C   0  0  0  0  0  0  0  0  0  0  0  0
    8.7700    7.8434   21.3915 C   0  0  0  0  0  0  0  0  0  0  0  0
   11.7856    6.8851   19.2401 C   0  0  0  0  0  0  0  0  0  0  0  0
   10.5281    7.4276   19.5649 C   0  0  0  0  0  0  0  0  0  0  0  0
   10.0256    7.2907   20.8484 C   0  0  0  0  0  0  0  0  0  0  0  0
    9.3113    5.3049   14.4911 C   0  0  0  0  0  0  0  0  0  0  0  0
    9.4607    7.5646   16.0139 C   0  0  0  0  0  0  0  0  0  0  0  0
   10.4192    7.3157   15.0955 C   0  0  0  0  0  0  0  0  0  0  0  0
   10.2489    6.4227   23.0218 N   0  0  0  0  0  0  0  0  0  0  0  0
    7.2472    8.0746   23.5050 C   0  0  0  0  0  0  0  0  0  0  0  0
    9.2051    6.9101   23.4604 C   0  0  0  0  0  0  0  0  0  0  0  0
   11.9646    6.0299   21.4251 C   0  0  0  0  0  0  0  0  0  0  0  0
  1  5  1  0
  1 13  1  0
  2 20  2  0
  2 28  1  0
  2 29  1  0
  3 19  4  0
  3 25  4  0
  4 23  4  0
  4 27  1  0
  4 30  4  0
  5 17  1  0
  6  8  1  0
  6 29  1  0
  7 24  4  0
  7 26  4  0
  8 28  1  0
  9 13  2  0
 10 18  1  0
 10 21  4  0
 10 30  4  0
 11 17  2  0
 12 18  1  0
 13 15  1  0
 14 24  1  0
 15 25  1  0
 16 28  2  0
 17 20  1  0
 19 24  4  0
 20 23  1  0
 21 22  4  0
 22 23  4  0
 25 26  4  0
 27 29  2  0
M  END
$$$$

 Created by Python create_sdf_string function

 30 33  0  0  0  0  0  0  0  0999 V2000
    8.3036    9.8571   18.4133 C   0  0  0  0  0  0  0  0  0  0  0  0
    8.3694    7.6612   22.6703 C   0  0  0  0  0  0  0  0  0  0  0  0
    8.4143    6.6863   16.2273 C   0  0  0  0  0  0  0  0  0  0  0  0
   10.7581    6.5674   21.7636 C   0  0  0  0  0  0  0  0  0  0  0  0
    8.4452    8.7960   19.2958 O   0  0  0  0  0  0  0  0  0  0  0  0
    8.7122    6.7842   24.8569 C   0  0  0  0  0  0  0  0  0  0  0  0
   10.3400    6.1726   14.3081 C   0  0  0  0  0  0  0  0  0  0  0  0
    7.4297    7.5873   24.8962 C   0  0  0  0  0  0  0  0  0  0  0  0
    8.1566   10.0536   16.0516 O   0  0  0  0  0  0  0  0  0  0  0  0
   12.4989    6.2074   20.1776 C   0  0  0  0  0  0  0  0  0  0  0  0
    6.9192    9.1053   20.9073 O   0  0  0  0  0  0  0  0  0  0  0  0
   14.3979    6.0729   18.7784 C   0  0  0  0  0  0  0  0  0  0  0  0
    8.6811    9.5354   16.9998 C   0  0  0  0  0  0  0  0  0  0  0  0
    9.2512    4.2713   13.7653 O   0  0  0  0  0  0  0  0  0  0  0  0
    9.6495    8.6317   16.8332 N   0  0  0  0  0  0  0  0  0  0  0  0
    6.2934    8.6988   23.1988 O   0  0  0  0  0  0  0  0  0  0  0  0
    7.9806    8.6543   20.5437 C   0  0  0  0  0  0  0  0  0  0  0  0
   13.7270    5.7144   19.8610 O   0  0  0  0  0  0  0  0  0  0  0  0
    8.3351    5.5235   15.4478 C   0  0  0  0  0  0  0  0  0  0  0  0
    8.7700    7.8434   21.3915 C   0  0  0  0  0  0  0  0  0  0  0  0
   11.7856    6.8851   19.2401 C   0  0  0  0  0  0  0  0  0  0  0  0
   10.5281    7.4276   19.5649 C   0  0  0  0  0  0  0  0  0  0  0  0
   10.0256    7.2907   20.8484 C   0  0  0  0  0  0  0  0  0  0  0  0
    9.3113    5.3049   14.4911 C   0  0  0  0  0  0  0  0  0  0  0  0
    9.4607    7.5646   16.0139 C   0  0  0  0  0  0  0  0  0  0  0  0
   10.4192    7.3157   15.0955 C   0  0  0  0  0  0  0  0  0  0  0  0
   10.2489    6.4227   23.0218 N   0  0  0  0  0  0  0  0  0  0  0  0
    7.2472    8.0746   23.5050 C   0  0  0  0  0  0  0  0  0  0  0  0
    9.2051    6.9101   23.4604 C   0  0  0  0  0  0  0  0  0  0  0  0
   11.9646    6.0299   21.4251 C   0  0  0  0  0  0  0  0  0  0  0  0
  1  5  1  0
  1 13  1  0
  2 20  2  0
  2 28  1  0
  2 29  1  0
  3 19  4  0
  3 25  4  0
  4 23  4  0
  4 27  1  0
  4 30  4  0
  5 17  1  0
  6  8  1  0
  6 29  1  0
  7 24  4  0
  7 26  4  0
  8 28  1  0
  9 13  2  0
 10 18  1  0
 10 21  4  0
 10 30  4  0
 11 17  2  0
 12 18  1  0
 13 15  1  0
 14 24  1  0
 15 25  1  0
 16 28  2  0
 17 20  1  0
 19 24  4  0
 20 23  1  0
 21 22  4  0
 22 23  4  0
 25 26  4  0
 27 29  2  0
M  END
$$$$

 Created by Python create_sdf_string function

 30 33  0  0  0  0  0  0  0  0999 V2000
    8.3036    9.8571   18.4133 C   0  0  0  0  0  0  0  0  0  0  0  0
    8.3694    7.6612   22.6703 C   0  0  0  0  0  0  0  0  0  0  0  0
    8.4143    6.6863   16.2273 C   0  0  0  0  0  0  0  0  0  0  0  0
   10.7581    6.5674   21.7636 C   0  0  0  0  0  0  0  0  0  0  0  0
    8.4452    8.7960   19.2958 O   0  0  0  0  0  0  0  0  0  0  0  0
    8.7122    6.7842   24.8569 C   0  0  0  0  0  0  0  0  0  0  0  0
   10.3400    6.1726   14.3081 C   0  0  0  0  0  0  0  0  0  0  0  0
    7.4297    7.5873   24.8962 C   0  0  0  0  0  0  0  0  0  0  0  0
    8.1566   10.0536   16.0516 O   0  0  0  0  0  0  0  0  0  0  0  0
   12.4989    6.2074   20.1776 C   0  0  0  0  0  0  0  0  0  0  0  0
    6.9192    9.1053   20.9073 O   0  0  0  0  0  0  0  0  0  0  0  0
   14.3979    6.0729   18.7784 C   0  0  0  0  0  0  0  0  0  0  0  0
    8.6811    9.5354   16.9998 C   0  0  0  0  0  0  0  0  0  0  0  0
    9.2512    4.2713   13.7653 O   0  0  0  0  0  0  0  0  0  0  0  0
    9.6495    8.6317   16.8332 N   0  0  0  0  0  0  0  0  0  0  0  0
    6.2934    8.6988   23.1988 O   0  0  0  0  0  0  0  0  0  0  0  0
    7.9806    8.6543   20.5437 C   0  0  0  0  0  0  0  0  0  0  0  0
   13.7270    5.7144   19.8610 O   0  0  0  0  0  0  0  0  0  0  0  0
    8.3351    5.5235   15.4478 C   0  0  0  0  0  0  0  0  0  0  0  0
    8.7700    7.8434   21.3915 C   0  0  0  0  0  0  0  0  0  0  0  0
   11.7856    6.8851   19.2401 C   0  0  0  0  0  0  0  0  0  0  0  0
   10.5281    7.4276   19.5649 C   0  0  0  0  0  0  0  0  0  0  0  0
   10.0256    7.2907   20.8484 C   0  0  0  0  0  0  0  0  0  0  0  0
    9.3113    5.3049   14.4911 C   0  0  0  0  0  0  0  0  0  0  0  0
    9.4607    7.5646   16.0139 C   0  0  0  0  0  0  0  0  0  0  0  0
   10.4192    7.3157   15.0955 C   0  0  0  0  0  0  0  0  0  0  0  0
   10.2489    6.4227   23.0218 N   0  0  0  0  0  0  0  0  0  0  0  0
    7.2472    8.0746   23.5050 C   0  0  0  0  0  0  0  0  0  0  0  0
    9.2051    6.9101   23.4604 C   0  0  0  0  0  0  0  0  0  0  0  0
   11.9646    6.0299   21.4251 C   0  0  0  0  0  0  0  0  0  0  0  0
  1  5  1  0
  1 13  1  0
  2 20  2  0
  2 28  1  0
  2 29  1  0
  3 19  4  0
  3 25  4  0
  4 23  4  0
  4 27  1  0
  4 30  4  0
  5 17  1  0
  6  8  1  0
  6 29  1  0
  7 24  4  0
  7 26  4  0
  8 28  1  0
  9 13  2  0
 10 18  1  0
 10 21  4  0
 10 30  4  0
 11 17  2  0
 12 18  1  0
 13 15  1  0
 14 24  1  0
 15 25  1  0
 16 28  2  0
 17 20  1  0
 19 24  4  0
 20 23  1  0
 21 22  4  0
 22 23  4  0
 25 26  4  0
 27 29  2  0
M  END
$$$$

 Created by Python create_sdf_string function

 30 33  0  0  0  0  0  0  0  0999 V2000
    8.3036    9.8571   18.4133 C   0  0  0  0  0  0  0  0  0  0  0  0
    8.3694    7.6612   22.6703 C   0  0  0  0  0  0  0  0  0  0  0  0
    8.4143    6.6863   16.2273 C   0  0  0  0  0  0  0  0  0  0  0  0
   10.7581    6.5674   21.7636 C   0  0  0  0  0  0  0  0  0  0  0  0
    8.4452    8.7960   19.2958 O   0  0  0  0  0  0  0  0  0  0  0  0
    8.7122    6.7842   24.8569 C   0  0  0  0  0  0  0  0  0  0  0  0
   10.3400    6.1726   14.3081 C   0  0  0  0  0  0  0  0  0  0  0  0
    7.4297    7.5873   24.8962 C   0  0  0  0  0  0  0  0  0  0  0  0
    8.1566   10.0536   16.0516 O   0  0  0  0  0  0  0  0  0  0  0  0
   12.4989    6.2074   20.1776 C   0  0  0  0  0  0  0  0  0  0  0  0
    6.9192    9.1053   20.9073 O   0  0  0  0  0  0  0  0  0  0  0  0
   14.3979    6.0729   18.7784 C   0  0  0  0  0  0  0  0  0  0  0  0
    8.6811    9.5354   16.9998 C   0  0  0  0  0  0  0  0  0  0  0  0
    9.2512    4.2713   13.7653 O   0  0  0  0  0  0  0  0  0  0  0  0
    9.6495    8.6317   16.8332 N   0  0  0  0  0  0  0  0  0  0  0  0
    6.2934    8.6988   23.1988 O   0  0  0  0  0  0  0  0  0  0  0  0
    7.9806    8.6543   20.5437 C   0  0  0  0  0  0  0  0  0  0  0  0
   13.7270    5.7144   19.8610 O   0  0  0  0  0  0  0  0  0  0  0  0
    8.3351    5.5235   15.4478 C   0  0  0  0  0  0  0  0  0  0  0  0
    8.7700    7.8434   21.3915 C   0  0  0  0  0  0  0  0  0  0  0  0
   11.7856    6.8851   19.2401 C   0  0  0  0  0  0  0  0  0  0  0  0
   10.5281    7.4276   19.5649 C   0  0  0  0  0  0  0  0  0  0  0  0
   10.0256    7.2907   20.8484 C   0  0  0  0  0  0  0  0  0  0  0  0
    9.3113    5.3049   14.4911 C   0  0  0  0  0  0  0  0  0  0  0  0
    9.4607    7.5646   16.0139 C   0  0  0  0  0  0  0  0  0  0  0  0
   10.4192    7.3157   15.0955 C   0  0  0  0  0  0  0  0  0  0  0  0
   10.2489    6.4227   23.0218 N   0  0  0  0  0  0  0  0  0  0  0  0
    7.2472    8.0746   23.5050 C   0  0  0  0  0  0  0  0  0  0  0  0
    9.2051    6.9101   23.4604 C   0  0  0  0  0  0  0  0  0  0  0  0
   11.9646    6.0299   21.4251 C   0  0  0  0  0  0  0  0  0  0  0  0
  1  5  1  0
  1 13  1  0
  2 20  2  0
  2 28  1  0
  2 29  1  0
  3 19  4  0
  3 25  4  0
  4 23  4  0
  4 27  1  0
  4 30  4  0
  5 17  1  0
  6  8  1  0
  6 29  1  0
  7 24  4  0
  7 26  4  0
  8 28  1  0
  9 13  2  0
 10 18  1  0
 10 21  4  0
 10 30  4  0
 11 17  2  0
 12 18  1  0
 13 15  1  0
 14 24  1  0
 15 25  1  0
 16 28  2  0
 17 20  1  0
 19 24  4  0
 20 23  1  0
 21 22  4  0
 22 23  4  0
 25 26  4  0
 27 29  2  0
M  END
$$$$

 Created by Python create_sdf_string function

 30 33  0  0  0  0  0  0  0  0999 V2000
    8.3036    9.8571   18.4133 C   0  0  0  0  0  0  0  0  0  0  0  0
    8.3694    7.6612   22.6703 C   0  0  0  0  0  0  0  0  0  0  0  0
    8.4143    6.6863   16.2273 C   0  0  0  0  0  0  0  0  0  0  0  0
   10.7581    6.5674   21.7636 C   0  0  0  0  0  0  0  0  0  0  0  0
    8.4452    8.7960   19.2958 O   0  0  0  0  0  0  0  0  0  0  0  0
    8.7122    6.7842   24.8569 C   0  0  0  0  0  0  0  0  0  0  0  0
   10.3400    6.1726   14.3081 C   0  0  0  0  0  0  0  0  0  0  0  0
    7.4297    7.5873   24.8962 C   0  0  0  0  0  0  0  0  0  0  0  0
    8.1566   10.0536   16.0516 O   0  0  0  0  0  0  0  0  0  0  0  0
   12.4989    6.2074   20.1776 C   0  0  0  0  0  0  0  0  0  0  0  0
    6.9192    9.1053   20.9073 O   0  0  0  0  0  0  0  0  0  0  0  0
   14.3979    6.0729   18.7784 C   0  0  0  0  0  0  0  0  0  0  0  0
    8.6811    9.5354   16.9998 C   0  0  0  0  0  0  0  0  0  0  0  0
    9.2512    4.2713   13.7653 O   0  0  0  0  0  0  0  0  0  0  0  0
    9.6495    8.6317   16.8332 N   0  0  0  0  0  0  0  0  0  0  0  0
    6.2934    8.6988   23.1988 O   0  0  0  0  0  0  0  0  0  0  0  0
    7.9806    8.6543   20.5437 C   0  0  0  0  0  0  0  0  0  0  0  0
   13.7270    5.7144   19.8610 O   0  0  0  0  0  0  0  0  0  0  0  0
    8.3351    5.5235   15.4478 C   0  0  0  0  0  0  0  0  0  0  0  0
    8.7700    7.8434   21.3915 C   0  0  0  0  0  0  0  0  0  0  0  0
   11.7856    6.8851   19.2401 C   0  0  0  0  0  0  0  0  0  0  0  0
   10.5281    7.4276   19.5649 C   0  0  0  0  0  0  0  0  0  0  0  0
   10.0256    7.2907   20.8484 C   0  0  0  0  0  0  0  0  0  0  0  0
    9.3113    5.3049   14.4911 C   0  0  0  0  0  0  0  0  0  0  0  0
    9.4607    7.5646   16.0139 C   0  0  0  0  0  0  0  0  0  0  0  0
   10.4192    7.3157   15.0955 C   0  0  0  0  0  0  0  0  0  0  0  0
   10.2489    6.4227   23.0218 N   0  0  0  0  0  0  0  0  0  0  0  0
    7.2472    8.0746   23.5050 C   0  0  0  0  0  0  0  0  0  0  0  0
    9.2051    6.9101   23.4604 C   0  0  0  0  0  0  0  0  0  0  0  0
   11.9646    6.0299   21.4251 C   0  0  0  0  0  0  0  0  0  0  0  0
  1  5  1  0
  1 13  1  0
  2 20  2  0
  2 28  1  0
  2 29  1  0
  3 19  4  0
  3 25  4  0
  4 23  4  0
  4 27  1  0
  4 30  4  0
  5 17  1  0
  6  8  1  0
  6 29  1  0
  7 24  4  0
  7 26  4  0
  8 28  1  0
  9 13  2  0
 10 18  1  0
 10 21  4  0
 10 30  4  0
 11 17  2  0
 12 18  1  0
 13 15  1  0
 14 24  1  0
 15 25  1  0
 16 28  2  0
 17 20  1  0
 19 24  4  0
 20 23  1  0
 21 22  4  0
 22 23  4  0
 25 26  4  0
 27 29  2  0
M  END
$$$$

 Created by Python create_sdf_string function

 30 33  0  0  0  0  0  0  0  0999 V2000
    8.3036    9.8571   18.4133 C   0  0  0  0  0  0  0  0  0  0  0  0
    8.3694    7.6612   22.6703 C   0  0  0  0  0  0  0  0  0  0  0  0
    8.4143    6.6863   16.2273 C   0  0  0  0  0  0  0  0  0  0  0  0
   10.7581    6.5674   21.7636 C   0  0  0  0  0  0  0  0  0  0  0  0
    8.4452    8.7960   19.2958 O   0  0  0  0  0  0  0  0  0  0  0  0
    8.7122    6.7842   24.8569 C   0  0  0  0  0  0  0  0  0  0  0  0
   10.3400    6.1726   14.3081 C   0  0  0  0  0  0  0  0  0  0  0  0
    7.4297    7.5873   24.8962 C   0  0  0  0  0  0  0  0  0  0  0  0
    8.1566   10.0536   16.0516 O   0  0  0  0  0  0  0  0  0  0  0  0
   12.4989    6.2074   20.1776 C   0  0  0  0  0  0  0  0  0  0  0  0
    6.9192    9.1053   20.9073 O   0  0  0  0  0  0  0  0  0  0  0  0
   14.3979    6.0729   18.7784 C   0  0  0  0  0  0  0  0  0  0  0  0
    8.6811    9.5354   16.9998 C   0  0  0  0  0  0  0  0  0  0  0  0
    9.2512    4.2713   13.7653 O   0  0  0  0  0  0  0  0  0  0  0  0
    9.6495    8.6317   16.8332 N   0  0  0  0  0  0  0  0  0  0  0  0
    6.2934    8.6988   23.1988 O   0  0  0  0  0  0  0  0  0  0  0  0
    7.9806    8.6543   20.5437 C   0  0  0  0  0  0  0  0  0  0  0  0
   13.7270    5.7144   19.8610 O   0  0  0  0  0  0  0  0  0  0  0  0
    8.3351    5.5235   15.4478 C   0  0  0  0  0  0  0  0  0  0  0  0
    8.7700    7.8434   21.3915 C   0  0  0  0  0  0  0  0  0  0  0  0
   11.7856    6.8851   19.2401 C   0  0  0  0  0  0  0  0  0  0  0  0
   10.5281    7.4276   19.5649 C   0  0  0  0  0  0  0  0  0  0  0  0
   10.0256    7.2907   20.8484 C   0  0  0  0  0  0  0  0  0  0  0  0
    9.3113    5.3049   14.4911 C   0  0  0  0  0  0  0  0  0  0  0  0
    9.4607    7.5646   16.0139 C   0  0  0  0  0  0  0  0  0  0  0  0
   10.4192    7.3157   15.0955 C   0  0  0  0  0  0  0  0  0  0  0  0
   10.2489    6.4227   23.0218 N   0  0  0  0  0  0  0  0  0  0  0  0
    7.2472    8.0746   23.5050 C   0  0  0  0  0  0  0  0  0  0  0  0
    9.2051    6.9101   23.4604 C   0  0  0  0  0  0  0  0  0  0  0  0
   11.9646    6.0299   21.4251 C   0  0  0  0  0  0  0  0  0  0  0  0
  1  5  1  0
  1 13  1  0
  2 20  2  0
  2 28  1  0
  2 29  1  0
  3 19  4  0
  3 25  4  0
  4 23  4  0
  4 27  1  0
  4 30  4  0
  5 17  1  0
  6  8  1  0
  6 29  1  0
  7 24  4  0
  7 26  4  0
  8 28  1  0
  9 13  2  0
 10 18  1  0
 10 21  4  0
 10 30  4  0
 11 17  2  0
 12 18  1  0
 13 15  1  0
 14 24  1  0
 15 25  1  0
 16 28  2  0
 17 20  1  0
 19 24  4  0
 20 23  1  0
 21 22  4  0
 22 23  4  0
 25 26  4  0
 27 29  2  0
M  END
$$$$

 Created by Python create_sdf_string function

 30 33  0  0  0  0  0  0  0  0999 V2000
    8.3036    9.8571   18.4133 C   0  0  0  0  0  0  0  0  0  0  0  0
    8.3694    7.6612   22.6703 C   0  0  0  0  0  0  0  0  0  0  0  0
    8.4143    6.6863   16.2273 C   0  0  0  0  0  0  0  0  0  0  0  0
   10.7581    6.5674   21.7636 C   0  0  0  0  0  0  0  0  0  0  0  0
    8.4452    8.7960   19.2958 O   0  0  0  0  0  0  0  0  0  0  0  0
    8.7122    6.7842   24.8569 C   0  0  0  0  0  0  0  0  0  0  0  0
   10.3400    6.1726   14.3081 C   0  0  0  0  0  0  0  0  0  0  0  0
    7.4297    7.5873   24.8962 C   0  0  0  0  0  0  0  0  0  0  0  0
    8.1566   10.0536   16.0516 O   0  0  0  0  0  0  0  0  0  0  0  0
   12.4989    6.2074   20.1776 C   0  0  0  0  0  0  0  0  0  0  0  0
    6.9192    9.1053   20.9073 O   0  0  0  0  0  0  0  0  0  0  0  0
   14.3979    6.0729   18.7784 C   0  0  0  0  0  0  0  0  0  0  0  0
    8.6811    9.5354   16.9998 C   0  0  0  0  0  0  0  0  0  0  0  0
    9.2512    4.2713   13.7653 O   0  0  0  0  0  0  0  0  0  0  0  0
    9.6495    8.6317   16.8332 N   0  0  0  0  0  0  0  0  0  0  0  0
    6.2934    8.6988   23.1988 O   0  0  0  0  0  0  0  0  0  0  0  0
    7.9806    8.6543   20.5437 C   0  0  0  0  0  0  0  0  0  0  0  0
   13.7270    5.7144   19.8610 O   0  0  0  0  0  0  0  0  0  0  0  0
    8.3351    5.5235   15.4478 C   0  0  0  0  0  0  0  0  0  0  0  0
    8.7700    7.8434   21.3915 C   0  0  0  0  0  0  0  0  0  0  0  0
   11.7856    6.8851   19.2401 C   0  0  0  0  0  0  0  0  0  0  0  0
   10.5281    7.4276   19.5649 C   0  0  0  0  0  0  0  0  0  0  0  0
   10.0256    7.2907   20.8484 C   0  0  0  0  0  0  0  0  0  0  0  0
    9.3113    5.3049   14.4911 C   0  0  0  0  0  0  0  0  0  0  0  0
    9.4607    7.5646   16.0139 C   0  0  0  0  0  0  0  0  0  0  0  0
   10.4192    7.3157   15.0955 C   0  0  0  0  0  0  0  0  0  0  0  0
   10.2489    6.4227   23.0218 N   0  0  0  0  0  0  0  0  0  0  0  0
    7.2472    8.0746   23.5050 C   0  0  0  0  0  0  0  0  0  0  0  0
    9.2051    6.9101   23.4604 C   0  0  0  0  0  0  0  0  0  0  0  0
   11.9646    6.0299   21.4251 C   0  0  0  0  0  0  0  0  0  0  0  0
  1  5  1  0
  1 13  1  0
  2 20  2  0
  2 28  1  0
  2 29  1  0
  3 19  4  0
  3 25  4  0
  4 23  4  0
  4 27  1  0
  4 30  4  0
  5 17  1  0
  6  8  1  0
  6 29  1  0
  7 24  4  0
  7 26  4  0
  8 28  1  0
  9 13  2  0
 10 18  1  0
 10 21  4  0
 10 30  4  0
 11 17  2  0
 12 18  1  0
 13 15  1  0
 14 24  1  0
 15 25  1  0
 16 28  2  0
 17 20  1  0
 19 24  4  0
 20 23  1  0
 21 22  4  0
 22 23  4  0
 25 26  4  0
 27 29  2  0
M  END
$$$$

 Created by Python create_sdf_string function

 30 33  0  0  0  0  0  0  0  0999 V2000
    8.3036    9.8571   18.4133 C   0  0  0  0  0  0  0  0  0  0  0  0
    8.3694    7.6612   22.6703 C   0  0  0  0  0  0  0  0  0  0  0  0
    8.4143    6.6863   16.2273 C   0  0  0  0  0  0  0  0  0  0  0  0
   10.7581    6.5674   21.7636 C   0  0  0  0  0  0  0  0  0  0  0  0
    8.4452    8.7960   19.2958 O   0  0  0  0  0  0  0  0  0  0  0  0
    8.7122    6.7842   24.8569 C   0  0  0  0  0  0  0  0  0  0  0  0
   10.3400    6.1726   14.3081 C   0  0  0  0  0  0  0  0  0  0  0  0
    7.4297    7.5873   24.8962 C   0  0  0  0  0  0  0  0  0  0  0  0
    8.1566   10.0536   16.0516 O   0  0  0  0  0  0  0  0  0  0  0  0
   12.4989    6.2074   20.1776 C   0  0  0  0  0  0  0  0  0  0  0  0
    6.9192    9.1053   20.9073 O   0  0  0  0  0  0  0  0  0  0  0  0
   14.3979    6.0729   18.7784 C   0  0  0  0  0  0  0  0  0  0  0  0
    8.6811    9.5354   16.9998 C   0  0  0  0  0  0  0  0  0  0  0  0
    9.2512    4.2713   13.7653 O   0  0  0  0  0  0  0  0  0  0  0  0
    9.6495    8.6317   16.8332 N   0  0  0  0  0  0  0  0  0  0  0  0
    6.2934    8.6988   23.1988 O   0  0  0  0  0  0  0  0  0  0  0  0
    7.9806    8.6543   20.5437 C   0  0  0  0  0  0  0  0  0  0  0  0
   13.7270    5.7144   19.8610 O   0  0  0  0  0  0  0  0  0  0  0  0
    8.3351    5.5235   15.4478 C   0  0  0  0  0  0  0  0  0  0  0  0
    8.7700    7.8434   21.3915 C   0  0  0  0  0  0  0  0  0  0  0  0
   11.7856    6.8851   19.2401 C   0  0  0  0  0  0  0  0  0  0  0  0
   10.5281    7.4276   19.5649 C   0  0  0  0  0  0  0  0  0  0  0  0
   10.0256    7.2907   20.8484 C   0  0  0  0  0  0  0  0  0  0  0  0
    9.3113    5.3049   14.4911 C   0  0  0  0  0  0  0  0  0  0  0  0
    9.4607    7.5646   16.0139 C   0  0  0  0  0  0  0  0  0  0  0  0
   10.4192    7.3157   15.0955 C   0  0  0  0  0  0  0  0  0  0  0  0
   10.2489    6.4227   23.0218 N   0  0  0  0  0  0  0  0  0  0  0  0
    7.2472    8.0746   23.5050 C   0  0  0  0  0  0  0  0  0  0  0  0
    9.2051    6.9101   23.4604 C   0  0  0  0  0  0  0  0  0  0  0  0
   11.9646    6.0299   21.4251 C   0  0  0  0  0  0  0  0  0  0  0  0
  1  5  1  0
  1 13  1  0
  2 20  2  0
  2 28  1  0
  2 29  1  0
  3 19  4  0
  3 25  4  0
  4 23  4  0
  4 27  1  0
  4 30  4  0
  5 17  1  0
  6  8  1  0
  6 29  1  0
  7 24  4  0
  7 26  4  0
  8 28  1  0
  9 13  2  0
 10 18  1  0
 10 21  4  0
 10 30  4  0
 11 17  2  0
 12 18  1  0
 13 15  1  0
 14 24  1  0
 15 25  1  0
 16 28  2  0
 17 20  1  0
 19 24  4  0
 20 23  1  0
 21 22  4  0
 22 23  4  0
 25 26  4  0
 27 29  2  0
M  END
$$$$

 Created by Python create_sdf_string function

 30 33  0  0  0  0  0  0  0  0999 V2000
    8.3036    9.8571   18.4133 C   0  0  0  0  0  0  0  0  0  0  0  0
    8.3694    7.6612   22.6703 C   0  0  0  0  0  0  0  0  0  0  0  0
    8.4143    6.6863   16.2273 C   0  0  0  0  0  0  0  0  0  0  0  0
   10.7581    6.5674   21.7636 C   0  0  0  0  0  0  0  0  0  0  0  0
    8.4452    8.7960   19.2958 O   0  0  0  0  0  0  0  0  0  0  0  0
    8.7122    6.7842   24.8569 C   0  0  0  0  0  0  0  0  0  0  0  0
   10.3400    6.1726   14.3081 C   0  0  0  0  0  0  0  0  0  0  0  0
    7.4297    7.5873   24.8962 C   0  0  0  0  0  0  0  0  0  0  0  0
    8.1566   10.0536   16.0516 O   0  0  0  0  0  0  0  0  0  0  0  0
   12.4989    6.2074   20.1776 C   0  0  0  0  0  0  0  0  0  0  0  0
    6.9192    9.1053   20.9073 O   0  0  0  0  0  0  0  0  0  0  0  0
   14.3979    6.0729   18.7784 C   0  0  0  0  0  0  0  0  0  0  0  0
    8.6811    9.5354   16.9998 C   0  0  0  0  0  0  0  0  0  0  0  0
    9.2512    4.2713   13.7653 O   0  0  0  0  0  0  0  0  0  0  0  0
    9.6495    8.6317   16.8332 N   0  0  0  0  0  0  0  0  0  0  0  0
    6.2934    8.6988   23.1988 O   0  0  0  0  0  0  0  0  0  0  0  0
    7.9806    8.6543   20.5437 C   0  0  0  0  0  0  0  0  0  0  0  0
   13.7270    5.7144   19.8610 O   0  0  0  0  0  0  0  0  0  0  0  0
    8.3351    5.5235   15.4478 C   0  0  0  0  0  0  0  0  0  0  0  0
    8.7700    7.8434   21.3915 C   0  0  0  0  0  0  0  0  0  0  0  0
   11.7856    6.8851   19.2401 C   0  0  0  0  0  0  0  0  0  0  0  0
   10.5281    7.4276   19.5649 C   0  0  0  0  0  0  0  0  0  0  0  0
   10.0256    7.2907   20.8484 C   0  0  0  0  0  0  0  0  0  0  0  0
    9.3113    5.3049   14.4911 C   0  0  0  0  0  0  0  0  0  0  0  0
    9.4607    7.5646   16.0139 C   0  0  0  0  0  0  0  0  0  0  0  0
   10.4192    7.3157   15.0955 C   0  0  0  0  0  0  0  0  0  0  0  0
   10.2489    6.4227   23.0218 N   0  0  0  0  0  0  0  0  0  0  0  0
    7.2472    8.0746   23.5050 C   0  0  0  0  0  0  0  0  0  0  0  0
    9.2051    6.9101   23.4604 C   0  0  0  0  0  0  0  0  0  0  0  0
   11.9646    6.0299   21.4251 C   0  0  0  0  0  0  0  0  0  0  0  0
  1  5  1  0
  1 13  1  0
  2 20  2  0
  2 28  1  0
  2 29  1  0
  3 19  4  0
  3 25  4  0
  4 23  4  0
  4 27  1  0
  4 30  4  0
  5 17  1  0
  6  8  1  0
  6 29  1  0
  7 24  4  0
  7 26  4  0
  8 28  1  0
  9 13  2  0
 10 18  1  0
 10 21  4  0
 10 30  4  0
 11 17  2  0
 12 18  1  0
 13 15  1  0
 14 24  1  0
 15 25  1  0
 16 28  2  0
 17 20  1  0
 19 24  4  0
 20 23  1  0
 21 22  4  0
 22 23  4  0
 25 26  4  0
 27 29  2  0
M  END
$$$$

 Created by Python create_sdf_string function

 30 33  0  0  0  0  0  0  0  0999 V2000
    8.3036    9.8571   18.4133 C   0  0  0  0  0  0  0  0  0  0  0  0
    8.3694    7.6612   22.6703 C   0  0  0  0  0  0  0  0  0  0  0  0
    8.4143    6.6863   16.2273 C   0  0  0  0  0  0  0  0  0  0  0  0
   10.7581    6.5674   21.7636 C   0  0  0  0  0  0  0  0  0  0  0  0
    8.4452    8.7960   19.2958 O   0  0  0  0  0  0  0  0  0  0  0  0
    8.7122    6.7842   24.8569 C   0  0  0  0  0  0  0  0  0  0  0  0
   10.3400    6.1726   14.3081 C   0  0  0  0  0  0  0  0  0  0  0  0
    7.4297    7.5873   24.8962 C   0  0  0  0  0  0  0  0  0  0  0  0
    8.1566   10.0536   16.0516 O   0  0  0  0  0  0  0  0  0  0  0  0
   12.4989    6.2074   20.1776 C   0  0  0  0  0  0  0  0  0  0  0  0
    6.9192    9.1053   20.9073 O   0  0  0  0  0  0  0  0  0  0  0  0
   14.3979    6.0729   18.7784 C   0  0  0  0  0  0  0  0  0  0  0  0
    8.6811    9.5354   16.9998 C   0  0  0  0  0  0  0  0  0  0  0  0
    9.2512    4.2713   13.7653 O   0  0  0  0  0  0  0  0  0  0  0  0
    9.6495    8.6317   16.8332 N   0  0  0  0  0  0  0  0  0  0  0  0
    6.2934    8.6988   23.1988 O   0  0  0  0  0  0  0  0  0  0  0  0
    7.9806    8.6543   20.5437 C   0  0  0  0  0  0  0  0  0  0  0  0
   13.7270    5.7144   19.8610 O   0  0  0  0  0  0  0  0  0  0  0  0
    8.3351    5.5235   15.4478 C   0  0  0  0  0  0  0  0  0  0  0  0
    8.7700    7.8434   21.3915 C   0  0  0  0  0  0  0  0  0  0  0  0
   11.7856    6.8851   19.2401 C   0  0  0  0  0  0  0  0  0  0  0  0
   10.5281    7.4276   19.5649 C   0  0  0  0  0  0  0  0  0  0  0  0
   10.0256    7.2907   20.8484 C   0  0  0  0  0  0  0  0  0  0  0  0
    9.3113    5.3049   14.4911 C   0  0  0  0  0  0  0  0  0  0  0  0
    9.4607    7.5646   16.0139 C   0  0  0  0  0  0  0  0  0  0  0  0
   10.4192    7.3157   15.0955 C   0  0  0  0  0  0  0  0  0  0  0  0
   10.2489    6.4227   23.0218 N   0  0  0  0  0  0  0  0  0  0  0  0
    7.2472    8.0746   23.5050 C   0  0  0  0  0  0  0  0  0  0  0  0
    9.2051    6.9101   23.4604 C   0  0  0  0  0  0  0  0  0  0  0  0
   11.9646    6.0299   21.4251 C   0  0  0  0  0  0  0  0  0  0  0  0
  1  5  1  0
  1 13  1  0
  2 20  2  0
  2 28  1  0
  2 29  1  0
  3 19  4  0
  3 25  4  0
  4 23  4  0
  4 27  1  0
  4 30  4  0
  5 17  1  0
  6  8  1  0
  6 29  1  0
  7 24  4  0
  7 26  4  0
  8 28  1  0
  9 13  2  0
 10 18  1  0
 10 21  4  0
 10 30  4  0
 11 17  2  0
 12 18  1  0
 13 15  1  0
 14 24  1  0
 15 25  1  0
 16 28  2  0
 17 20  1  0
 19 24  4  0
 20 23  1  0
 21 22  4  0
 22 23  4  0
 25 26  4  0
 27 29  2  0
M  END
$$$$

 Created by Python create_sdf_string function

 30 33  0  0  0  0  0  0  0  0999 V2000
    8.3036    9.8571   18.4133 C   0  0  0  0  0  0  0  0  0  0  0  0
    8.3694    7.6612   22.6703 C   0  0  0  0  0  0  0  0  0  0  0  0
    8.4143    6.6863   16.2273 C   0  0  0  0  0  0  0  0  0  0  0  0
   10.7581    6.5674   21.7636 C   0  0  0  0  0  0  0  0  0  0  0  0
    8.4452    8.7960   19.2958 O   0  0  0  0  0  0  0  0  0  0  0  0
    8.7122    6.7842   24.8569 C   0  0  0  0  0  0  0  0  0  0  0  0
   10.3400    6.1726   14.3081 C   0  0  0  0  0  0  0  0  0  0  0  0
    7.4297    7.5873   24.8962 C   0  0  0  0  0  0  0  0  0  0  0  0
    8.1566   10.0536   16.0516 O   0  0  0  0  0  0  0  0  0  0  0  0
   12.4989    6.2074   20.1776 C   0  0  0  0  0  0  0  0  0  0  0  0
    6.9192    9.1053   20.9073 O   0  0  0  0  0  0  0  0  0  0  0  0
   14.3979    6.0729   18.7784 C   0  0  0  0  0  0  0  0  0  0  0  0
    8.6811    9.5354   16.9998 C   0  0  0  0  0  0  0  0  0  0  0  0
    9.2512    4.2713   13.7653 O   0  0  0  0  0  0  0  0  0  0  0  0
    9.6495    8.6317   16.8332 N   0  0  0  0  0  0  0  0  0  0  0  0
    6.2934    8.6988   23.1988 O   0  0  0  0  0  0  0  0  0  0  0  0
    7.9806    8.6543   20.5437 C   0  0  0  0  0  0  0  0  0  0  0  0
   13.7270    5.7144   19.8610 O   0  0  0  0  0  0  0  0  0  0  0  0
    8.3351    5.5235   15.4478 C   0  0  0  0  0  0  0  0  0  0  0  0
    8.7700    7.8434   21.3915 C   0  0  0  0  0  0  0  0  0  0  0  0
   11.7856    6.8851   19.2401 C   0  0  0  0  0  0  0  0  0  0  0  0
   10.5281    7.4276   19.5649 C   0  0  0  0  0  0  0  0  0  0  0  0
   10.0256    7.2907   20.8484 C   0  0  0  0  0  0  0  0  0  0  0  0
    9.3113    5.3049   14.4911 C   0  0  0  0  0  0  0  0  0  0  0  0
    9.4607    7.5646   16.0139 C   0  0  0  0  0  0  0  0  0  0  0  0
   10.4192    7.3157   15.0955 C   0  0  0  0  0  0  0  0  0  0  0  0
   10.2489    6.4227   23.0218 N   0  0  0  0  0  0  0  0  0  0  0  0
    7.2472    8.0746   23.5050 C   0  0  0  0  0  0  0  0  0  0  0  0
    9.2051    6.9101   23.4604 C   0  0  0  0  0  0  0  0  0  0  0  0
   11.9646    6.0299   21.4251 C   0  0  0  0  0  0  0  0  0  0  0  0
  1  5  1  0
  1 13  1  0
  2 20  2  0
  2 28  1  0
  2 29  1  0
  3 19  4  0
  3 25  4  0
  4 23  4  0
  4 27  1  0
  4 30  4  0
  5 17  1  0
  6  8  1  0
  6 29  1  0
  7 24  4  0
  7 26  4  0
  8 28  1  0
  9 13  2  0
 10 18  1  0
 10 21  4  0
 10 30  4  0
 11 17  2  0
 12 18  1  0
 13 15  1  0
 14 24  1  0
 15 25  1  0
 16 28  2  0
 17 20  1  0
 19 24  4  0
 20 23  1  0
 21 22  4  0
 22 23  4  0
 25 26  4  0
 27 29  2  0
M  END
$$$$

 Created by Python create_sdf_string function

 30 33  0  0  0  0  0  0  0  0999 V2000
    8.3036    9.8571   18.4133 C   0  0  0  0  0  0  0  0  0  0  0  0
    8.3694    7.6612   22.6703 C   0  0  0  0  0  0  0  0  0  0  0  0
    8.4143    6.6863   16.2273 C   0  0  0  0  0  0  0  0  0  0  0  0
   10.7581    6.5674   21.7636 C   0  0  0  0  0  0  0  0  0  0  0  0
    8.4452    8.7960   19.2958 O   0  0  0  0  0  0  0  0  0  0  0  0
    8.7122    6.7842   24.8569 C   0  0  0  0  0  0  0  0  0  0  0  0
   10.3400    6.1726   14.3081 C   0  0  0  0  0  0  0  0  0  0  0  0
    7.4297    7.5873   24.8962 C   0  0  0  0  0  0  0  0  0  0  0  0
    8.1566   10.0536   16.0516 O   0  0  0  0  0  0  0  0  0  0  0  0
   12.4989    6.2074   20.1776 C   0  0  0  0  0  0  0  0  0  0  0  0
    6.9192    9.1053   20.9073 O   0  0  0  0  0  0  0  0  0  0  0  0
   14.3979    6.0729   18.7784 C   0  0  0  0  0  0  0  0  0  0  0  0
    8.6811    9.5354   16.9998 C   0  0  0  0  0  0  0  0  0  0  0  0
    9.2512    4.2713   13.7653 O   0  0  0  0  0  0  0  0  0  0  0  0
    9.6495    8.6317   16.8332 N   0  0  0  0  0  0  0  0  0  0  0  0
    6.2934    8.6988   23.1988 O   0  0  0  0  0  0  0  0  0  0  0  0
    7.9806    8.6543   20.5437 C   0  0  0  0  0  0  0  0  0  0  0  0
   13.7270    5.7144   19.8610 O   0  0  0  0  0  0  0  0  0  0  0  0
    8.3351    5.5235   15.4478 C   0  0  0  0  0  0  0  0  0  0  0  0
    8.7700    7.8434   21.3915 C   0  0  0  0  0  0  0  0  0  0  0  0
   11.7856    6.8851   19.2401 C   0  0  0  0  0  0  0  0  0  0  0  0
   10.5281    7.4276   19.5649 C   0  0  0  0  0  0  0  0  0  0  0  0
   10.0256    7.2907   20.8484 C   0  0  0  0  0  0  0  0  0  0  0  0
    9.3113    5.3049   14.4911 C   0  0  0  0  0  0  0  0  0  0  0  0
    9.4607    7.5646   16.0139 C   0  0  0  0  0  0  0  0  0  0  0  0
   10.4192    7.3157   15.0955 C   0  0  0  0  0  0  0  0  0  0  0  0
   10.2489    6.4227   23.0218 N   0  0  0  0  0  0  0  0  0  0  0  0
    7.2472    8.0746   23.5050 C   0  0  0  0  0  0  0  0  0  0  0  0
    9.2051    6.9101   23.4604 C   0  0  0  0  0  0  0  0  0  0  0  0
   11.9646    6.0299   21.4251 C   0  0  0  0  0  0  0  0  0  0  0  0
  1  5  1  0
  1 13  1  0
  2 20  2  0
  2 28  1  0
  2 29  1  0
  3 19  4  0
  3 25  4  0
  4 23  4  0
  4 27  1  0
  4 30  4  0
  5 17  1  0
  6  8  1  0
  6 29  1  0
  7 24  4  0
  7 26  4  0
  8 28  1  0
  9 13  2  0
 10 18  1  0
 10 21  4  0
 10 30  4  0
 11 17  2  0
 12 18  1  0
 13 15  1  0
 14 24  1  0
 15 25  1  0
 16 28  2  0
 17 20  1  0
 19 24  4  0
 20 23  1  0
 21 22  4  0
 22 23  4  0
 25 26  4  0
 27 29  2  0
M  END
$$$$

 Created by Python create_sdf_string function

 30 33  0  0  0  0  0  0  0  0999 V2000
    8.3036    9.8571   18.4133 C   0  0  0  0  0  0  0  0  0  0  0  0
    8.3694    7.6612   22.6703 C   0  0  0  0  0  0  0  0  0  0  0  0
    8.4143    6.6863   16.2273 C   0  0  0  0  0  0  0  0  0  0  0  0
   10.7581    6.5674   21.7636 C   0  0  0  0  0  0  0  0  0  0  0  0
    8.4452    8.7960   19.2958 O   0  0  0  0  0  0  0  0  0  0  0  0
    8.7122    6.7842   24.8569 C   0  0  0  0  0  0  0  0  0  0  0  0
   10.3400    6.1726   14.3081 C   0  0  0  0  0  0  0  0  0  0  0  0
    7.4297    7.5873   24.8962 C   0  0  0  0  0  0  0  0  0  0  0  0
    8.1566   10.0536   16.0516 O   0  0  0  0  0  0  0  0  0  0  0  0
   12.4989    6.2074   20.1776 C   0  0  0  0  0  0  0  0  0  0  0  0
    6.9192    9.1053   20.9073 O   0  0  0  0  0  0  0  0  0  0  0  0
   14.3979    6.0729   18.7784 C   0  0  0  0  0  0  0  0  0  0  0  0
    8.6811    9.5354   16.9998 C   0  0  0  0  0  0  0  0  0  0  0  0
    9.2512    4.2713   13.7653 O   0  0  0  0  0  0  0  0  0  0  0  0
    9.6495    8.6317   16.8332 N   0  0  0  0  0  0  0  0  0  0  0  0
    6.2934    8.6988   23.1988 O   0  0  0  0  0  0  0  0  0  0  0  0
    7.9806    8.6543   20.5437 C   0  0  0  0  0  0  0  0  0  0  0  0
   13.7270    5.7144   19.8610 O   0  0  0  0  0  0  0  0  0  0  0  0
    8.3351    5.5235   15.4478 C   0  0  0  0  0  0  0  0  0  0  0  0
    8.7700    7.8434   21.3915 C   0  0  0  0  0  0  0  0  0  0  0  0
   11.7856    6.8851   19.2401 C   0  0  0  0  0  0  0  0  0  0  0  0
   10.5281    7.4276   19.5649 C   0  0  0  0  0  0  0  0  0  0  0  0
   10.0256    7.2907   20.8484 C   0  0  0  0  0  0  0  0  0  0  0  0
    9.3113    5.3049   14.4911 C   0  0  0  0  0  0  0  0  0  0  0  0
    9.4607    7.5646   16.0139 C   0  0  0  0  0  0  0  0  0  0  0  0
   10.4192    7.3157   15.0955 C   0  0  0  0  0  0  0  0  0  0  0  0
   10.2489    6.4227   23.0218 N   0  0  0  0  0  0  0  0  0  0  0  0
    7.2472    8.0746   23.5050 C   0  0  0  0  0  0  0  0  0  0  0  0
    9.2051    6.9101   23.4604 C   0  0  0  0  0  0  0  0  0  0  0  0
   11.9646    6.0299   21.4251 C   0  0  0  0  0  0  0  0  0  0  0  0
  1  5  1  0
  1 13  1  0
  2 20  2  0
  2 28  1  0
  2 29  1  0
  3 19  4  0
  3 25  4  0
  4 23  4  0
  4 27  1  0
  4 30  4  0
  5 17  1  0
  6  8  1  0
  6 29  1  0
  7 24  4  0
  7 26  4  0
  8 28  1  0
  9 13  2  0
 10 18  1  0
 10 21  4  0
 10 30  4  0
 11 17  2  0
 12 18  1  0
 13 15  1  0
 14 24  1  0
 15 25  1  0
 16 28  2  0
 17 20  1  0
 19 24  4  0
 20 23  1  0
 21 22  4  0
 22 23  4  0
 25 26  4  0
 27 29  2  0
M  END
$$$$

 Created by Python create_sdf_string function

 30 33  0  0  0  0  0  0  0  0999 V2000
    8.3036    9.8571   18.4133 C   0  0  0  0  0  0  0  0  0  0  0  0
    8.3694    7.6612   22.6703 C   0  0  0  0  0  0  0  0  0  0  0  0
    8.4143    6.6863   16.2273 C   0  0  0  0  0  0  0  0  0  0  0  0
   10.7581    6.5674   21.7636 C   0  0  0  0  0  0  0  0  0  0  0  0
    8.4452    8.7960   19.2958 O   0  0  0  0  0  0  0  0  0  0  0  0
    8.7122    6.7842   24.8569 C   0  0  0  0  0  0  0  0  0  0  0  0
   10.3400    6.1726   14.3081 C   0  0  0  0  0  0  0  0  0  0  0  0
    7.4297    7.5873   24.8962 C   0  0  0  0  0  0  0  0  0  0  0  0
    8.1566   10.0536   16.0516 O   0  0  0  0  0  0  0  0  0  0  0  0
   12.4989    6.2074   20.1776 C   0  0  0  0  0  0  0  0  0  0  0  0
    6.9192    9.1053   20.9073 O   0  0  0  0  0  0  0  0  0  0  0  0
   14.3979    6.0729   18.7784 C   0  0  0  0  0  0  0  0  0  0  0  0
    8.6811    9.5354   16.9998 C   0  0  0  0  0  0  0  0  0  0  0  0
    9.2512    4.2713   13.7653 O   0  0  0  0  0  0  0  0  0  0  0  0
    9.6495    8.6317   16.8332 N   0  0  0  0  0  0  0  0  0  0  0  0
    6.2934    8.6988   23.1988 O   0  0  0  0  0  0  0  0  0  0  0  0
    7.9806    8.6543   20.5437 C   0  0  0  0  0  0  0  0  0  0  0  0
   13.7270    5.7144   19.8610 O   0  0  0  0  0  0  0  0  0  0  0  0
    8.3351    5.5235   15.4478 C   0  0  0  0  0  0  0  0  0  0  0  0
    8.7700    7.8434   21.3915 C   0  0  0  0  0  0  0  0  0  0  0  0
   11.7856    6.8851   19.2401 C   0  0  0  0  0  0  0  0  0  0  0  0
   10.5281    7.4276   19.5649 C   0  0  0  0  0  0  0  0  0  0  0  0
   10.0256    7.2907   20.8484 C   0  0  0  0  0  0  0  0  0  0  0  0
    9.3113    5.3049   14.4911 C   0  0  0  0  0  0  0  0  0  0  0  0
    9.4607    7.5646   16.0139 C   0  0  0  0  0  0  0  0  0  0  0  0
   10.4192    7.3157   15.0955 C   0  0  0  0  0  0  0  0  0  0  0  0
   10.2489    6.4227   23.0218 N   0  0  0  0  0  0  0  0  0  0  0  0
    7.2472    8.0746   23.5050 C   0  0  0  0  0  0  0  0  0  0  0  0
    9.2051    6.9101   23.4604 C   0  0  0  0  0  0  0  0  0  0  0  0
   11.9646    6.0299   21.4251 C   0  0  0  0  0  0  0  0  0  0  0  0
  1  5  1  0
  1 13  1  0
  2 20  2  0
  2 28  1  0
  2 29  1  0
  3 19  4  0
  3 25  4  0
  4 23  4  0
  4 27  1  0
  4 30  4  0
  5 17  1  0
  6  8  1  0
  6 29  1  0
  7 24  4  0
  7 26  4  0
  8 28  1  0
  9 13  2  0
 10 18  1  0
 10 21  4  0
 10 30  4  0
 11 17  2  0
 12 18  1  0
 13 15  1  0
 14 24  1  0
 15 25  1  0
 16 28  2  0
 17 20  1  0
 19 24  4  0
 20 23  1  0
 21 22  4  0
 22 23  4  0
 25 26  4  0
 27 29  2  0
M  END
$$$$

 Created by Python create_sdf_string function

 30 33  0  0  0  0  0  0  0  0999 V2000
    8.3036    9.8571   18.4133 C   0  0  0  0  0  0  0  0  0  0  0  0
    8.3694    7.6612   22.6703 C   0  0  0  0  0  0  0  0  0  0  0  0
    8.4143    6.6863   16.2273 C   0  0  0  0  0  0  0  0  0  0  0  0
   10.7581    6.5674   21.7636 C   0  0  0  0  0  0  0  0  0  0  0  0
    8.4452    8.7960   19.2958 O   0  0  0  0  0  0  0  0  0  0  0  0
    8.7122    6.7842   24.8569 C   0  0  0  0  0  0  0  0  0  0  0  0
   10.3400    6.1726   14.3081 C   0  0  0  0  0  0  0  0  0  0  0  0
    7.4297    7.5873   24.8962 C   0  0  0  0  0  0  0  0  0  0  0  0
    8.1566   10.0536   16.0516 O   0  0  0  0  0  0  0  0  0  0  0  0
   12.4989    6.2074   20.1776 C   0  0  0  0  0  0  0  0  0  0  0  0
    6.9192    9.1053   20.9073 O   0  0  0  0  0  0  0  0  0  0  0  0
   14.3979    6.0729   18.7784 C   0  0  0  0  0  0  0  0  0  0  0  0
    8.6811    9.5354   16.9998 C   0  0  0  0  0  0  0  0  0  0  0  0
    9.2512    4.2713   13.7653 O   0  0  0  0  0  0  0  0  0  0  0  0
    9.6495    8.6317   16.8332 N   0  0  0  0  0  0  0  0  0  0  0  0
    6.2934    8.6988   23.1988 O   0  0  0  0  0  0  0  0  0  0  0  0
    7.9806    8.6543   20.5437 C   0  0  0  0  0  0  0  0  0  0  0  0
   13.7270    5.7144   19.8610 O   0  0  0  0  0  0  0  0  0  0  0  0
    8.3351    5.5235   15.4478 C   0  0  0  0  0  0  0  0  0  0  0  0
    8.7700    7.8434   21.3915 C   0  0  0  0  0  0  0  0  0  0  0  0
   11.7856    6.8851   19.2401 C   0  0  0  0  0  0  0  0  0  0  0  0
   10.5281    7.4276   19.5649 C   0  0  0  0  0  0  0  0  0  0  0  0
   10.0256    7.2907   20.8484 C   0  0  0  0  0  0  0  0  0  0  0  0
    9.3113    5.3049   14.4911 C   0  0  0  0  0  0  0  0  0  0  0  0
    9.4607    7.5646   16.0139 C   0  0  0  0  0  0  0  0  0  0  0  0
   10.4192    7.3157   15.0955 C   0  0  0  0  0  0  0  0  0  0  0  0
   10.2489    6.4227   23.0218 N   0  0  0  0  0  0  0  0  0  0  0  0
    7.2472    8.0746   23.5050 C   0  0  0  0  0  0  0  0  0  0  0  0
    9.2051    6.9101   23.4604 C   0  0  0  0  0  0  0  0  0  0  0  0
   11.9646    6.0299   21.4251 C   0  0  0  0  0  0  0  0  0  0  0  0
  1  5  1  0
  1 13  1  0
  2 20  2  0
  2 28  1  0
  2 29  1  0
  3 19  4  0
  3 25  4  0
  4 23  4  0
  4 27  1  0
  4 30  4  0
  5 17  1  0
  6  8  1  0
  6 29  1  0
  7 24  4  0
  7 26  4  0
  8 28  1  0
  9 13  2  0
 10 18  1  0
 10 21  4  0
 10 30  4  0
 11 17  2  0
 12 18  1  0
 13 15  1  0
 14 24  1  0
 15 25  1  0
 16 28  2  0
 17 20  1  0
 19 24  4  0
 20 23  1  0
 21 22  4  0
 22 23  4  0
 25 26  4  0
 27 29  2  0
M  END
$$$$

 Created by Python create_sdf_string function

 30 33  0  0  0  0  0  0  0  0999 V2000
    8.3036    9.8571   18.4133 C   0  0  0  0  0  0  0  0  0  0  0  0
    8.3694    7.6612   22.6703 C   0  0  0  0  0  0  0  0  0  0  0  0
    8.4143    6.6863   16.2273 C   0  0  0  0  0  0  0  0  0  0  0  0
   10.7581    6.5674   21.7636 C   0  0  0  0  0  0  0  0  0  0  0  0
    8.4452    8.7960   19.2958 O   0  0  0  0  0  0  0  0  0  0  0  0
    8.7122    6.7842   24.8569 C   0  0  0  0  0  0  0  0  0  0  0  0
   10.3400    6.1726   14.3081 C   0  0  0  0  0  0  0  0  0  0  0  0
    7.4297    7.5873   24.8962 C   0  0  0  0  0  0  0  0  0  0  0  0
    8.1566   10.0536   16.0516 O   0  0  0  0  0  0  0  0  0  0  0  0
   12.4989    6.2074   20.1776 C   0  0  0  0  0  0  0  0  0  0  0  0
    6.9192    9.1053   20.9073 O   0  0  0  0  0  0  0  0  0  0  0  0
   14.3979    6.0729   18.7784 C   0  0  0  0  0  0  0  0  0  0  0  0
    8.6811    9.5354   16.9998 C   0  0  0  0  0  0  0  0  0  0  0  0
    9.2512    4.2713   13.7653 O   0  0  0  0  0  0  0  0  0  0  0  0
    9.6495    8.6317   16.8332 N   0  0  0  0  0  0  0  0  0  0  0  0
    6.2934    8.6988   23.1988 O   0  0  0  0  0  0  0  0  0  0  0  0
    7.9806    8.6543   20.5437 C   0  0  0  0  0  0  0  0  0  0  0  0
   13.7270    5.7144   19.8610 O   0  0  0  0  0  0  0  0  0  0  0  0
    8.3351    5.5235   15.4478 C   0  0  0  0  0  0  0  0  0  0  0  0
    8.7700    7.8434   21.3915 C   0  0  0  0  0  0  0  0  0  0  0  0
   11.7856    6.8851   19.2401 C   0  0  0  0  0  0  0  0  0  0  0  0
   10.5281    7.4276   19.5649 C   0  0  0  0  0  0  0  0  0  0  0  0
   10.0256    7.2907   20.8484 C   0  0  0  0  0  0  0  0  0  0  0  0
    9.3113    5.3049   14.4911 C   0  0  0  0  0  0  0  0  0  0  0  0
    9.4607    7.5646   16.0139 C   0  0  0  0  0  0  0  0  0  0  0  0
   10.4192    7.3157   15.0955 C   0  0  0  0  0  0  0  0  0  0  0  0
   10.2489    6.4227   23.0218 N   0  0  0  0  0  0  0  0  0  0  0  0
    7.2472    8.0746   23.5050 C   0  0  0  0  0  0  0  0  0  0  0  0
    9.2051    6.9101   23.4604 C   0  0  0  0  0  0  0  0  0  0  0  0
   11.9646    6.0299   21.4251 C   0  0  0  0  0  0  0  0  0  0  0  0
  1  5  1  0
  1 13  1  0
  2 20  2  0
  2 28  1  0
  2 29  1  0
  3 19  4  0
  3 25  4  0
  4 23  4  0
  4 27  1  0
  4 30  4  0
  5 17  1  0
  6  8  1  0
  6 29  1  0
  7 24  4  0
  7 26  4  0
  8 28  1  0
  9 13  2  0
 10 18  1  0
 10 21  4  0
 10 30  4  0
 11 17  2  0
 12 18  1  0
 13 15  1  0
 14 24  1  0
 15 25  1  0
 16 28  2  0
 17 20  1  0
 19 24  4  0
 20 23  1  0
 21 22  4  0
 22 23  4  0
 25 26  4  0
 27 29  2  0
M  END
$$$$

 Created by Python create_sdf_string function

 30 33  0  0  0  0  0  0  0  0999 V2000
    8.3036    9.8571   18.4133 C   0  0  0  0  0  0  0  0  0  0  0  0
    8.3694    7.6612   22.6703 C   0  0  0  0  0  0  0  0  0  0  0  0
    8.4143    6.6863   16.2273 C   0  0  0  0  0  0  0  0  0  0  0  0
   10.7581    6.5674   21.7636 C   0  0  0  0  0  0  0  0  0  0  0  0
    8.4452    8.7960   19.2958 O   0  0  0  0  0  0  0  0  0  0  0  0
    8.7122    6.7842   24.8569 C   0  0  0  0  0  0  0  0  0  0  0  0
   10.3400    6.1726   14.3081 C   0  0  0  0  0  0  0  0  0  0  0  0
    7.4297    7.5873   24.8962 C   0  0  0  0  0  0  0  0  0  0  0  0
    8.1566   10.0536   16.0516 O   0  0  0  0  0  0  0  0  0  0  0  0
   12.4989    6.2074   20.1776 C   0  0  0  0  0  0  0  0  0  0  0  0
    6.9192    9.1053   20.9073 O   0  0  0  0  0  0  0  0  0  0  0  0
   14.3979    6.0729   18.7784 C   0  0  0  0  0  0  0  0  0  0  0  0
    8.6811    9.5354   16.9998 C   0  0  0  0  0  0  0  0  0  0  0  0
    9.2512    4.2713   13.7653 O   0  0  0  0  0  0  0  0  0  0  0  0
    9.6495    8.6317   16.8332 N   0  0  0  0  0  0  0  0  0  0  0  0
    6.2934    8.6988   23.1988 O   0  0  0  0  0  0  0  0  0  0  0  0
    7.9806    8.6543   20.5437 C   0  0  0  0  0  0  0  0  0  0  0  0
   13.7270    5.7144   19.8610 O   0  0  0  0  0  0  0  0  0  0  0  0
    8.3351    5.5235   15.4478 C   0  0  0  0  0  0  0  0  0  0  0  0
    8.7700    7.8434   21.3915 C   0  0  0  0  0  0  0  0  0  0  0  0
   11.7856    6.8851   19.2401 C   0  0  0  0  0  0  0  0  0  0  0  0
   10.5281    7.4276   19.5649 C   0  0  0  0  0  0  0  0  0  0  0  0
   10.0256    7.2907   20.8484 C   0  0  0  0  0  0  0  0  0  0  0  0
    9.3113    5.3049   14.4911 C   0  0  0  0  0  0  0  0  0  0  0  0
    9.4607    7.5646   16.0139 C   0  0  0  0  0  0  0  0  0  0  0  0
   10.4192    7.3157   15.0955 C   0  0  0  0  0  0  0  0  0  0  0  0
   10.2489    6.4227   23.0218 N   0  0  0  0  0  0  0  0  0  0  0  0
    7.2472    8.0746   23.5050 C   0  0  0  0  0  0  0  0  0  0  0  0
    9.2051    6.9101   23.4604 C   0  0  0  0  0  0  0  0  0  0  0  0
   11.9646    6.0299   21.4251 C   0  0  0  0  0  0  0  0  0  0  0  0
  1  5  1  0
  1 13  1  0
  2 20  2  0
  2 28  1  0
  2 29  1  0
  3 19  4  0
  3 25  4  0
  4 23  4  0
  4 27  1  0
  4 30  4  0
  5 17  1  0
  6  8  1  0
  6 29  1  0
  7 24  4  0
  7 26  4  0
  8 28  1  0
  9 13  2  0
 10 18  1  0
 10 21  4  0
 10 30  4  0
 11 17  2  0
 12 18  1  0
 13 15  1  0
 14 24  1  0
 15 25  1  0
 16 28  2  0
 17 20  1  0
 19 24  4  0
 20 23  1  0
 21 22  4  0
 22 23  4  0
 25 26  4  0
 27 29  2  0
M  END
$$$$

 Created by Python create_sdf_string function

 30 33  0  0  0  0  0  0  0  0999 V2000
    8.3036    9.8571   18.4133 C   0  0  0  0  0  0  0  0  0  0  0  0
    8.3694    7.6612   22.6703 C   0  0  0  0  0  0  0  0  0  0  0  0
    8.4143    6.6863   16.2273 C   0  0  0  0  0  0  0  0  0  0  0  0
   10.7581    6.5674   21.7636 C   0  0  0  0  0  0  0  0  0  0  0  0
    8.4452    8.7960   19.2958 O   0  0  0  0  0  0  0  0  0  0  0  0
    8.7122    6.7842   24.8569 C   0  0  0  0  0  0  0  0  0  0  0  0
   10.3400    6.1726   14.3081 C   0  0  0  0  0  0  0  0  0  0  0  0
    7.4297    7.5873   24.8962 C   0  0  0  0  0  0  0  0  0  0  0  0
    8.1566   10.0536   16.0516 O   0  0  0  0  0  0  0  0  0  0  0  0
   12.4989    6.2074   20.1776 C   0  0  0  0  0  0  0  0  0  0  0  0
    6.9192    9.1053   20.9073 O   0  0  0  0  0  0  0  0  0  0  0  0
   14.3979    6.0729   18.7784 C   0  0  0  0  0  0  0  0  0  0  0  0
    8.6811    9.5354   16.9998 C   0  0  0  0  0  0  0  0  0  0  0  0
    9.2512    4.2713   13.7653 O   0  0  0  0  0  0  0  0  0  0  0  0
    9.6495    8.6317   16.8332 N   0  0  0  0  0  0  0  0  0  0  0  0
    6.2934    8.6988   23.1988 O   0  0  0  0  0  0  0  0  0  0  0  0
    7.9806    8.6543   20.5437 C   0  0  0  0  0  0  0  0  0  0  0  0
   13.7270    5.7144   19.8610 O   0  0  0  0  0  0  0  0  0  0  0  0
    8.3351    5.5235   15.4478 C   0  0  0  0  0  0  0  0  0  0  0  0
    8.7700    7.8434   21.3915 C   0  0  0  0  0  0  0  0  0  0  0  0
   11.7856    6.8851   19.2401 C   0  0  0  0  0  0  0  0  0  0  0  0
   10.5281    7.4276   19.5649 C   0  0  0  0  0  0  0  0  0  0  0  0
   10.0256    7.2907   20.8484 C   0  0  0  0  0  0  0  0  0  0  0  0
    9.3113    5.3049   14.4911 C   0  0  0  0  0  0  0  0  0  0  0  0
    9.4607    7.5646   16.0139 C   0  0  0  0  0  0  0  0  0  0  0  0
   10.4192    7.3157   15.0955 C   0  0  0  0  0  0  0  0  0  0  0  0
   10.2489    6.4227   23.0218 N   0  0  0  0  0  0  0  0  0  0  0  0
    7.2472    8.0746   23.5050 C   0  0  0  0  0  0  0  0  0  0  0  0
    9.2051    6.9101   23.4604 C   0  0  0  0  0  0  0  0  0  0  0  0
   11.9646    6.0299   21.4251 C   0  0  0  0  0  0  0  0  0  0  0  0
  1  5  1  0
  1 13  1  0
  2 20  2  0
  2 28  1  0
  2 29  1  0
  3 19  4  0
  3 25  4  0
  4 23  4  0
  4 27  1  0
  4 30  4  0
  5 17  1  0
  6  8  1  0
  6 29  1  0
  7 24  4  0
  7 26  4  0
  8 28  1  0
  9 13  2  0
 10 18  1  0
 10 21  4  0
 10 30  4  0
 11 17  2  0
 12 18  1  0
 13 15  1  0
 14 24  1  0
 15 25  1  0
 16 28  2  0
 17 20  1  0
 19 24  4  0
 20 23  1  0
 21 22  4  0
 22 23  4  0
 25 26  4  0
 27 29  2  0
M  END
$$$$

 Created by Python create_sdf_string function

 30 33  0  0  0  0  0  0  0  0999 V2000
    8.3036    9.8571   18.4133 C   0  0  0  0  0  0  0  0  0  0  0  0
    8.3694    7.6612   22.6703 C   0  0  0  0  0  0  0  0  0  0  0  0
    8.4143    6.6863   16.2273 C   0  0  0  0  0  0  0  0  0  0  0  0
   10.7581    6.5674   21.7636 C   0  0  0  0  0  0  0  0  0  0  0  0
    8.4452    8.7960   19.2958 O   0  0  0  0  0  0  0  0  0  0  0  0
    8.7122    6.7842   24.8569 C   0  0  0  0  0  0  0  0  0  0  0  0
   10.3400    6.1726   14.3081 C   0  0  0  0  0  0  0  0  0  0  0  0
    7.4297    7.5873   24.8962 C   0  0  0  0  0  0  0  0  0  0  0  0
    8.1566   10.0536   16.0516 O   0  0  0  0  0  0  0  0  0  0  0  0
   12.4989    6.2074   20.1776 C   0  0  0  0  0  0  0  0  0  0  0  0
    6.9192    9.1053   20.9073 O   0  0  0  0  0  0  0  0  0  0  0  0
   14.3979    6.0729   18.7784 C   0  0  0  0  0  0  0  0  0  0  0  0
    8.6811    9.5354   16.9998 C   0  0  0  0  0  0  0  0  0  0  0  0
    9.2512    4.2713   13.7653 O   0  0  0  0  0  0  0  0  0  0  0  0
    9.6495    8.6317   16.8332 N   0  0  0  0  0  0  0  0  0  0  0  0
    6.2934    8.6988   23.1988 O   0  0  0  0  0  0  0  0  0  0  0  0
    7.9806    8.6543   20.5437 C   0  0  0  0  0  0  0  0  0  0  0  0
   13.7270    5.7144   19.8610 O   0  0  0  0  0  0  0  0  0  0  0  0
    8.3351    5.5235   15.4478 C   0  0  0  0  0  0  0  0  0  0  0  0
    8.7700    7.8434   21.3915 C   0  0  0  0  0  0  0  0  0  0  0  0
   11.7856    6.8851   19.2401 C   0  0  0  0  0  0  0  0  0  0  0  0
   10.5281    7.4276   19.5649 C   0  0  0  0  0  0  0  0  0  0  0  0
   10.0256    7.2907   20.8484 C   0  0  0  0  0  0  0  0  0  0  0  0
    9.3113    5.3049   14.4911 C   0  0  0  0  0  0  0  0  0  0  0  0
    9.4607    7.5646   16.0139 C   0  0  0  0  0  0  0  0  0  0  0  0
   10.4192    7.3157   15.0955 C   0  0  0  0  0  0  0  0  0  0  0  0
   10.2489    6.4227   23.0218 N   0  0  0  0  0  0  0  0  0  0  0  0
    7.2472    8.0746   23.5050 C   0  0  0  0  0  0  0  0  0  0  0  0
    9.2051    6.9101   23.4604 C   0  0  0  0  0  0  0  0  0  0  0  0
   11.9646    6.0299   21.4251 C   0  0  0  0  0  0  0  0  0  0  0  0
  1  5  1  0
  1 13  1  0
  2 20  2  0
  2 28  1  0
  2 29  1  0
  3 19  4  0
  3 25  4  0
  4 23  4  0
  4 27  1  0
  4 30  4  0
  5 17  1  0
  6  8  1  0
  6 29  1  0
  7 24  4  0
  7 26  4  0
  8 28  1  0
  9 13  2  0
 10 18  1  0
 10 21  4  0
 10 30  4  0
 11 17  2  0
 12 18  1  0
 13 15  1  0
 14 24  1  0
 15 25  1  0
 16 28  2  0
 17 20  1  0
 19 24  4  0
 20 23  1  0
 21 22  4  0
 22 23  4  0
 25 26  4  0
 27 29  2  0
M  END
$$$$

 Created by Python create_sdf_string function

 30 33  0  0  0  0  0  0  0  0999 V2000
    8.3036    9.8571   18.4133 C   0  0  0  0  0  0  0  0  0  0  0  0
    8.3694    7.6612   22.6703 C   0  0  0  0  0  0  0  0  0  0  0  0
    8.4143    6.6863   16.2273 C   0  0  0  0  0  0  0  0  0  0  0  0
   10.7581    6.5674   21.7636 C   0  0  0  0  0  0  0  0  0  0  0  0
    8.4452    8.7960   19.2958 O   0  0  0  0  0  0  0  0  0  0  0  0
    8.7122    6.7842   24.8569 C   0  0  0  0  0  0  0  0  0  0  0  0
   10.3400    6.1726   14.3081 C   0  0  0  0  0  0  0  0  0  0  0  0
    7.4297    7.5873   24.8962 C   0  0  0  0  0  0  0  0  0  0  0  0
    8.1566   10.0536   16.0516 O   0  0  0  0  0  0  0  0  0  0  0  0
   12.4989    6.2074   20.1776 C   0  0  0  0  0  0  0  0  0  0  0  0
    6.9192    9.1053   20.9073 O   0  0  0  0  0  0  0  0  0  0  0  0
   14.3979    6.0729   18.7784 C   0  0  0  0  0  0  0  0  0  0  0  0
    8.6811    9.5354   16.9998 C   0  0  0  0  0  0  0  0  0  0  0  0
    9.2512    4.2713   13.7653 O   0  0  0  0  0  0  0  0  0  0  0  0
    9.6495    8.6317   16.8332 N   0  0  0  0  0  0  0  0  0  0  0  0
    6.2934    8.6988   23.1988 O   0  0  0  0  0  0  0  0  0  0  0  0
    7.9806    8.6543   20.5437 C   0  0  0  0  0  0  0  0  0  0  0  0
   13.7270    5.7144   19.8610 O   0  0  0  0  0  0  0  0  0  0  0  0
    8.3351    5.5235   15.4478 C   0  0  0  0  0  0  0  0  0  0  0  0
    8.7700    7.8434   21.3915 C   0  0  0  0  0  0  0  0  0  0  0  0
   11.7856    6.8851   19.2401 C   0  0  0  0  0  0  0  0  0  0  0  0
   10.5281    7.4276   19.5649 C   0  0  0  0  0  0  0  0  0  0  0  0
   10.0256    7.2907   20.8484 C   0  0  0  0  0  0  0  0  0  0  0  0
    9.3113    5.3049   14.4911 C   0  0  0  0  0  0  0  0  0  0  0  0
    9.4607    7.5646   16.0139 C   0  0  0  0  0  0  0  0  0  0  0  0
   10.4192    7.3157   15.0955 C   0  0  0  0  0  0  0  0  0  0  0  0
   10.2489    6.4227   23.0218 N   0  0  0  0  0  0  0  0  0  0  0  0
    7.2472    8.0746   23.5050 C   0  0  0  0  0  0  0  0  0  0  0  0
    9.2051    6.9101   23.4604 C   0  0  0  0  0  0  0  0  0  0  0  0
   11.9646    6.0299   21.4251 C   0  0  0  0  0  0  0  0  0  0  0  0
  1  5  1  0
  1 13  1  0
  2 20  2  0
  2 28  1  0
  2 29  1  0
  3 19  4  0
  3 25  4  0
  4 23  4  0
  4 27  1  0
  4 30  4  0
  5 17  1  0
  6  8  1  0
  6 29  1  0
  7 24  4  0
  7 26  4  0
  8 28  1  0
  9 13  2  0
 10 18  1  0
 10 21  4  0
 10 30  4  0
 11 17  2  0
 12 18  1  0
 13 15  1  0
 14 24  1  0
 15 25  1  0
 16 28  2  0
 17 20  1  0
 19 24  4  0
 20 23  1  0
 21 22  4  0
 22 23  4  0
 25 26  4  0
 27 29  2  0
M  END
$$$$

 Created by Python create_sdf_string function

 30 33  0  0  0  0  0  0  0  0999 V2000
    8.3036    9.8571   18.4133 C   0  0  0  0  0  0  0  0  0  0  0  0
    8.3694    7.6612   22.6703 C   0  0  0  0  0  0  0  0  0  0  0  0
    8.4143    6.6863   16.2273 C   0  0  0  0  0  0  0  0  0  0  0  0
   10.7581    6.5674   21.7636 C   0  0  0  0  0  0  0  0  0  0  0  0
    8.4452    8.7960   19.2958 O   0  0  0  0  0  0  0  0  0  0  0  0
    8.7122    6.7842   24.8569 C   0  0  0  0  0  0  0  0  0  0  0  0
   10.3400    6.1726   14.3081 C   0  0  0  0  0  0  0  0  0  0  0  0
    7.4297    7.5873   24.8962 C   0  0  0  0  0  0  0  0  0  0  0  0
    8.1566   10.0536   16.0516 O   0  0  0  0  0  0  0  0  0  0  0  0
   12.4989    6.2074   20.1776 C   0  0  0  0  0  0  0  0  0  0  0  0
    6.9192    9.1053   20.9073 O   0  0  0  0  0  0  0  0  0  0  0  0
   14.3979    6.0729   18.7784 C   0  0  0  0  0  0  0  0  0  0  0  0
    8.6811    9.5354   16.9998 C   0  0  0  0  0  0  0  0  0  0  0  0
    9.2512    4.2713   13.7653 O   0  0  0  0  0  0  0  0  0  0  0  0
    9.6495    8.6317   16.8332 N   0  0  0  0  0  0  0  0  0  0  0  0
    6.2934    8.6988   23.1988 O   0  0  0  0  0  0  0  0  0  0  0  0
    7.9806    8.6543   20.5437 C   0  0  0  0  0  0  0  0  0  0  0  0
   13.7270    5.7144   19.8610 O   0  0  0  0  0  0  0  0  0  0  0  0
    8.3351    5.5235   15.4478 C   0  0  0  0  0  0  0  0  0  0  0  0
    8.7700    7.8434   21.3915 C   0  0  0  0  0  0  0  0  0  0  0  0
   11.7856    6.8851   19.2401 C   0  0  0  0  0  0  0  0  0  0  0  0
   10.5281    7.4276   19.5649 C   0  0  0  0  0  0  0  0  0  0  0  0
   10.0256    7.2907   20.8484 C   0  0  0  0  0  0  0  0  0  0  0  0
    9.3113    5.3049   14.4911 C   0  0  0  0  0  0  0  0  0  0  0  0
    9.4607    7.5646   16.0139 C   0  0  0  0  0  0  0  0  0  0  0  0
   10.4192    7.3157   15.0955 C   0  0  0  0  0  0  0  0  0  0  0  0
   10.2489    6.4227   23.0218 N   0  0  0  0  0  0  0  0  0  0  0  0
    7.2472    8.0746   23.5050 C   0  0  0  0  0  0  0  0  0  0  0  0
    9.2051    6.9101   23.4604 C   0  0  0  0  0  0  0  0  0  0  0  0
   11.9646    6.0299   21.4251 C   0  0  0  0  0  0  0  0  0  0  0  0
  1  5  1  0
  1 13  1  0
  2 20  2  0
  2 28  1  0
  2 29  1  0
  3 19  4  0
  3 25  4  0
  4 23  4  0
  4 27  1  0
  4 30  4  0
  5 17  1  0
  6  8  1  0
  6 29  1  0
  7 24  4  0
  7 26  4  0
  8 28  1  0
  9 13  2  0
 10 18  1  0
 10 21  4  0
 10 30  4  0
 11 17  2  0
 12 18  1  0
 13 15  1  0
 14 24  1  0
 15 25  1  0
 16 28  2  0
 17 20  1  0
 19 24  4  0
 20 23  1  0
 21 22  4  0
 22 23  4  0
 25 26  4  0
 27 29  2  0
M  END
$$$$

 Created by Python create_sdf_string function

 30 33  0  0  0  0  0  0  0  0999 V2000
    8.3036    9.8571   18.4133 C   0  0  0  0  0  0  0  0  0  0  0  0
    8.3694    7.6612   22.6703 C   0  0  0  0  0  0  0  0  0  0  0  0
    8.4143    6.6863   16.2273 C   0  0  0  0  0  0  0  0  0  0  0  0
   10.7581    6.5674   21.7636 C   0  0  0  0  0  0  0  0  0  0  0  0
    8.4452    8.7960   19.2958 O   0  0  0  0  0  0  0  0  0  0  0  0
    8.7122    6.7842   24.8569 C   0  0  0  0  0  0  0  0  0  0  0  0
   10.3400    6.1726   14.3081 C   0  0  0  0  0  0  0  0  0  0  0  0
    7.4297    7.5873   24.8962 C   0  0  0  0  0  0  0  0  0  0  0  0
    8.1566   10.0536   16.0516 O   0  0  0  0  0  0  0  0  0  0  0  0
   12.4989    6.2074   20.1776 C   0  0  0  0  0  0  0  0  0  0  0  0
    6.9192    9.1053   20.9073 O   0  0  0  0  0  0  0  0  0  0  0  0
   14.3979    6.0729   18.7784 C   0  0  0  0  0  0  0  0  0  0  0  0
    8.6811    9.5354   16.9998 C   0  0  0  0  0  0  0  0  0  0  0  0
    9.2512    4.2713   13.7653 O   0  0  0  0  0  0  0  0  0  0  0  0
    9.6495    8.6317   16.8332 N   0  0  0  0  0  0  0  0  0  0  0  0
    6.2934    8.6988   23.1988 O   0  0  0  0  0  0  0  0  0  0  0  0
    7.9806    8.6543   20.5437 C   0  0  0  0  0  0  0  0  0  0  0  0
   13.7270    5.7144   19.8610 O   0  0  0  0  0  0  0  0  0  0  0  0
    8.3351    5.5235   15.4478 C   0  0  0  0  0  0  0  0  0  0  0  0
    8.7700    7.8434   21.3915 C   0  0  0  0  0  0  0  0  0  0  0  0
   11.7856    6.8851   19.2401 C   0  0  0  0  0  0  0  0  0  0  0  0
   10.5281    7.4276   19.5649 C   0  0  0  0  0  0  0  0  0  0  0  0
   10.0256    7.2907   20.8484 C   0  0  0  0  0  0  0  0  0  0  0  0
    9.3113    5.3049   14.4911 C   0  0  0  0  0  0  0  0  0  0  0  0
    9.4607    7.5646   16.0139 C   0  0  0  0  0  0  0  0  0  0  0  0
   10.4192    7.3157   15.0955 C   0  0  0  0  0  0  0  0  0  0  0  0
   10.2489    6.4227   23.0218 N   0  0  0  0  0  0  0  0  0  0  0  0
    7.2472    8.0746   23.5050 C   0  0  0  0  0  0  0  0  0  0  0  0
    9.2051    6.9101   23.4604 C   0  0  0  0  0  0  0  0  0  0  0  0
   11.9646    6.0299   21.4251 C   0  0  0  0  0  0  0  0  0  0  0  0
  1  5  1  0
  1 13  1  0
  2 20  2  0
  2 28  1  0
  2 29  1  0
  3 19  4  0
  3 25  4  0
  4 23  4  0
  4 27  1  0
  4 30  4  0
  5 17  1  0
  6  8  1  0
  6 29  1  0
  7 24  4  0
  7 26  4  0
  8 28  1  0
  9 13  2  0
 10 18  1  0
 10 21  4  0
 10 30  4  0
 11 17  2  0
 12 18  1  0
 13 15  1  0
 14 24  1  0
 15 25  1  0
 16 28  2  0
 17 20  1  0
 19 24  4  0
 20 23  1  0
 21 22  4  0
 22 23  4  0
 25 26  4  0
 27 29  2  0
M  END
$$$$

 Created by Python create_sdf_string function

 30 33  0  0  0  0  0  0  0  0999 V2000
    8.3036    9.8571   18.4133 C   0  0  0  0  0  0  0  0  0  0  0  0
    8.3694    7.6612   22.6703 C   0  0  0  0  0  0  0  0  0  0  0  0
    8.4143    6.6863   16.2273 C   0  0  0  0  0  0  0  0  0  0  0  0
   10.7581    6.5674   21.7636 C   0  0  0  0  0  0  0  0  0  0  0  0
    8.4452    8.7960   19.2958 O   0  0  0  0  0  0  0  0  0  0  0  0
    8.7122    6.7842   24.8569 C   0  0  0  0  0  0  0  0  0  0  0  0
   10.3400    6.1726   14.3081 C   0  0  0  0  0  0  0  0  0  0  0  0
    7.4297    7.5873   24.8962 C   0  0  0  0  0  0  0  0  0  0  0  0
    8.1566   10.0536   16.0516 O   0  0  0  0  0  0  0  0  0  0  0  0
   12.4989    6.2074   20.1776 C   0  0  0  0  0  0  0  0  0  0  0  0
    6.9192    9.1053   20.9073 O   0  0  0  0  0  0  0  0  0  0  0  0
   14.3979    6.0729   18.7784 C   0  0  0  0  0  0  0  0  0  0  0  0
    8.6811    9.5354   16.9998 C   0  0  0  0  0  0  0  0  0  0  0  0
    9.2512    4.2713   13.7653 O   0  0  0  0  0  0  0  0  0  0  0  0
    9.6495    8.6317   16.8332 N   0  0  0  0  0  0  0  0  0  0  0  0
    6.2934    8.6988   23.1988 O   0  0  0  0  0  0  0  0  0  0  0  0
    7.9806    8.6543   20.5437 C   0  0  0  0  0  0  0  0  0  0  0  0
   13.7270    5.7144   19.8610 O   0  0  0  0  0  0  0  0  0  0  0  0
    8.3351    5.5235   15.4478 C   0  0  0  0  0  0  0  0  0  0  0  0
    8.7700    7.8434   21.3915 C   0  0  0  0  0  0  0  0  0  0  0  0
   11.7856    6.8851   19.2401 C   0  0  0  0  0  0  0  0  0  0  0  0
   10.5281    7.4276   19.5649 C   0  0  0  0  0  0  0  0  0  0  0  0
   10.0256    7.2907   20.8484 C   0  0  0  0  0  0  0  0  0  0  0  0
    9.3113    5.3049   14.4911 C   0  0  0  0  0  0  0  0  0  0  0  0
    9.4607    7.5646   16.0139 C   0  0  0  0  0  0  0  0  0  0  0  0
   10.4192    7.3157   15.0955 C   0  0  0  0  0  0  0  0  0  0  0  0
   10.2489    6.4227   23.0218 N   0  0  0  0  0  0  0  0  0  0  0  0
    7.2472    8.0746   23.5050 C   0  0  0  0  0  0  0  0  0  0  0  0
    9.2051    6.9101   23.4604 C   0  0  0  0  0  0  0  0  0  0  0  0
   11.9646    6.0299   21.4251 C   0  0  0  0  0  0  0  0  0  0  0  0
  1  5  1  0
  1 13  1  0
  2 20  2  0
  2 28  1  0
  2 29  1  0
  3 19  4  0
  3 25  4  0
  4 23  4  0
  4 27  1  0
  4 30  4  0
  5 17  1  0
  6  8  1  0
  6 29  1  0
  7 24  4  0
  7 26  4  0
  8 28  1  0
  9 13  2  0
 10 18  1  0
 10 21  4  0
 10 30  4  0
 11 17  2  0
 12 18  1  0
 13 15  1  0
 14 24  1  0
 15 25  1  0
 16 28  2  0
 17 20  1  0
 19 24  4  0
 20 23  1  0
 21 22  4  0
 22 23  4  0
 25 26  4  0
 27 29  2  0
M  END
$$$$

 Created by Python create_sdf_string function

 30 33  0  0  0  0  0  0  0  0999 V2000
    8.3036    9.8571   18.4133 C   0  0  0  0  0  0  0  0  0  0  0  0
    8.3694    7.6612   22.6703 C   0  0  0  0  0  0  0  0  0  0  0  0
    8.4143    6.6863   16.2273 C   0  0  0  0  0  0  0  0  0  0  0  0
   10.7581    6.5674   21.7636 C   0  0  0  0  0  0  0  0  0  0  0  0
    8.4452    8.7960   19.2958 O   0  0  0  0  0  0  0  0  0  0  0  0
    8.7122    6.7842   24.8569 C   0  0  0  0  0  0  0  0  0  0  0  0
   10.3400    6.1726   14.3081 C   0  0  0  0  0  0  0  0  0  0  0  0
    7.4297    7.5873   24.8962 C   0  0  0  0  0  0  0  0  0  0  0  0
    8.1566   10.0536   16.0516 O   0  0  0  0  0  0  0  0  0  0  0  0
   12.4989    6.2074   20.1776 C   0  0  0  0  0  0  0  0  0  0  0  0
    6.9192    9.1053   20.9073 O   0  0  0  0  0  0  0  0  0  0  0  0
   14.3979    6.0729   18.7784 C   0  0  0  0  0  0  0  0  0  0  0  0
    8.6811    9.5354   16.9998 C   0  0  0  0  0  0  0  0  0  0  0  0
    9.2512    4.2713   13.7653 O   0  0  0  0  0  0  0  0  0  0  0  0
    9.6495    8.6317   16.8332 N   0  0  0  0  0  0  0  0  0  0  0  0
    6.2934    8.6988   23.1988 O   0  0  0  0  0  0  0  0  0  0  0  0
    7.9806    8.6543   20.5437 C   0  0  0  0  0  0  0  0  0  0  0  0
   13.7270    5.7144   19.8610 O   0  0  0  0  0  0  0  0  0  0  0  0
    8.3351    5.5235   15.4478 C   0  0  0  0  0  0  0  0  0  0  0  0
    8.7700    7.8434   21.3915 C   0  0  0  0  0  0  0  0  0  0  0  0
   11.7856    6.8851   19.2401 C   0  0  0  0  0  0  0  0  0  0  0  0
   10.5281    7.4276   19.5649 C   0  0  0  0  0  0  0  0  0  0  0  0
   10.0256    7.2907   20.8484 C   0  0  0  0  0  0  0  0  0  0  0  0
    9.3113    5.3049   14.4911 C   0  0  0  0  0  0  0  0  0  0  0  0
    9.4607    7.5646   16.0139 C   0  0  0  0  0  0  0  0  0  0  0  0
   10.4192    7.3157   15.0955 C   0  0  0  0  0  0  0  0  0  0  0  0
   10.2489    6.4227   23.0218 N   0  0  0  0  0  0  0  0  0  0  0  0
    7.2472    8.0746   23.5050 C   0  0  0  0  0  0  0  0  0  0  0  0
    9.2051    6.9101   23.4604 C   0  0  0  0  0  0  0  0  0  0  0  0
   11.9646    6.0299   21.4251 C   0  0  0  0  0  0  0  0  0  0  0  0
  1  5  1  0
  1 13  1  0
  2 20  2  0
  2 28  1  0
  2 29  1  0
  3 19  4  0
  3 25  4  0
  4 23  4  0
  4 27  1  0
  4 30  4  0
  5 17  1  0
  6  8  1  0
  6 29  1  0
  7 24  4  0
  7 26  4  0
  8 28  1  0
  9 13  2  0
 10 18  1  0
 10 21  4  0
 10 30  4  0
 11 17  2  0
 12 18  1  0
 13 15  1  0
 14 24  1  0
 15 25  1  0
 16 28  2  0
 17 20  1  0
 19 24  4  0
 20 23  1  0
 21 22  4  0
 22 23  4  0
 25 26  4  0
 27 29  2  0
M  END
$$$$

 Created by Python create_sdf_string function

 30 33  0  0  0  0  0  0  0  0999 V2000
    8.3036    9.8571   18.4133 C   0  0  0  0  0  0  0  0  0  0  0  0
    8.3694    7.6612   22.6703 C   0  0  0  0  0  0  0  0  0  0  0  0
    8.4143    6.6863   16.2273 C   0  0  0  0  0  0  0  0  0  0  0  0
   10.7581    6.5674   21.7636 C   0  0  0  0  0  0  0  0  0  0  0  0
    8.4452    8.7960   19.2958 O   0  0  0  0  0  0  0  0  0  0  0  0
    8.7122    6.7842   24.8569 C   0  0  0  0  0  0  0  0  0  0  0  0
   10.3400    6.1726   14.3081 C   0  0  0  0  0  0  0  0  0  0  0  0
    7.4297    7.5873   24.8962 C   0  0  0  0  0  0  0  0  0  0  0  0
    8.1566   10.0536   16.0516 O   0  0  0  0  0  0  0  0  0  0  0  0
   12.4989    6.2074   20.1776 C   0  0  0  0  0  0  0  0  0  0  0  0
    6.9192    9.1053   20.9073 O   0  0  0  0  0  0  0  0  0  0  0  0
   14.3979    6.0729   18.7784 C   0  0  0  0  0  0  0  0  0  0  0  0
    8.6811    9.5354   16.9998 C   0  0  0  0  0  0  0  0  0  0  0  0
    9.2512    4.2713   13.7653 O   0  0  0  0  0  0  0  0  0  0  0  0
    9.6495    8.6317   16.8332 N   0  0  0  0  0  0  0  0  0  0  0  0
    6.2934    8.6988   23.1988 O   0  0  0  0  0  0  0  0  0  0  0  0
    7.9806    8.6543   20.5437 C   0  0  0  0  0  0  0  0  0  0  0  0
   13.7270    5.7144   19.8610 O   0  0  0  0  0  0  0  0  0  0  0  0
    8.3351    5.5235   15.4478 C   0  0  0  0  0  0  0  0  0  0  0  0
    8.7700    7.8434   21.3915 C   0  0  0  0  0  0  0  0  0  0  0  0
   11.7856    6.8851   19.2401 C   0  0  0  0  0  0  0  0  0  0  0  0
   10.5281    7.4276   19.5649 C   0  0  0  0  0  0  0  0  0  0  0  0
   10.0256    7.2907   20.8484 C   0  0  0  0  0  0  0  0  0  0  0  0
    9.3113    5.3049   14.4911 C   0  0  0  0  0  0  0  0  0  0  0  0
    9.4607    7.5646   16.0139 C   0  0  0  0  0  0  0  0  0  0  0  0
   10.4192    7.3157   15.0955 C   0  0  0  0  0  0  0  0  0  0  0  0
   10.2489    6.4227   23.0218 N   0  0  0  0  0  0  0  0  0  0  0  0
    7.2472    8.0746   23.5050 C   0  0  0  0  0  0  0  0  0  0  0  0
    9.2051    6.9101   23.4604 C   0  0  0  0  0  0  0  0  0  0  0  0
   11.9646    6.0299   21.4251 C   0  0  0  0  0  0  0  0  0  0  0  0
  1  5  1  0
  1 13  1  0
  2 20  2  0
  2 28  1  0
  2 29  1  0
  3 19  4  0
  3 25  4  0
  4 23  4  0
  4 27  1  0
  4 30  4  0
  5 17  1  0
  6  8  1  0
  6 29  1  0
  7 24  4  0
  7 26  4  0
  8 28  1  0
  9 13  2  0
 10 18  1  0
 10 21  4  0
 10 30  4  0
 11 17  2  0
 12 18  1  0
 13 15  1  0
 14 24  1  0
 15 25  1  0
 16 28  2  0
 17 20  1  0
 19 24  4  0
 20 23  1  0
 21 22  4  0
 22 23  4  0
 25 26  4  0
 27 29  2  0
M  END
$$$$

 Created by Python create_sdf_string function

 30 33  0  0  0  0  0  0  0  0999 V2000
    8.3036    9.8571   18.4133 C   0  0  0  0  0  0  0  0  0  0  0  0
    8.3694    7.6612   22.6703 C   0  0  0  0  0  0  0  0  0  0  0  0
    8.4143    6.6863   16.2273 C   0  0  0  0  0  0  0  0  0  0  0  0
   10.7581    6.5674   21.7636 C   0  0  0  0  0  0  0  0  0  0  0  0
    8.4452    8.7960   19.2958 O   0  0  0  0  0  0  0  0  0  0  0  0
    8.7122    6.7842   24.8569 C   0  0  0  0  0  0  0  0  0  0  0  0
   10.3400    6.1726   14.3081 C   0  0  0  0  0  0  0  0  0  0  0  0
    7.4297    7.5873   24.8962 C   0  0  0  0  0  0  0  0  0  0  0  0
    8.1566   10.0536   16.0516 O   0  0  0  0  0  0  0  0  0  0  0  0
   12.4989    6.2074   20.1776 C   0  0  0  0  0  0  0  0  0  0  0  0
    6.9192    9.1053   20.9073 O   0  0  0  0  0  0  0  0  0  0  0  0
   14.3979    6.0729   18.7784 C   0  0  0  0  0  0  0  0  0  0  0  0
    8.6811    9.5354   16.9998 C   0  0  0  0  0  0  0  0  0  0  0  0
    9.2512    4.2713   13.7653 O   0  0  0  0  0  0  0  0  0  0  0  0
    9.6495    8.6317   16.8332 N   0  0  0  0  0  0  0  0  0  0  0  0
    6.2934    8.6988   23.1988 O   0  0  0  0  0  0  0  0  0  0  0  0
    7.9806    8.6543   20.5437 C   0  0  0  0  0  0  0  0  0  0  0  0
   13.7270    5.7144   19.8610 O   0  0  0  0  0  0  0  0  0  0  0  0
    8.3351    5.5235   15.4478 C   0  0  0  0  0  0  0  0  0  0  0  0
    8.7700    7.8434   21.3915 C   0  0  0  0  0  0  0  0  0  0  0  0
   11.7856    6.8851   19.2401 C   0  0  0  0  0  0  0  0  0  0  0  0
   10.5281    7.4276   19.5649 C   0  0  0  0  0  0  0  0  0  0  0  0
   10.0256    7.2907   20.8484 C   0  0  0  0  0  0  0  0  0  0  0  0
    9.3113    5.3049   14.4911 C   0  0  0  0  0  0  0  0  0  0  0  0
    9.4607    7.5646   16.0139 C   0  0  0  0  0  0  0  0  0  0  0  0
   10.4192    7.3157   15.0955 C   0  0  0  0  0  0  0  0  0  0  0  0
   10.2489    6.4227   23.0218 N   0  0  0  0  0  0  0  0  0  0  0  0
    7.2472    8.0746   23.5050 C   0  0  0  0  0  0  0  0  0  0  0  0
    9.2051    6.9101   23.4604 C   0  0  0  0  0  0  0  0  0  0  0  0
   11.9646    6.0299   21.4251 C   0  0  0  0  0  0  0  0  0  0  0  0
  1  5  1  0
  1 13  1  0
  2 20  2  0
  2 28  1  0
  2 29  1  0
  3 19  4  0
  3 25  4  0
  4 23  4  0
  4 27  1  0
  4 30  4  0
  5 17  1  0
  6  8  1  0
  6 29  1  0
  7 24  4  0
  7 26  4  0
  8 28  1  0
  9 13  2  0
 10 18  1  0
 10 21  4  0
 10 30  4  0
 11 17  2  0
 12 18  1  0
 13 15  1  0
 14 24  1  0
 15 25  1  0
 16 28  2  0
 17 20  1  0
 19 24  4  0
 20 23  1  0
 21 22  4  0
 22 23  4  0
 25 26  4  0
 27 29  2  0
M  END
$$$$

 Created by Python create_sdf_string function

 30 33  0  0  0  0  0  0  0  0999 V2000
    8.3036    9.8571   18.4133 C   0  0  0  0  0  0  0  0  0  0  0  0
    8.3694    7.6612   22.6703 C   0  0  0  0  0  0  0  0  0  0  0  0
    8.4143    6.6863   16.2273 C   0  0  0  0  0  0  0  0  0  0  0  0
   10.7581    6.5674   21.7636 C   0  0  0  0  0  0  0  0  0  0  0  0
    8.4452    8.7960   19.2958 O   0  0  0  0  0  0  0  0  0  0  0  0
    8.7122    6.7842   24.8569 C   0  0  0  0  0  0  0  0  0  0  0  0
   10.3400    6.1726   14.3081 C   0  0  0  0  0  0  0  0  0  0  0  0
    7.4297    7.5873   24.8962 C   0  0  0  0  0  0  0  0  0  0  0  0
    8.1566   10.0536   16.0516 O   0  0  0  0  0  0  0  0  0  0  0  0
   12.4989    6.2074   20.1776 C   0  0  0  0  0  0  0  0  0  0  0  0
    6.9192    9.1053   20.9073 O   0  0  0  0  0  0  0  0  0  0  0  0
   14.3979    6.0729   18.7784 C   0  0  0  0  0  0  0  0  0  0  0  0
    8.6811    9.5354   16.9998 C   0  0  0  0  0  0  0  0  0  0  0  0
    9.2512    4.2713   13.7653 O   0  0  0  0  0  0  0  0  0  0  0  0
    9.6495    8.6317   16.8332 N   0  0  0  0  0  0  0  0  0  0  0  0
    6.2934    8.6988   23.1988 O   0  0  0  0  0  0  0  0  0  0  0  0
    7.9806    8.6543   20.5437 C   0  0  0  0  0  0  0  0  0  0  0  0
   13.7270    5.7144   19.8610 O   0  0  0  0  0  0  0  0  0  0  0  0
    8.3351    5.5235   15.4478 C   0  0  0  0  0  0  0  0  0  0  0  0
    8.7700    7.8434   21.3915 C   0  0  0  0  0  0  0  0  0  0  0  0
   11.7856    6.8851   19.2401 C   0  0  0  0  0  0  0  0  0  0  0  0
   10.5281    7.4276   19.5649 C   0  0  0  0  0  0  0  0  0  0  0  0
   10.0256    7.2907   20.8484 C   0  0  0  0  0  0  0  0  0  0  0  0
    9.3113    5.3049   14.4911 C   0  0  0  0  0  0  0  0  0  0  0  0
    9.4607    7.5646   16.0139 C   0  0  0  0  0  0  0  0  0  0  0  0
   10.4192    7.3157   15.0955 C   0  0  0  0  0  0  0  0  0  0  0  0
   10.2489    6.4227   23.0218 N   0  0  0  0  0  0  0  0  0  0  0  0
    7.2472    8.0746   23.5050 C   0  0  0  0  0  0  0  0  0  0  0  0
    9.2051    6.9101   23.4604 C   0  0  0  0  0  0  0  0  0  0  0  0
   11.9646    6.0299   21.4251 C   0  0  0  0  0  0  0  0  0  0  0  0
  1  5  1  0
  1 13  1  0
  2 20  2  0
  2 28  1  0
  2 29  1  0
  3 19  4  0
  3 25  4  0
  4 23  4  0
  4 27  1  0
  4 30  4  0
  5 17  1  0
  6  8  1  0
  6 29  1  0
  7 24  4  0
  7 26  4  0
  8 28  1  0
  9 13  2  0
 10 18  1  0
 10 21  4  0
 10 30  4  0
 11 17  2  0
 12 18  1  0
 13 15  1  0
 14 24  1  0
 15 25  1  0
 16 28  2  0
 17 20  1  0
 19 24  4  0
 20 23  1  0
 21 22  4  0
 22 23  4  0
 25 26  4  0
 27 29  2  0
M  END
$$$$

 Created by Python create_sdf_string function

 30 33  0  0  0  0  0  0  0  0999 V2000
    8.3036    9.8571   18.4133 C   0  0  0  0  0  0  0  0  0  0  0  0
    8.3694    7.6612   22.6703 C   0  0  0  0  0  0  0  0  0  0  0  0
    8.4143    6.6863   16.2273 C   0  0  0  0  0  0  0  0  0  0  0  0
   10.7581    6.5674   21.7636 C   0  0  0  0  0  0  0  0  0  0  0  0
    8.4452    8.7960   19.2958 O   0  0  0  0  0  0  0  0  0  0  0  0
    8.7122    6.7842   24.8569 C   0  0  0  0  0  0  0  0  0  0  0  0
   10.3400    6.1726   14.3081 C   0  0  0  0  0  0  0  0  0  0  0  0
    7.4297    7.5873   24.8962 C   0  0  0  0  0  0  0  0  0  0  0  0
    8.1566   10.0536   16.0516 O   0  0  0  0  0  0  0  0  0  0  0  0
   12.4989    6.2074   20.1776 C   0  0  0  0  0  0  0  0  0  0  0  0
    6.9192    9.1053   20.9073 O   0  0  0  0  0  0  0  0  0  0  0  0
   14.3979    6.0729   18.7784 C   0  0  0  0  0  0  0  0  0  0  0  0
    8.6811    9.5354   16.9998 C   0  0  0  0  0  0  0  0  0  0  0  0
    9.2512    4.2713   13.7653 O   0  0  0  0  0  0  0  0  0  0  0  0
    9.6495    8.6317   16.8332 N   0  0  0  0  0  0  0  0  0  0  0  0
    6.2934    8.6988   23.1988 O   0  0  0  0  0  0  0  0  0  0  0  0
    7.9806    8.6543   20.5437 C   0  0  0  0  0  0  0  0  0  0  0  0
   13.7270    5.7144   19.8610 O   0  0  0  0  0  0  0  0  0  0  0  0
    8.3351    5.5235   15.4478 C   0  0  0  0  0  0  0  0  0  0  0  0
    8.7700    7.8434   21.3915 C   0  0  0  0  0  0  0  0  0  0  0  0
   11.7856    6.8851   19.2401 C   0  0  0  0  0  0  0  0  0  0  0  0
   10.5281    7.4276   19.5649 C   0  0  0  0  0  0  0  0  0  0  0  0
   10.0256    7.2907   20.8484 C   0  0  0  0  0  0  0  0  0  0  0  0
    9.3113    5.3049   14.4911 C   0  0  0  0  0  0  0  0  0  0  0  0
    9.4607    7.5646   16.0139 C   0  0  0  0  0  0  0  0  0  0  0  0
   10.4192    7.3157   15.0955 C   0  0  0  0  0  0  0  0  0  0  0  0
   10.2489    6.4227   23.0218 N   0  0  0  0  0  0  0  0  0  0  0  0
    7.2472    8.0746   23.5050 C   0  0  0  0  0  0  0  0  0  0  0  0
    9.2051    6.9101   23.4604 C   0  0  0  0  0  0  0  0  0  0  0  0
   11.9646    6.0299   21.4251 C   0  0  0  0  0  0  0  0  0  0  0  0
  1  5  1  0
  1 13  1  0
  2 20  2  0
  2 28  1  0
  2 29  1  0
  3 19  4  0
  3 25  4  0
  4 23  4  0
  4 27  1  0
  4 30  4  0
  5 17  1  0
  6  8  1  0
  6 29  1  0
  7 24  4  0
  7 26  4  0
  8 28  1  0
  9 13  2  0
 10 18  1  0
 10 21  4  0
 10 30  4  0
 11 17  2  0
 12 18  1  0
 13 15  1  0
 14 24  1  0
 15 25  1  0
 16 28  2  0
 17 20  1  0
 19 24  4  0
 20 23  1  0
 21 22  4  0
 22 23  4  0
 25 26  4  0
 27 29  2  0
M  END
$$$$

 Created by Python create_sdf_string function

 30 33  0  0  0  0  0  0  0  0999 V2000
    8.3036    9.8571   18.4133 C   0  0  0  0  0  0  0  0  0  0  0  0
    8.3694    7.6612   22.6703 C   0  0  0  0  0  0  0  0  0  0  0  0
    8.4143    6.6863   16.2273 C   0  0  0  0  0  0  0  0  0  0  0  0
   10.7581    6.5674   21.7636 C   0  0  0  0  0  0  0  0  0  0  0  0
    8.4452    8.7960   19.2958 O   0  0  0  0  0  0  0  0  0  0  0  0
    8.7122    6.7842   24.8569 C   0  0  0  0  0  0  0  0  0  0  0  0
   10.3400    6.1726   14.3081 C   0  0  0  0  0  0  0  0  0  0  0  0
    7.4297    7.5873   24.8962 C   0  0  0  0  0  0  0  0  0  0  0  0
    8.1566   10.0536   16.0516 O   0  0  0  0  0  0  0  0  0  0  0  0
   12.4989    6.2074   20.1776 C   0  0  0  0  0  0  0  0  0  0  0  0
    6.9192    9.1053   20.9073 O   0  0  0  0  0  0  0  0  0  0  0  0
   14.3979    6.0729   18.7784 C   0  0  0  0  0  0  0  0  0  0  0  0
    8.6811    9.5354   16.9998 C   0  0  0  0  0  0  0  0  0  0  0  0
    9.2512    4.2713   13.7653 O   0  0  0  0  0  0  0  0  0  0  0  0
    9.6495    8.6317   16.8332 N   0  0  0  0  0  0  0  0  0  0  0  0
    6.2934    8.6988   23.1988 O   0  0  0  0  0  0  0  0  0  0  0  0
    7.9806    8.6543   20.5437 C   0  0  0  0  0  0  0  0  0  0  0  0
   13.7270    5.7144   19.8610 O   0  0  0  0  0  0  0  0  0  0  0  0
    8.3351    5.5235   15.4478 C   0  0  0  0  0  0  0  0  0  0  0  0
    8.7700    7.8434   21.3915 C   0  0  0  0  0  0  0  0  0  0  0  0
   11.7856    6.8851   19.2401 C   0  0  0  0  0  0  0  0  0  0  0  0
   10.5281    7.4276   19.5649 C   0  0  0  0  0  0  0  0  0  0  0  0
   10.0256    7.2907   20.8484 C   0  0  0  0  0  0  0  0  0  0  0  0
    9.3113    5.3049   14.4911 C   0  0  0  0  0  0  0  0  0  0  0  0
    9.4607    7.5646   16.0139 C   0  0  0  0  0  0  0  0  0  0  0  0
   10.4192    7.3157   15.0955 C   0  0  0  0  0  0  0  0  0  0  0  0
   10.2489    6.4227   23.0218 N   0  0  0  0  0  0  0  0  0  0  0  0
    7.2472    8.0746   23.5050 C   0  0  0  0  0  0  0  0  0  0  0  0
    9.2051    6.9101   23.4604 C   0  0  0  0  0  0  0  0  0  0  0  0
   11.9646    6.0299   21.4251 C   0  0  0  0  0  0  0  0  0  0  0  0
  1  5  1  0
  1 13  1  0
  2 20  2  0
  2 28  1  0
  2 29  1  0
  3 19  4  0
  3 25  4  0
  4 23  4  0
  4 27  1  0
  4 30  4  0
  5 17  1  0
  6  8  1  0
  6 29  1  0
  7 24  4  0
  7 26  4  0
  8 28  1  0
  9 13  2  0
 10 18  1  0
 10 21  4  0
 10 30  4  0
 11 17  2  0
 12 18  1  0
 13 15  1  0
 14 24  1  0
 15 25  1  0
 16 28  2  0
 17 20  1  0
 19 24  4  0
 20 23  1  0
 21 22  4  0
 22 23  4  0
 25 26  4  0
 27 29  2  0
M  END
$$$$

 Created by Python create_sdf_string function

 30 33  0  0  0  0  0  0  0  0999 V2000
    8.3036    9.8571   18.4133 C   0  0  0  0  0  0  0  0  0  0  0  0
    8.3694    7.6612   22.6703 C   0  0  0  0  0  0  0  0  0  0  0  0
    8.4143    6.6863   16.2273 C   0  0  0  0  0  0  0  0  0  0  0  0
   10.7581    6.5674   21.7636 C   0  0  0  0  0  0  0  0  0  0  0  0
    8.4452    8.7960   19.2958 O   0  0  0  0  0  0  0  0  0  0  0  0
    8.7122    6.7842   24.8569 C   0  0  0  0  0  0  0  0  0  0  0  0
   10.3400    6.1726   14.3081 C   0  0  0  0  0  0  0  0  0  0  0  0
    7.4297    7.5873   24.8962 C   0  0  0  0  0  0  0  0  0  0  0  0
    8.1566   10.0536   16.0516 O   0  0  0  0  0  0  0  0  0  0  0  0
   12.4989    6.2074   20.1776 C   0  0  0  0  0  0  0  0  0  0  0  0
    6.9192    9.1053   20.9073 O   0  0  0  0  0  0  0  0  0  0  0  0
   14.3979    6.0729   18.7784 C   0  0  0  0  0  0  0  0  0  0  0  0
    8.6811    9.5354   16.9998 C   0  0  0  0  0  0  0  0  0  0  0  0
    9.2512    4.2713   13.7653 O   0  0  0  0  0  0  0  0  0  0  0  0
    9.6495    8.6317   16.8332 N   0  0  0  0  0  0  0  0  0  0  0  0
    6.2934    8.6988   23.1988 O   0  0  0  0  0  0  0  0  0  0  0  0
    7.9806    8.6543   20.5437 C   0  0  0  0  0  0  0  0  0  0  0  0
   13.7270    5.7144   19.8610 O   0  0  0  0  0  0  0  0  0  0  0  0
    8.3351    5.5235   15.4478 C   0  0  0  0  0  0  0  0  0  0  0  0
    8.7700    7.8434   21.3915 C   0  0  0  0  0  0  0  0  0  0  0  0
   11.7856    6.8851   19.2401 C   0  0  0  0  0  0  0  0  0  0  0  0
   10.5281    7.4276   19.5649 C   0  0  0  0  0  0  0  0  0  0  0  0
   10.0256    7.2907   20.8484 C   0  0  0  0  0  0  0  0  0  0  0  0
    9.3113    5.3049   14.4911 C   0  0  0  0  0  0  0  0  0  0  0  0
    9.4607    7.5646   16.0139 C   0  0  0  0  0  0  0  0  0  0  0  0
   10.4192    7.3157   15.0955 C   0  0  0  0  0  0  0  0  0  0  0  0
   10.2489    6.4227   23.0218 N   0  0  0  0  0  0  0  0  0  0  0  0
    7.2472    8.0746   23.5050 C   0  0  0  0  0  0  0  0  0  0  0  0
    9.2051    6.9101   23.4604 C   0  0  0  0  0  0  0  0  0  0  0  0
   11.9646    6.0299   21.4251 C   0  0  0  0  0  0  0  0  0  0  0  0
  1  5  1  0
  1 13  1  0
  2 20  2  0
  2 28  1  0
  2 29  1  0
  3 19  4  0
  3 25  4  0
  4 23  4  0
  4 27  1  0
  4 30  4  0
  5 17  1  0
  6  8  1  0
  6 29  1  0
  7 24  4  0
  7 26  4  0
  8 28  1  0
  9 13  2  0
 10 18  1  0
 10 21  4  0
 10 30  4  0
 11 17  2  0
 12 18  1  0
 13 15  1  0
 14 24  1  0
 15 25  1  0
 16 28  2  0
 17 20  1  0
 19 24  4  0
 20 23  1  0
 21 22  4  0
 22 23  4  0
 25 26  4  0
 27 29  2  0
M  END
$$$$

 Created by Python create_sdf_string function

 30 33  0  0  0  0  0  0  0  0999 V2000
    8.3036    9.8571   18.4133 C   0  0  0  0  0  0  0  0  0  0  0  0
    8.3694    7.6612   22.6703 C   0  0  0  0  0  0  0  0  0  0  0  0
    8.4143    6.6863   16.2273 C   0  0  0  0  0  0  0  0  0  0  0  0
   10.7581    6.5674   21.7636 C   0  0  0  0  0  0  0  0  0  0  0  0
    8.4452    8.7960   19.2958 O   0  0  0  0  0  0  0  0  0  0  0  0
    8.7122    6.7842   24.8569 C   0  0  0  0  0  0  0  0  0  0  0  0
   10.3400    6.1726   14.3081 C   0  0  0  0  0  0  0  0  0  0  0  0
    7.4297    7.5873   24.8962 C   0  0  0  0  0  0  0  0  0  0  0  0
    8.1566   10.0536   16.0516 O   0  0  0  0  0  0  0  0  0  0  0  0
   12.4989    6.2074   20.1776 C   0  0  0  0  0  0  0  0  0  0  0  0
    6.9192    9.1053   20.9073 O   0  0  0  0  0  0  0  0  0  0  0  0
   14.3979    6.0729   18.7784 C   0  0  0  0  0  0  0  0  0  0  0  0
    8.6811    9.5354   16.9998 C   0  0  0  0  0  0  0  0  0  0  0  0
    9.2512    4.2713   13.7653 O   0  0  0  0  0  0  0  0  0  0  0  0
    9.6495    8.6317   16.8332 N   0  0  0  0  0  0  0  0  0  0  0  0
    6.2934    8.6988   23.1988 O   0  0  0  0  0  0  0  0  0  0  0  0
    7.9806    8.6543   20.5437 C   0  0  0  0  0  0  0  0  0  0  0  0
   13.7270    5.7144   19.8610 O   0  0  0  0  0  0  0  0  0  0  0  0
    8.3351    5.5235   15.4478 C   0  0  0  0  0  0  0  0  0  0  0  0
    8.7700    7.8434   21.3915 C   0  0  0  0  0  0  0  0  0  0  0  0
   11.7856    6.8851   19.2401 C   0  0  0  0  0  0  0  0  0  0  0  0
   10.5281    7.4276   19.5649 C   0  0  0  0  0  0  0  0  0  0  0  0
   10.0256    7.2907   20.8484 C   0  0  0  0  0  0  0  0  0  0  0  0
    9.3113    5.3049   14.4911 C   0  0  0  0  0  0  0  0  0  0  0  0
    9.4607    7.5646   16.0139 C   0  0  0  0  0  0  0  0  0  0  0  0
   10.4192    7.3157   15.0955 C   0  0  0  0  0  0  0  0  0  0  0  0
   10.2489    6.4227   23.0218 N   0  0  0  0  0  0  0  0  0  0  0  0
    7.2472    8.0746   23.5050 C   0  0  0  0  0  0  0  0  0  0  0  0
    9.2051    6.9101   23.4604 C   0  0  0  0  0  0  0  0  0  0  0  0
   11.9646    6.0299   21.4251 C   0  0  0  0  0  0  0  0  0  0  0  0
  1  5  1  0
  1 13  1  0
  2 20  2  0
  2 28  1  0
  2 29  1  0
  3 19  4  0
  3 25  4  0
  4 23  4  0
  4 27  1  0
  4 30  4  0
  5 17  1  0
  6  8  1  0
  6 29  1  0
  7 24  4  0
  7 26  4  0
  8 28  1  0
  9 13  2  0
 10 18  1  0
 10 21  4  0
 10 30  4  0
 11 17  2  0
 12 18  1  0
 13 15  1  0
 14 24  1  0
 15 25  1  0
 16 28  2  0
 17 20  1  0
 19 24  4  0
 20 23  1  0
 21 22  4  0
 22 23  4  0
 25 26  4  0
 27 29  2  0
M  END
$$$$

 Created by Python create_sdf_string function

 30 33  0  0  0  0  0  0  0  0999 V2000
    8.3036    9.8571   18.4133 C   0  0  0  0  0  0  0  0  0  0  0  0
    8.3694    7.6612   22.6703 C   0  0  0  0  0  0  0  0  0  0  0  0
    8.4143    6.6863   16.2273 C   0  0  0  0  0  0  0  0  0  0  0  0
   10.7581    6.5674   21.7636 C   0  0  0  0  0  0  0  0  0  0  0  0
    8.4452    8.7960   19.2958 O   0  0  0  0  0  0  0  0  0  0  0  0
    8.7122    6.7842   24.8569 C   0  0  0  0  0  0  0  0  0  0  0  0
   10.3400    6.1726   14.3081 C   0  0  0  0  0  0  0  0  0  0  0  0
    7.4297    7.5873   24.8962 C   0  0  0  0  0  0  0  0  0  0  0  0
    8.1566   10.0536   16.0516 O   0  0  0  0  0  0  0  0  0  0  0  0
   12.4989    6.2074   20.1776 C   0  0  0  0  0  0  0  0  0  0  0  0
    6.9192    9.1053   20.9073 O   0  0  0  0  0  0  0  0  0  0  0  0
   14.3979    6.0729   18.7784 C   0  0  0  0  0  0  0  0  0  0  0  0
    8.6811    9.5354   16.9998 C   0  0  0  0  0  0  0  0  0  0  0  0
    9.2512    4.2713   13.7653 O   0  0  0  0  0  0  0  0  0  0  0  0
    9.6495    8.6317   16.8332 N   0  0  0  0  0  0  0  0  0  0  0  0
    6.2934    8.6988   23.1988 O   0  0  0  0  0  0  0  0  0  0  0  0
    7.9806    8.6543   20.5437 C   0  0  0  0  0  0  0  0  0  0  0  0
   13.7270    5.7144   19.8610 O   0  0  0  0  0  0  0  0  0  0  0  0
    8.3351    5.5235   15.4478 C   0  0  0  0  0  0  0  0  0  0  0  0
    8.7700    7.8434   21.3915 C   0  0  0  0  0  0  0  0  0  0  0  0
   11.7856    6.8851   19.2401 C   0  0  0  0  0  0  0  0  0  0  0  0
   10.5281    7.4276   19.5649 C   0  0  0  0  0  0  0  0  0  0  0  0
   10.0256    7.2907   20.8484 C   0  0  0  0  0  0  0  0  0  0  0  0
    9.3113    5.3049   14.4911 C   0  0  0  0  0  0  0  0  0  0  0  0
    9.4607    7.5646   16.0139 C   0  0  0  0  0  0  0  0  0  0  0  0
   10.4192    7.3157   15.0955 C   0  0  0  0  0  0  0  0  0  0  0  0
   10.2489    6.4227   23.0218 N   0  0  0  0  0  0  0  0  0  0  0  0
    7.2472    8.0746   23.5050 C   0  0  0  0  0  0  0  0  0  0  0  0
    9.2051    6.9101   23.4604 C   0  0  0  0  0  0  0  0  0  0  0  0
   11.9646    6.0299   21.4251 C   0  0  0  0  0  0  0  0  0  0  0  0
  1  5  1  0
  1 13  1  0
  2 20  2  0
  2 28  1  0
  2 29  1  0
  3 19  4  0
  3 25  4  0
  4 23  4  0
  4 27  1  0
  4 30  4  0
  5 17  1  0
  6  8  1  0
  6 29  1  0
  7 24  4  0
  7 26  4  0
  8 28  1  0
  9 13  2  0
 10 18  1  0
 10 21  4  0
 10 30  4  0
 11 17  2  0
 12 18  1  0
 13 15  1  0
 14 24  1  0
 15 25  1  0
 16 28  2  0
 17 20  1  0
 19 24  4  0
 20 23  1  0
 21 22  4  0
 22 23  4  0
 25 26  4  0
 27 29  2  0
M  END
$$$$

 Created by Python create_sdf_string function

 30 33  0  0  0  0  0  0  0  0999 V2000
    8.3036    9.8571   18.4133 C   0  0  0  0  0  0  0  0  0  0  0  0
    8.3694    7.6612   22.6703 C   0  0  0  0  0  0  0  0  0  0  0  0
    8.4143    6.6863   16.2273 C   0  0  0  0  0  0  0  0  0  0  0  0
   10.7581    6.5674   21.7636 C   0  0  0  0  0  0  0  0  0  0  0  0
    8.4452    8.7960   19.2958 O   0  0  0  0  0  0  0  0  0  0  0  0
    8.7122    6.7842   24.8569 C   0  0  0  0  0  0  0  0  0  0  0  0
   10.3400    6.1726   14.3081 C   0  0  0  0  0  0  0  0  0  0  0  0
    7.4297    7.5873   24.8962 C   0  0  0  0  0  0  0  0  0  0  0  0
    8.1566   10.0536   16.0516 O   0  0  0  0  0  0  0  0  0  0  0  0
   12.4989    6.2074   20.1776 C   0  0  0  0  0  0  0  0  0  0  0  0
    6.9192    9.1053   20.9073 O   0  0  0  0  0  0  0  0  0  0  0  0
   14.3979    6.0729   18.7784 C   0  0  0  0  0  0  0  0  0  0  0  0
    8.6811    9.5354   16.9998 C   0  0  0  0  0  0  0  0  0  0  0  0
    9.2512    4.2713   13.7653 O   0  0  0  0  0  0  0  0  0  0  0  0
    9.6495    8.6317   16.8332 N   0  0  0  0  0  0  0  0  0  0  0  0
    6.2934    8.6988   23.1988 O   0  0  0  0  0  0  0  0  0  0  0  0
    7.9806    8.6543   20.5437 C   0  0  0  0  0  0  0  0  0  0  0  0
   13.7270    5.7144   19.8610 O   0  0  0  0  0  0  0  0  0  0  0  0
    8.3351    5.5235   15.4478 C   0  0  0  0  0  0  0  0  0  0  0  0
    8.7700    7.8434   21.3915 C   0  0  0  0  0  0  0  0  0  0  0  0
   11.7856    6.8851   19.2401 C   0  0  0  0  0  0  0  0  0  0  0  0
   10.5281    7.4276   19.5649 C   0  0  0  0  0  0  0  0  0  0  0  0
   10.0256    7.2907   20.8484 C   0  0  0  0  0  0  0  0  0  0  0  0
    9.3113    5.3049   14.4911 C   0  0  0  0  0  0  0  0  0  0  0  0
    9.4607    7.5646   16.0139 C   0  0  0  0  0  0  0  0  0  0  0  0
   10.4192    7.3157   15.0955 C   0  0  0  0  0  0  0  0  0  0  0  0
   10.2489    6.4227   23.0218 N   0  0  0  0  0  0  0  0  0  0  0  0
    7.2472    8.0746   23.5050 C   0  0  0  0  0  0  0  0  0  0  0  0
    9.2051    6.9101   23.4604 C   0  0  0  0  0  0  0  0  0  0  0  0
   11.9646    6.0299   21.4251 C   0  0  0  0  0  0  0  0  0  0  0  0
  1  5  1  0
  1 13  1  0
  2 20  2  0
  2 28  1  0
  2 29  1  0
  3 19  4  0
  3 25  4  0
  4 23  4  0
  4 27  1  0
  4 30  4  0
  5 17  1  0
  6  8  1  0
  6 29  1  0
  7 24  4  0
  7 26  4  0
  8 28  1  0
  9 13  2  0
 10 18  1  0
 10 21  4  0
 10 30  4  0
 11 17  2  0
 12 18  1  0
 13 15  1  0
 14 24  1  0
 15 25  1  0
 16 28  2  0
 17 20  1  0
 19 24  4  0
 20 23  1  0
 21 22  4  0
 22 23  4  0
 25 26  4  0
 27 29  2  0
M  END
$$$$

 Created by Python create_sdf_string function

 30 33  0  0  0  0  0  0  0  0999 V2000
    8.3036    9.8571   18.4133 C   0  0  0  0  0  0  0  0  0  0  0  0
    8.3694    7.6612   22.6703 C   0  0  0  0  0  0  0  0  0  0  0  0
    8.4143    6.6863   16.2273 C   0  0  0  0  0  0  0  0  0  0  0  0
   10.7581    6.5674   21.7636 C   0  0  0  0  0  0  0  0  0  0  0  0
    8.4452    8.7960   19.2958 O   0  0  0  0  0  0  0  0  0  0  0  0
    8.7122    6.7842   24.8569 C   0  0  0  0  0  0  0  0  0  0  0  0
   10.3400    6.1726   14.3081 C   0  0  0  0  0  0  0  0  0  0  0  0
    7.4297    7.5873   24.8962 C   0  0  0  0  0  0  0  0  0  0  0  0
    8.1566   10.0536   16.0516 O   0  0  0  0  0  0  0  0  0  0  0  0
   12.4989    6.2074   20.1776 C   0  0  0  0  0  0  0  0  0  0  0  0
    6.9192    9.1053   20.9073 O   0  0  0  0  0  0  0  0  0  0  0  0
   14.3979    6.0729   18.7784 C   0  0  0  0  0  0  0  0  0  0  0  0
    8.6811    9.5354   16.9998 C   0  0  0  0  0  0  0  0  0  0  0  0
    9.2512    4.2713   13.7653 O   0  0  0  0  0  0  0  0  0  0  0  0
    9.6495    8.6317   16.8332 N   0  0  0  0  0  0  0  0  0  0  0  0
    6.2934    8.6988   23.1988 O   0  0  0  0  0  0  0  0  0  0  0  0
    7.9806    8.6543   20.5437 C   0  0  0  0  0  0  0  0  0  0  0  0
   13.7270    5.7144   19.8610 O   0  0  0  0  0  0  0  0  0  0  0  0
    8.3351    5.5235   15.4478 C   0  0  0  0  0  0  0  0  0  0  0  0
    8.7700    7.8434   21.3915 C   0  0  0  0  0  0  0  0  0  0  0  0
   11.7856    6.8851   19.2401 C   0  0  0  0  0  0  0  0  0  0  0  0
   10.5281    7.4276   19.5649 C   0  0  0  0  0  0  0  0  0  0  0  0
   10.0256    7.2907   20.8484 C   0  0  0  0  0  0  0  0  0  0  0  0
    9.3113    5.3049   14.4911 C   0  0  0  0  0  0  0  0  0  0  0  0
    9.4607    7.5646   16.0139 C   0  0  0  0  0  0  0  0  0  0  0  0
   10.4192    7.3157   15.0955 C   0  0  0  0  0  0  0  0  0  0  0  0
   10.2489    6.4227   23.0218 N   0  0  0  0  0  0  0  0  0  0  0  0
    7.2472    8.0746   23.5050 C   0  0  0  0  0  0  0  0  0  0  0  0
    9.2051    6.9101   23.4604 C   0  0  0  0  0  0  0  0  0  0  0  0
   11.9646    6.0299   21.4251 C   0  0  0  0  0  0  0  0  0  0  0  0
  1  5  1  0
  1 13  1  0
  2 20  2  0
  2 28  1  0
  2 29  1  0
  3 19  4  0
  3 25  4  0
  4 23  4  0
  4 27  1  0
  4 30  4  0
  5 17  1  0
  6  8  1  0
  6 29  1  0
  7 24  4  0
  7 26  4  0
  8 28  1  0
  9 13  2  0
 10 18  1  0
 10 21  4  0
 10 30  4  0
 11 17  2  0
 12 18  1  0
 13 15  1  0
 14 24  1  0
 15 25  1  0
 16 28  2  0
 17 20  1  0
 19 24  4  0
 20 23  1  0
 21 22  4  0
 22 23  4  0
 25 26  4  0
 27 29  2  0
M  END
$$$$

 Created by Python create_sdf_string function

 30 33  0  0  0  0  0  0  0  0999 V2000
    8.3036    9.8571   18.4133 C   0  0  0  0  0  0  0  0  0  0  0  0
    8.3694    7.6612   22.6703 C   0  0  0  0  0  0  0  0  0  0  0  0
    8.4143    6.6863   16.2273 C   0  0  0  0  0  0  0  0  0  0  0  0
   10.7581    6.5674   21.7636 C   0  0  0  0  0  0  0  0  0  0  0  0
    8.4452    8.7960   19.2958 O   0  0  0  0  0  0  0  0  0  0  0  0
    8.7122    6.7842   24.8569 C   0  0  0  0  0  0  0  0  0  0  0  0
   10.3400    6.1726   14.3081 C   0  0  0  0  0  0  0  0  0  0  0  0
    7.4297    7.5873   24.8962 C   0  0  0  0  0  0  0  0  0  0  0  0
    8.1566   10.0536   16.0516 O   0  0  0  0  0  0  0  0  0  0  0  0
   12.4989    6.2074   20.1776 C   0  0  0  0  0  0  0  0  0  0  0  0
    6.9192    9.1053   20.9073 O   0  0  0  0  0  0  0  0  0  0  0  0
   14.3979    6.0729   18.7784 C   0  0  0  0  0  0  0  0  0  0  0  0
    8.6811    9.5354   16.9998 C   0  0  0  0  0  0  0  0  0  0  0  0
    9.2512    4.2713   13.7653 O   0  0  0  0  0  0  0  0  0  0  0  0
    9.6495    8.6317   16.8332 N   0  0  0  0  0  0  0  0  0  0  0  0
    6.2934    8.6988   23.1988 O   0  0  0  0  0  0  0  0  0  0  0  0
    7.9806    8.6543   20.5437 C   0  0  0  0  0  0  0  0  0  0  0  0
   13.7270    5.7144   19.8610 O   0  0  0  0  0  0  0  0  0  0  0  0
    8.3351    5.5235   15.4478 C   0  0  0  0  0  0  0  0  0  0  0  0
    8.7700    7.8434   21.3915 C   0  0  0  0  0  0  0  0  0  0  0  0
   11.7856    6.8851   19.2401 C   0  0  0  0  0  0  0  0  0  0  0  0
   10.5281    7.4276   19.5649 C   0  0  0  0  0  0  0  0  0  0  0  0
   10.0256    7.2907   20.8484 C   0  0  0  0  0  0  0  0  0  0  0  0
    9.3113    5.3049   14.4911 C   0  0  0  0  0  0  0  0  0  0  0  0
    9.4607    7.5646   16.0139 C   0  0  0  0  0  0  0  0  0  0  0  0
   10.4192    7.3157   15.0955 C   0  0  0  0  0  0  0  0  0  0  0  0
   10.2489    6.4227   23.0218 N   0  0  0  0  0  0  0  0  0  0  0  0
    7.2472    8.0746   23.5050 C   0  0  0  0  0  0  0  0  0  0  0  0
    9.2051    6.9101   23.4604 C   0  0  0  0  0  0  0  0  0  0  0  0
   11.9646    6.0299   21.4251 C   0  0  0  0  0  0  0  0  0  0  0  0
  1  5  1  0
  1 13  1  0
  2 20  2  0
  2 28  1  0
  2 29  1  0
  3 19  4  0
  3 25  4  0
  4 23  4  0
  4 27  1  0
  4 30  4  0
  5 17  1  0
  6  8  1  0
  6 29  1  0
  7 24  4  0
  7 26  4  0
  8 28  1  0
  9 13  2  0
 10 18  1  0
 10 21  4  0
 10 30  4  0
 11 17  2  0
 12 18  1  0
 13 15  1  0
 14 24  1  0
 15 25  1  0
 16 28  2  0
 17 20  1  0
 19 24  4  0
 20 23  1  0
 21 22  4  0
 22 23  4  0
 25 26  4  0
 27 29  2  0
M  END
$$$$

 Created by Python create_sdf_string function

 30 33  0  0  0  0  0  0  0  0999 V2000
    8.3036    9.8571   18.4133 C   0  0  0  0  0  0  0  0  0  0  0  0
    8.3694    7.6612   22.6703 C   0  0  0  0  0  0  0  0  0  0  0  0
    8.4143    6.6863   16.2273 C   0  0  0  0  0  0  0  0  0  0  0  0
   10.7581    6.5674   21.7636 C   0  0  0  0  0  0  0  0  0  0  0  0
    8.4452    8.7960   19.2958 O   0  0  0  0  0  0  0  0  0  0  0  0
    8.7122    6.7842   24.8569 C   0  0  0  0  0  0  0  0  0  0  0  0
   10.3400    6.1726   14.3081 C   0  0  0  0  0  0  0  0  0  0  0  0
    7.4297    7.5873   24.8962 C   0  0  0  0  0  0  0  0  0  0  0  0
    8.1566   10.0536   16.0516 O   0  0  0  0  0  0  0  0  0  0  0  0
   12.4989    6.2074   20.1776 C   0  0  0  0  0  0  0  0  0  0  0  0
    6.9192    9.1053   20.9073 O   0  0  0  0  0  0  0  0  0  0  0  0
   14.3979    6.0729   18.7784 C   0  0  0  0  0  0  0  0  0  0  0  0
    8.6811    9.5354   16.9998 C   0  0  0  0  0  0  0  0  0  0  0  0
    9.2512    4.2713   13.7653 O   0  0  0  0  0  0  0  0  0  0  0  0
    9.6495    8.6317   16.8332 N   0  0  0  0  0  0  0  0  0  0  0  0
    6.2934    8.6988   23.1988 O   0  0  0  0  0  0  0  0  0  0  0  0
    7.9806    8.6543   20.5437 C   0  0  0  0  0  0  0  0  0  0  0  0
   13.7270    5.7144   19.8610 O   0  0  0  0  0  0  0  0  0  0  0  0
    8.3351    5.5235   15.4478 C   0  0  0  0  0  0  0  0  0  0  0  0
    8.7700    7.8434   21.3915 C   0  0  0  0  0  0  0  0  0  0  0  0
   11.7856    6.8851   19.2401 C   0  0  0  0  0  0  0  0  0  0  0  0
   10.5281    7.4276   19.5649 C   0  0  0  0  0  0  0  0  0  0  0  0
   10.0256    7.2907   20.8484 C   0  0  0  0  0  0  0  0  0  0  0  0
    9.3113    5.3049   14.4911 C   0  0  0  0  0  0  0  0  0  0  0  0
    9.4607    7.5646   16.0139 C   0  0  0  0  0  0  0  0  0  0  0  0
   10.4192    7.3157   15.0955 C   0  0  0  0  0  0  0  0  0  0  0  0
   10.2489    6.4227   23.0218 N   0  0  0  0  0  0  0  0  0  0  0  0
    7.2472    8.0746   23.5050 C   0  0  0  0  0  0  0  0  0  0  0  0
    9.2051    6.9101   23.4604 C   0  0  0  0  0  0  0  0  0  0  0  0
   11.9646    6.0299   21.4251 C   0  0  0  0  0  0  0  0  0  0  0  0
  1  5  1  0
  1 13  1  0
  2 20  2  0
  2 28  1  0
  2 29  1  0
  3 19  4  0
  3 25  4  0
  4 23  4  0
  4 27  1  0
  4 30  4  0
  5 17  1  0
  6  8  1  0
  6 29  1  0
  7 24  4  0
  7 26  4  0
  8 28  1  0
  9 13  2  0
 10 18  1  0
 10 21  4  0
 10 30  4  0
 11 17  2  0
 12 18  1  0
 13 15  1  0
 14 24  1  0
 15 25  1  0
 16 28  2  0
 17 20  1  0
 19 24  4  0
 20 23  1  0
 21 22  4  0
 22 23  4  0
 25 26  4  0
 27 29  2  0
M  END
$$$$

 Created by Python create_sdf_string function

 30 33  0  0  0  0  0  0  0  0999 V2000
    8.3036    9.8571   18.4133 C   0  0  0  0  0  0  0  0  0  0  0  0
    8.3694    7.6612   22.6703 C   0  0  0  0  0  0  0  0  0  0  0  0
    8.4143    6.6863   16.2273 C   0  0  0  0  0  0  0  0  0  0  0  0
   10.7581    6.5674   21.7636 C   0  0  0  0  0  0  0  0  0  0  0  0
    8.4452    8.7960   19.2958 O   0  0  0  0  0  0  0  0  0  0  0  0
    8.7122    6.7842   24.8569 C   0  0  0  0  0  0  0  0  0  0  0  0
   10.3400    6.1726   14.3081 C   0  0  0  0  0  0  0  0  0  0  0  0
    7.4297    7.5873   24.8962 C   0  0  0  0  0  0  0  0  0  0  0  0
    8.1566   10.0536   16.0516 O   0  0  0  0  0  0  0  0  0  0  0  0
   12.4989    6.2074   20.1776 C   0  0  0  0  0  0  0  0  0  0  0  0
    6.9192    9.1053   20.9073 O   0  0  0  0  0  0  0  0  0  0  0  0
   14.3979    6.0729   18.7784 C   0  0  0  0  0  0  0  0  0  0  0  0
    8.6811    9.5354   16.9998 C   0  0  0  0  0  0  0  0  0  0  0  0
    9.2512    4.2713   13.7653 O   0  0  0  0  0  0  0  0  0  0  0  0
    9.6495    8.6317   16.8332 N   0  0  0  0  0  0  0  0  0  0  0  0
    6.2934    8.6988   23.1988 O   0  0  0  0  0  0  0  0  0  0  0  0
    7.9806    8.6543   20.5437 C   0  0  0  0  0  0  0  0  0  0  0  0
   13.7270    5.7144   19.8610 O   0  0  0  0  0  0  0  0  0  0  0  0
    8.3351    5.5235   15.4478 C   0  0  0  0  0  0  0  0  0  0  0  0
    8.7700    7.8434   21.3915 C   0  0  0  0  0  0  0  0  0  0  0  0
   11.7856    6.8851   19.2401 C   0  0  0  0  0  0  0  0  0  0  0  0
   10.5281    7.4276   19.5649 C   0  0  0  0  0  0  0  0  0  0  0  0
   10.0256    7.2907   20.8484 C   0  0  0  0  0  0  0  0  0  0  0  0
    9.3113    5.3049   14.4911 C   0  0  0  0  0  0  0  0  0  0  0  0
    9.4607    7.5646   16.0139 C   0  0  0  0  0  0  0  0  0  0  0  0
   10.4192    7.3157   15.0955 C   0  0  0  0  0  0  0  0  0  0  0  0
   10.2489    6.4227   23.0218 N   0  0  0  0  0  0  0  0  0  0  0  0
    7.2472    8.0746   23.5050 C   0  0  0  0  0  0  0  0  0  0  0  0
    9.2051    6.9101   23.4604 C   0  0  0  0  0  0  0  0  0  0  0  0
   11.9646    6.0299   21.4251 C   0  0  0  0  0  0  0  0  0  0  0  0
  1  5  1  0
  1 13  1  0
  2 20  2  0
  2 28  1  0
  2 29  1  0
  3 19  4  0
  3 25  4  0
  4 23  4  0
  4 27  1  0
  4 30  4  0
  5 17  1  0
  6  8  1  0
  6 29  1  0
  7 24  4  0
  7 26  4  0
  8 28  1  0
  9 13  2  0
 10 18  1  0
 10 21  4  0
 10 30  4  0
 11 17  2  0
 12 18  1  0
 13 15  1  0
 14 24  1  0
 15 25  1  0
 16 28  2  0
 17 20  1  0
 19 24  4  0
 20 23  1  0
 21 22  4  0
 22 23  4  0
 25 26  4  0
 27 29  2  0
M  END
$$$$

 Created by Python create_sdf_string function

 30 33  0  0  0  0  0  0  0  0999 V2000
    8.3036    9.8571   18.4133 C   0  0  0  0  0  0  0  0  0  0  0  0
    8.3694    7.6612   22.6703 C   0  0  0  0  0  0  0  0  0  0  0  0
    8.4143    6.6863   16.2273 C   0  0  0  0  0  0  0  0  0  0  0  0
   10.7581    6.5674   21.7636 C   0  0  0  0  0  0  0  0  0  0  0  0
    8.4452    8.7960   19.2958 O   0  0  0  0  0  0  0  0  0  0  0  0
    8.7122    6.7842   24.8569 C   0  0  0  0  0  0  0  0  0  0  0  0
   10.3400    6.1726   14.3081 C   0  0  0  0  0  0  0  0  0  0  0  0
    7.4297    7.5873   24.8962 C   0  0  0  0  0  0  0  0  0  0  0  0
    8.1566   10.0536   16.0516 O   0  0  0  0  0  0  0  0  0  0  0  0
   12.4989    6.2074   20.1776 C   0  0  0  0  0  0  0  0  0  0  0  0
    6.9192    9.1053   20.9073 O   0  0  0  0  0  0  0  0  0  0  0  0
   14.3979    6.0729   18.7784 C   0  0  0  0  0  0  0  0  0  0  0  0
    8.6811    9.5354   16.9998 C   0  0  0  0  0  0  0  0  0  0  0  0
    9.2512    4.2713   13.7653 O   0  0  0  0  0  0  0  0  0  0  0  0
    9.6495    8.6317   16.8332 N   0  0  0  0  0  0  0  0  0  0  0  0
    6.2934    8.6988   23.1988 O   0  0  0  0  0  0  0  0  0  0  0  0
    7.9806    8.6543   20.5437 C   0  0  0  0  0  0  0  0  0  0  0  0
   13.7270    5.7144   19.8610 O   0  0  0  0  0  0  0  0  0  0  0  0
    8.3351    5.5235   15.4478 C   0  0  0  0  0  0  0  0  0  0  0  0
    8.7700    7.8434   21.3915 C   0  0  0  0  0  0  0  0  0  0  0  0
   11.7856    6.8851   19.2401 C   0  0  0  0  0  0  0  0  0  0  0  0
   10.5281    7.4276   19.5649 C   0  0  0  0  0  0  0  0  0  0  0  0
   10.0256    7.2907   20.8484 C   0  0  0  0  0  0  0  0  0  0  0  0
    9.3113    5.3049   14.4911 C   0  0  0  0  0  0  0  0  0  0  0  0
    9.4607    7.5646   16.0139 C   0  0  0  0  0  0  0  0  0  0  0  0
   10.4192    7.3157   15.0955 C   0  0  0  0  0  0  0  0  0  0  0  0
   10.2489    6.4227   23.0218 N   0  0  0  0  0  0  0  0  0  0  0  0
    7.2472    8.0746   23.5050 C   0  0  0  0  0  0  0  0  0  0  0  0
    9.2051    6.9101   23.4604 C   0  0  0  0  0  0  0  0  0  0  0  0
   11.9646    6.0299   21.4251 C   0  0  0  0  0  0  0  0  0  0  0  0
  1  5  1  0
  1 13  1  0
  2 20  2  0
  2 28  1  0
  2 29  1  0
  3 19  4  0
  3 25  4  0
  4 23  4  0
  4 27  1  0
  4 30  4  0
  5 17  1  0
  6  8  1  0
  6 29  1  0
  7 24  4  0
  7 26  4  0
  8 28  1  0
  9 13  2  0
 10 18  1  0
 10 21  4  0
 10 30  4  0
 11 17  2  0
 12 18  1  0
 13 15  1  0
 14 24  1  0
 15 25  1  0
 16 28  2  0
 17 20  1  0
 19 24  4  0
 20 23  1  0
 21 22  4  0
 22 23  4  0
 25 26  4  0
 27 29  2  0
M  END
$$$$

 Created by Python create_sdf_string function

 30 33  0  0  0  0  0  0  0  0999 V2000
    8.3036    9.8571   18.4133 C   0  0  0  0  0  0  0  0  0  0  0  0
    8.3694    7.6612   22.6703 C   0  0  0  0  0  0  0  0  0  0  0  0
    8.4143    6.6863   16.2273 C   0  0  0  0  0  0  0  0  0  0  0  0
   10.7581    6.5674   21.7636 C   0  0  0  0  0  0  0  0  0  0  0  0
    8.4452    8.7960   19.2958 O   0  0  0  0  0  0  0  0  0  0  0  0
    8.7122    6.7842   24.8569 C   0  0  0  0  0  0  0  0  0  0  0  0
   10.3400    6.1726   14.3081 C   0  0  0  0  0  0  0  0  0  0  0  0
    7.4297    7.5873   24.8962 C   0  0  0  0  0  0  0  0  0  0  0  0
    8.1566   10.0536   16.0516 O   0  0  0  0  0  0  0  0  0  0  0  0
   12.4989    6.2074   20.1776 C   0  0  0  0  0  0  0  0  0  0  0  0
    6.9192    9.1053   20.9073 O   0  0  0  0  0  0  0  0  0  0  0  0
   14.3979    6.0729   18.7784 C   0  0  0  0  0  0  0  0  0  0  0  0
    8.6811    9.5354   16.9998 C   0  0  0  0  0  0  0  0  0  0  0  0
    9.2512    4.2713   13.7653 O   0  0  0  0  0  0  0  0  0  0  0  0
    9.6495    8.6317   16.8332 N   0  0  0  0  0  0  0  0  0  0  0  0
    6.2934    8.6988   23.1988 O   0  0  0  0  0  0  0  0  0  0  0  0
    7.9806    8.6543   20.5437 C   0  0  0  0  0  0  0  0  0  0  0  0
   13.7270    5.7144   19.8610 O   0  0  0  0  0  0  0  0  0  0  0  0
    8.3351    5.5235   15.4478 C   0  0  0  0  0  0  0  0  0  0  0  0
    8.7700    7.8434   21.3915 C   0  0  0  0  0  0  0  0  0  0  0  0
   11.7856    6.8851   19.2401 C   0  0  0  0  0  0  0  0  0  0  0  0
   10.5281    7.4276   19.5649 C   0  0  0  0  0  0  0  0  0  0  0  0
   10.0256    7.2907   20.8484 C   0  0  0  0  0  0  0  0  0  0  0  0
    9.3113    5.3049   14.4911 C   0  0  0  0  0  0  0  0  0  0  0  0
    9.4607    7.5646   16.0139 C   0  0  0  0  0  0  0  0  0  0  0  0
   10.4192    7.3157   15.0955 C   0  0  0  0  0  0  0  0  0  0  0  0
   10.2489    6.4227   23.0218 N   0  0  0  0  0  0  0  0  0  0  0  0
    7.2472    8.0746   23.5050 C   0  0  0  0  0  0  0  0  0  0  0  0
    9.2051    6.9101   23.4604 C   0  0  0  0  0  0  0  0  0  0  0  0
   11.9646    6.0299   21.4251 C   0  0  0  0  0  0  0  0  0  0  0  0
  1  5  1  0
  1 13  1  0
  2 20  2  0
  2 28  1  0
  2 29  1  0
  3 19  4  0
  3 25  4  0
  4 23  4  0
  4 27  1  0
  4 30  4  0
  5 17  1  0
  6  8  1  0
  6 29  1  0
  7 24  4  0
  7 26  4  0
  8 28  1  0
  9 13  2  0
 10 18  1  0
 10 21  4  0
 10 30  4  0
 11 17  2  0
 12 18  1  0
 13 15  1  0
 14 24  1  0
 15 25  1  0
 16 28  2  0
 17 20  1  0
 19 24  4  0
 20 23  1  0
 21 22  4  0
 22 23  4  0
 25 26  4  0
 27 29  2  0
M  END
$$$$

 Created by Python create_sdf_string function

 30 33  0  0  0  0  0  0  0  0999 V2000
    8.3036    9.8571   18.4133 C   0  0  0  0  0  0  0  0  0  0  0  0
    8.3694    7.6612   22.6703 C   0  0  0  0  0  0  0  0  0  0  0  0
    8.4143    6.6863   16.2273 C   0  0  0  0  0  0  0  0  0  0  0  0
   10.7581    6.5674   21.7636 C   0  0  0  0  0  0  0  0  0  0  0  0
    8.4452    8.7960   19.2958 O   0  0  0  0  0  0  0  0  0  0  0  0
    8.7122    6.7842   24.8569 C   0  0  0  0  0  0  0  0  0  0  0  0
   10.3400    6.1726   14.3081 C   0  0  0  0  0  0  0  0  0  0  0  0
    7.4297    7.5873   24.8962 C   0  0  0  0  0  0  0  0  0  0  0  0
    8.1566   10.0536   16.0516 O   0  0  0  0  0  0  0  0  0  0  0  0
   12.4989    6.2074   20.1776 C   0  0  0  0  0  0  0  0  0  0  0  0
    6.9192    9.1053   20.9073 O   0  0  0  0  0  0  0  0  0  0  0  0
   14.3979    6.0729   18.7784 C   0  0  0  0  0  0  0  0  0  0  0  0
    8.6811    9.5354   16.9998 C   0  0  0  0  0  0  0  0  0  0  0  0
    9.2512    4.2713   13.7653 O   0  0  0  0  0  0  0  0  0  0  0  0
    9.6495    8.6317   16.8332 N   0  0  0  0  0  0  0  0  0  0  0  0
    6.2934    8.6988   23.1988 O   0  0  0  0  0  0  0  0  0  0  0  0
    7.9806    8.6543   20.5437 C   0  0  0  0  0  0  0  0  0  0  0  0
   13.7270    5.7144   19.8610 O   0  0  0  0  0  0  0  0  0  0  0  0
    8.3351    5.5235   15.4478 C   0  0  0  0  0  0  0  0  0  0  0  0
    8.7700    7.8434   21.3915 C   0  0  0  0  0  0  0  0  0  0  0  0
   11.7856    6.8851   19.2401 C   0  0  0  0  0  0  0  0  0  0  0  0
   10.5281    7.4276   19.5649 C   0  0  0  0  0  0  0  0  0  0  0  0
   10.0256    7.2907   20.8484 C   0  0  0  0  0  0  0  0  0  0  0  0
    9.3113    5.3049   14.4911 C   0  0  0  0  0  0  0  0  0  0  0  0
    9.4607    7.5646   16.0139 C   0  0  0  0  0  0  0  0  0  0  0  0
   10.4192    7.3157   15.0955 C   0  0  0  0  0  0  0  0  0  0  0  0
   10.2489    6.4227   23.0218 N   0  0  0  0  0  0  0  0  0  0  0  0
    7.2472    8.0746   23.5050 C   0  0  0  0  0  0  0  0  0  0  0  0
    9.2051    6.9101   23.4604 C   0  0  0  0  0  0  0  0  0  0  0  0
   11.9646    6.0299   21.4251 C   0  0  0  0  0  0  0  0  0  0  0  0
  1  5  1  0
  1 13  1  0
  2 20  2  0
  2 28  1  0
  2 29  1  0
  3 19  4  0
  3 25  4  0
  4 23  4  0
  4 27  1  0
  4 30  4  0
  5 17  1  0
  6  8  1  0
  6 29  1  0
  7 24  4  0
  7 26  4  0
  8 28  1  0
  9 13  2  0
 10 18  1  0
 10 21  4  0
 10 30  4  0
 11 17  2  0
 12 18  1  0
 13 15  1  0
 14 24  1  0
 15 25  1  0
 16 28  2  0
 17 20  1  0
 19 24  4  0
 20 23  1  0
 21 22  4  0
 22 23  4  0
 25 26  4  0
 27 29  2  0
M  END
$$$$

 Created by Python create_sdf_string function

 30 33  0  0  0  0  0  0  0  0999 V2000
    8.3036    9.8571   18.4133 C   0  0  0  0  0  0  0  0  0  0  0  0
    8.3694    7.6612   22.6703 C   0  0  0  0  0  0  0  0  0  0  0  0
    8.4143    6.6863   16.2273 C   0  0  0  0  0  0  0  0  0  0  0  0
   10.7581    6.5674   21.7636 C   0  0  0  0  0  0  0  0  0  0  0  0
    8.4452    8.7960   19.2958 O   0  0  0  0  0  0  0  0  0  0  0  0
    8.7122    6.7842   24.8569 C   0  0  0  0  0  0  0  0  0  0  0  0
   10.3400    6.1726   14.3081 C   0  0  0  0  0  0  0  0  0  0  0  0
    7.4297    7.5873   24.8962 C   0  0  0  0  0  0  0  0  0  0  0  0
    8.1566   10.0536   16.0516 O   0  0  0  0  0  0  0  0  0  0  0  0
   12.4989    6.2074   20.1776 C   0  0  0  0  0  0  0  0  0  0  0  0
    6.9192    9.1053   20.9073 O   0  0  0  0  0  0  0  0  0  0  0  0
   14.3979    6.0729   18.7784 C   0  0  0  0  0  0  0  0  0  0  0  0
    8.6811    9.5354   16.9998 C   0  0  0  0  0  0  0  0  0  0  0  0
    9.2512    4.2713   13.7653 O   0  0  0  0  0  0  0  0  0  0  0  0
    9.6495    8.6317   16.8332 N   0  0  0  0  0  0  0  0  0  0  0  0
    6.2934    8.6988   23.1988 O   0  0  0  0  0  0  0  0  0  0  0  0
    7.9806    8.6543   20.5437 C   0  0  0  0  0  0  0  0  0  0  0  0
   13.7270    5.7144   19.8610 O   0  0  0  0  0  0  0  0  0  0  0  0
    8.3351    5.5235   15.4478 C   0  0  0  0  0  0  0  0  0  0  0  0
    8.7700    7.8434   21.3915 C   0  0  0  0  0  0  0  0  0  0  0  0
   11.7856    6.8851   19.2401 C   0  0  0  0  0  0  0  0  0  0  0  0
   10.5281    7.4276   19.5649 C   0  0  0  0  0  0  0  0  0  0  0  0
   10.0256    7.2907   20.8484 C   0  0  0  0  0  0  0  0  0  0  0  0
    9.3113    5.3049   14.4911 C   0  0  0  0  0  0  0  0  0  0  0  0
    9.4607    7.5646   16.0139 C   0  0  0  0  0  0  0  0  0  0  0  0
   10.4192    7.3157   15.0955 C   0  0  0  0  0  0  0  0  0  0  0  0
   10.2489    6.4227   23.0218 N   0  0  0  0  0  0  0  0  0  0  0  0
    7.2472    8.0746   23.5050 C   0  0  0  0  0  0  0  0  0  0  0  0
    9.2051    6.9101   23.4604 C   0  0  0  0  0  0  0  0  0  0  0  0
   11.9646    6.0299   21.4251 C   0  0  0  0  0  0  0  0  0  0  0  0
  1  5  1  0
  1 13  1  0
  2 20  2  0
  2 28  1  0
  2 29  1  0
  3 19  4  0
  3 25  4  0
  4 23  4  0
  4 27  1  0
  4 30  4  0
  5 17  1  0
  6  8  1  0
  6 29  1  0
  7 24  4  0
  7 26  4  0
  8 28  1  0
  9 13  2  0
 10 18  1  0
 10 21  4  0
 10 30  4  0
 11 17  2  0
 12 18  1  0
 13 15  1  0
 14 24  1  0
 15 25  1  0
 16 28  2  0
 17 20  1  0
 19 24  4  0
 20 23  1  0
 21 22  4  0
 22 23  4  0
 25 26  4  0
 27 29  2  0
M  END
$$$$

 Created by Python create_sdf_string function

 30 33  0  0  0  0  0  0  0  0999 V2000
    8.3036    9.8571   18.4133 C   0  0  0  0  0  0  0  0  0  0  0  0
    8.3694    7.6612   22.6703 C   0  0  0  0  0  0  0  0  0  0  0  0
    8.4143    6.6863   16.2273 C   0  0  0  0  0  0  0  0  0  0  0  0
   10.7581    6.5674   21.7636 C   0  0  0  0  0  0  0  0  0  0  0  0
    8.4452    8.7960   19.2958 O   0  0  0  0  0  0  0  0  0  0  0  0
    8.7122    6.7842   24.8569 C   0  0  0  0  0  0  0  0  0  0  0  0
   10.3400    6.1726   14.3081 C   0  0  0  0  0  0  0  0  0  0  0  0
    7.4297    7.5873   24.8962 C   0  0  0  0  0  0  0  0  0  0  0  0
    8.1566   10.0536   16.0516 O   0  0  0  0  0  0  0  0  0  0  0  0
   12.4989    6.2074   20.1776 C   0  0  0  0  0  0  0  0  0  0  0  0
    6.9192    9.1053   20.9073 O   0  0  0  0  0  0  0  0  0  0  0  0
   14.3979    6.0729   18.7784 C   0  0  0  0  0  0  0  0  0  0  0  0
    8.6811    9.5354   16.9998 C   0  0  0  0  0  0  0  0  0  0  0  0
    9.2512    4.2713   13.7653 O   0  0  0  0  0  0  0  0  0  0  0  0
    9.6495    8.6317   16.8332 N   0  0  0  0  0  0  0  0  0  0  0  0
    6.2934    8.6988   23.1988 O   0  0  0  0  0  0  0  0  0  0  0  0
    7.9806    8.6543   20.5437 C   0  0  0  0  0  0  0  0  0  0  0  0
   13.7270    5.7144   19.8610 O   0  0  0  0  0  0  0  0  0  0  0  0
    8.3351    5.5235   15.4478 C   0  0  0  0  0  0  0  0  0  0  0  0
    8.7700    7.8434   21.3915 C   0  0  0  0  0  0  0  0  0  0  0  0
   11.7856    6.8851   19.2401 C   0  0  0  0  0  0  0  0  0  0  0  0
   10.5281    7.4276   19.5649 C   0  0  0  0  0  0  0  0  0  0  0  0
   10.0256    7.2907   20.8484 C   0  0  0  0  0  0  0  0  0  0  0  0
    9.3113    5.3049   14.4911 C   0  0  0  0  0  0  0  0  0  0  0  0
    9.4607    7.5646   16.0139 C   0  0  0  0  0  0  0  0  0  0  0  0
   10.4192    7.3157   15.0955 C   0  0  0  0  0  0  0  0  0  0  0  0
   10.2489    6.4227   23.0218 N   0  0  0  0  0  0  0  0  0  0  0  0
    7.2472    8.0746   23.5050 C   0  0  0  0  0  0  0  0  0  0  0  0
    9.2051    6.9101   23.4604 C   0  0  0  0  0  0  0  0  0  0  0  0
   11.9646    6.0299   21.4251 C   0  0  0  0  0  0  0  0  0  0  0  0
  1  5  1  0
  1 13  1  0
  2 20  2  0
  2 28  1  0
  2 29  1  0
  3 19  4  0
  3 25  4  0
  4 23  4  0
  4 27  1  0
  4 30  4  0
  5 17  1  0
  6  8  1  0
  6 29  1  0
  7 24  4  0
  7 26  4  0
  8 28  1  0
  9 13  2  0
 10 18  1  0
 10 21  4  0
 10 30  4  0
 11 17  2  0
 12 18  1  0
 13 15  1  0
 14 24  1  0
 15 25  1  0
 16 28  2  0
 17 20  1  0
 19 24  4  0
 20 23  1  0
 21 22  4  0
 22 23  4  0
 25 26  4  0
 27 29  2  0
M  END
$$$$

 Created by Python create_sdf_string function

 30 33  0  0  0  0  0  0  0  0999 V2000
    8.3036    9.8571   18.4133 C   0  0  0  0  0  0  0  0  0  0  0  0
    8.3694    7.6612   22.6703 C   0  0  0  0  0  0  0  0  0  0  0  0
    8.4143    6.6863   16.2273 C   0  0  0  0  0  0  0  0  0  0  0  0
   10.7581    6.5674   21.7636 C   0  0  0  0  0  0  0  0  0  0  0  0
    8.4452    8.7960   19.2958 O   0  0  0  0  0  0  0  0  0  0  0  0
    8.7122    6.7842   24.8569 C   0  0  0  0  0  0  0  0  0  0  0  0
   10.3400    6.1726   14.3081 C   0  0  0  0  0  0  0  0  0  0  0  0
    7.4297    7.5873   24.8962 C   0  0  0  0  0  0  0  0  0  0  0  0
    8.1566   10.0536   16.0516 O   0  0  0  0  0  0  0  0  0  0  0  0
   12.4989    6.2074   20.1776 C   0  0  0  0  0  0  0  0  0  0  0  0
    6.9192    9.1053   20.9073 O   0  0  0  0  0  0  0  0  0  0  0  0
   14.3979    6.0729   18.7784 C   0  0  0  0  0  0  0  0  0  0  0  0
    8.6811    9.5354   16.9998 C   0  0  0  0  0  0  0  0  0  0  0  0
    9.2512    4.2713   13.7653 O   0  0  0  0  0  0  0  0  0  0  0  0
    9.6495    8.6317   16.8332 N   0  0  0  0  0  0  0  0  0  0  0  0
    6.2934    8.6988   23.1988 O   0  0  0  0  0  0  0  0  0  0  0  0
    7.9806    8.6543   20.5437 C   0  0  0  0  0  0  0  0  0  0  0  0
   13.7270    5.7144   19.8610 O   0  0  0  0  0  0  0  0  0  0  0  0
    8.3351    5.5235   15.4478 C   0  0  0  0  0  0  0  0  0  0  0  0
    8.7700    7.8434   21.3915 C   0  0  0  0  0  0  0  0  0  0  0  0
   11.7856    6.8851   19.2401 C   0  0  0  0  0  0  0  0  0  0  0  0
   10.5281    7.4276   19.5649 C   0  0  0  0  0  0  0  0  0  0  0  0
   10.0256    7.2907   20.8484 C   0  0  0  0  0  0  0  0  0  0  0  0
    9.3113    5.3049   14.4911 C   0  0  0  0  0  0  0  0  0  0  0  0
    9.4607    7.5646   16.0139 C   0  0  0  0  0  0  0  0  0  0  0  0
   10.4192    7.3157   15.0955 C   0  0  0  0  0  0  0  0  0  0  0  0
   10.2489    6.4227   23.0218 N   0  0  0  0  0  0  0  0  0  0  0  0
    7.2472    8.0746   23.5050 C   0  0  0  0  0  0  0  0  0  0  0  0
    9.2051    6.9101   23.4604 C   0  0  0  0  0  0  0  0  0  0  0  0
   11.9646    6.0299   21.4251 C   0  0  0  0  0  0  0  0  0  0  0  0
  1  5  1  0
  1 13  1  0
  2 20  2  0
  2 28  1  0
  2 29  1  0
  3 19  4  0
  3 25  4  0
  4 23  4  0
  4 27  1  0
  4 30  4  0
  5 17  1  0
  6  8  1  0
  6 29  1  0
  7 24  4  0
  7 26  4  0
  8 28  1  0
  9 13  2  0
 10 18  1  0
 10 21  4  0
 10 30  4  0
 11 17  2  0
 12 18  1  0
 13 15  1  0
 14 24  1  0
 15 25  1  0
 16 28  2  0
 17 20  1  0
 19 24  4  0
 20 23  1  0
 21 22  4  0
 22 23  4  0
 25 26  4  0
 27 29  2  0
M  END
$$$$

 Created by Python create_sdf_string function

 30 33  0  0  0  0  0  0  0  0999 V2000
    8.3036    9.8571   18.4133 C   0  0  0  0  0  0  0  0  0  0  0  0
    8.3694    7.6612   22.6703 C   0  0  0  0  0  0  0  0  0  0  0  0
    8.4143    6.6863   16.2273 C   0  0  0  0  0  0  0  0  0  0  0  0
   10.7581    6.5674   21.7636 C   0  0  0  0  0  0  0  0  0  0  0  0
    8.4452    8.7960   19.2958 O   0  0  0  0  0  0  0  0  0  0  0  0
    8.7122    6.7842   24.8569 C   0  0  0  0  0  0  0  0  0  0  0  0
   10.3400    6.1726   14.3081 C   0  0  0  0  0  0  0  0  0  0  0  0
    7.4297    7.5873   24.8962 C   0  0  0  0  0  0  0  0  0  0  0  0
    8.1566   10.0536   16.0516 O   0  0  0  0  0  0  0  0  0  0  0  0
   12.4989    6.2074   20.1776 C   0  0  0  0  0  0  0  0  0  0  0  0
    6.9192    9.1053   20.9073 O   0  0  0  0  0  0  0  0  0  0  0  0
   14.3979    6.0729   18.7784 C   0  0  0  0  0  0  0  0  0  0  0  0
    8.6811    9.5354   16.9998 C   0  0  0  0  0  0  0  0  0  0  0  0
    9.2512    4.2713   13.7653 O   0  0  0  0  0  0  0  0  0  0  0  0
    9.6495    8.6317   16.8332 N   0  0  0  0  0  0  0  0  0  0  0  0
    6.2934    8.6988   23.1988 O   0  0  0  0  0  0  0  0  0  0  0  0
    7.9806    8.6543   20.5437 C   0  0  0  0  0  0  0  0  0  0  0  0
   13.7270    5.7144   19.8610 O   0  0  0  0  0  0  0  0  0  0  0  0
    8.3351    5.5235   15.4478 C   0  0  0  0  0  0  0  0  0  0  0  0
    8.7700    7.8434   21.3915 C   0  0  0  0  0  0  0  0  0  0  0  0
   11.7856    6.8851   19.2401 C   0  0  0  0  0  0  0  0  0  0  0  0
   10.5281    7.4276   19.5649 C   0  0  0  0  0  0  0  0  0  0  0  0
   10.0256    7.2907   20.8484 C   0  0  0  0  0  0  0  0  0  0  0  0
    9.3113    5.3049   14.4911 C   0  0  0  0  0  0  0  0  0  0  0  0
    9.4607    7.5646   16.0139 C   0  0  0  0  0  0  0  0  0  0  0  0
   10.4192    7.3157   15.0955 C   0  0  0  0  0  0  0  0  0  0  0  0
   10.2489    6.4227   23.0218 N   0  0  0  0  0  0  0  0  0  0  0  0
    7.2472    8.0746   23.5050 C   0  0  0  0  0  0  0  0  0  0  0  0
    9.2051    6.9101   23.4604 C   0  0  0  0  0  0  0  0  0  0  0  0
   11.9646    6.0299   21.4251 C   0  0  0  0  0  0  0  0  0  0  0  0
  1  5  1  0
  1 13  1  0
  2 20  2  0
  2 28  1  0
  2 29  1  0
  3 19  4  0
  3 25  4  0
  4 23  4  0
  4 27  1  0
  4 30  4  0
  5 17  1  0
  6  8  1  0
  6 29  1  0
  7 24  4  0
  7 26  4  0
  8 28  1  0
  9 13  2  0
 10 18  1  0
 10 21  4  0
 10 30  4  0
 11 17  2  0
 12 18  1  0
 13 15  1  0
 14 24  1  0
 15 25  1  0
 16 28  2  0
 17 20  1  0
 19 24  4  0
 20 23  1  0
 21 22  4  0
 22 23  4  0
 25 26  4  0
 27 29  2  0
M  END
$$$$

 Created by Python create_sdf_string function

 30 33  0  0  0  0  0  0  0  0999 V2000
    8.3036    9.8571   18.4133 C   0  0  0  0  0  0  0  0  0  0  0  0
    8.3694    7.6612   22.6703 C   0  0  0  0  0  0  0  0  0  0  0  0
    8.4143    6.6863   16.2273 C   0  0  0  0  0  0  0  0  0  0  0  0
   10.7581    6.5674   21.7636 C   0  0  0  0  0  0  0  0  0  0  0  0
    8.4452    8.7960   19.2958 O   0  0  0  0  0  0  0  0  0  0  0  0
    8.7122    6.7842   24.8569 C   0  0  0  0  0  0  0  0  0  0  0  0
   10.3400    6.1726   14.3081 C   0  0  0  0  0  0  0  0  0  0  0  0
    7.4297    7.5873   24.8962 C   0  0  0  0  0  0  0  0  0  0  0  0
    8.1566   10.0536   16.0516 O   0  0  0  0  0  0  0  0  0  0  0  0
   12.4989    6.2074   20.1776 C   0  0  0  0  0  0  0  0  0  0  0  0
    6.9192    9.1053   20.9073 O   0  0  0  0  0  0  0  0  0  0  0  0
   14.3979    6.0729   18.7784 C   0  0  0  0  0  0  0  0  0  0  0  0
    8.6811    9.5354   16.9998 C   0  0  0  0  0  0  0  0  0  0  0  0
    9.2512    4.2713   13.7653 O   0  0  0  0  0  0  0  0  0  0  0  0
    9.6495    8.6317   16.8332 N   0  0  0  0  0  0  0  0  0  0  0  0
    6.2934    8.6988   23.1988 O   0  0  0  0  0  0  0  0  0  0  0  0
    7.9806    8.6543   20.5437 C   0  0  0  0  0  0  0  0  0  0  0  0
   13.7270    5.7144   19.8610 O   0  0  0  0  0  0  0  0  0  0  0  0
    8.3351    5.5235   15.4478 C   0  0  0  0  0  0  0  0  0  0  0  0
    8.7700    7.8434   21.3915 C   0  0  0  0  0  0  0  0  0  0  0  0
   11.7856    6.8851   19.2401 C   0  0  0  0  0  0  0  0  0  0  0  0
   10.5281    7.4276   19.5649 C   0  0  0  0  0  0  0  0  0  0  0  0
   10.0256    7.2907   20.8484 C   0  0  0  0  0  0  0  0  0  0  0  0
    9.3113    5.3049   14.4911 C   0  0  0  0  0  0  0  0  0  0  0  0
    9.4607    7.5646   16.0139 C   0  0  0  0  0  0  0  0  0  0  0  0
   10.4192    7.3157   15.0955 C   0  0  0  0  0  0  0  0  0  0  0  0
   10.2489    6.4227   23.0218 N   0  0  0  0  0  0  0  0  0  0  0  0
    7.2472    8.0746   23.5050 C   0  0  0  0  0  0  0  0  0  0  0  0
    9.2051    6.9101   23.4604 C   0  0  0  0  0  0  0  0  0  0  0  0
   11.9646    6.0299   21.4251 C   0  0  0  0  0  0  0  0  0  0  0  0
  1  5  1  0
  1 13  1  0
  2 20  2  0
  2 28  1  0
  2 29  1  0
  3 19  4  0
  3 25  4  0
  4 23  4  0
  4 27  1  0
  4 30  4  0
  5 17  1  0
  6  8  1  0
  6 29  1  0
  7 24  4  0
  7 26  4  0
  8 28  1  0
  9 13  2  0
 10 18  1  0
 10 21  4  0
 10 30  4  0
 11 17  2  0
 12 18  1  0
 13 15  1  0
 14 24  1  0
 15 25  1  0
 16 28  2  0
 17 20  1  0
 19 24  4  0
 20 23  1  0
 21 22  4  0
 22 23  4  0
 25 26  4  0
 27 29  2  0
M  END
$$$$

 Created by Python create_sdf_string function

 30 33  0  0  0  0  0  0  0  0999 V2000
    8.3036    9.8571   18.4133 C   0  0  0  0  0  0  0  0  0  0  0  0
    8.3694    7.6612   22.6703 C   0  0  0  0  0  0  0  0  0  0  0  0
    8.4143    6.6863   16.2273 C   0  0  0  0  0  0  0  0  0  0  0  0
   10.7581    6.5674   21.7636 C   0  0  0  0  0  0  0  0  0  0  0  0
    8.4452    8.7960   19.2958 O   0  0  0  0  0  0  0  0  0  0  0  0
    8.7122    6.7842   24.8569 C   0  0  0  0  0  0  0  0  0  0  0  0
   10.3400    6.1726   14.3081 C   0  0  0  0  0  0  0  0  0  0  0  0
    7.4297    7.5873   24.8962 C   0  0  0  0  0  0  0  0  0  0  0  0
    8.1566   10.0536   16.0516 O   0  0  0  0  0  0  0  0  0  0  0  0
   12.4989    6.2074   20.1776 C   0  0  0  0  0  0  0  0  0  0  0  0
    6.9192    9.1053   20.9073 O   0  0  0  0  0  0  0  0  0  0  0  0
   14.3979    6.0729   18.7784 C   0  0  0  0  0  0  0  0  0  0  0  0
    8.6811    9.5354   16.9998 C   0  0  0  0  0  0  0  0  0  0  0  0
    9.2512    4.2713   13.7653 O   0  0  0  0  0  0  0  0  0  0  0  0
    9.6495    8.6317   16.8332 N   0  0  0  0  0  0  0  0  0  0  0  0
    6.2934    8.6988   23.1988 O   0  0  0  0  0  0  0  0  0  0  0  0
    7.9806    8.6543   20.5437 C   0  0  0  0  0  0  0  0  0  0  0  0
   13.7270    5.7144   19.8610 O   0  0  0  0  0  0  0  0  0  0  0  0
    8.3351    5.5235   15.4478 C   0  0  0  0  0  0  0  0  0  0  0  0
    8.7700    7.8434   21.3915 C   0  0  0  0  0  0  0  0  0  0  0  0
   11.7856    6.8851   19.2401 C   0  0  0  0  0  0  0  0  0  0  0  0
   10.5281    7.4276   19.5649 C   0  0  0  0  0  0  0  0  0  0  0  0
   10.0256    7.2907   20.8484 C   0  0  0  0  0  0  0  0  0  0  0  0
    9.3113    5.3049   14.4911 C   0  0  0  0  0  0  0  0  0  0  0  0
    9.4607    7.5646   16.0139 C   0  0  0  0  0  0  0  0  0  0  0  0
   10.4192    7.3157   15.0955 C   0  0  0  0  0  0  0  0  0  0  0  0
   10.2489    6.4227   23.0218 N   0  0  0  0  0  0  0  0  0  0  0  0
    7.2472    8.0746   23.5050 C   0  0  0  0  0  0  0  0  0  0  0  0
    9.2051    6.9101   23.4604 C   0  0  0  0  0  0  0  0  0  0  0  0
   11.9646    6.0299   21.4251 C   0  0  0  0  0  0  0  0  0  0  0  0
  1  5  1  0
  1 13  1  0
  2 20  2  0
  2 28  1  0
  2 29  1  0
  3 19  4  0
  3 25  4  0
  4 23  4  0
  4 27  1  0
  4 30  4  0
  5 17  1  0
  6  8  1  0
  6 29  1  0
  7 24  4  0
  7 26  4  0
  8 28  1  0
  9 13  2  0
 10 18  1  0
 10 21  4  0
 10 30  4  0
 11 17  2  0
 12 18  1  0
 13 15  1  0
 14 24  1  0
 15 25  1  0
 16 28  2  0
 17 20  1  0
 19 24  4  0
 20 23  1  0
 21 22  4  0
 22 23  4  0
 25 26  4  0
 27 29  2  0
M  END
$$$$

 Created by Python create_sdf_string function

 30 33  0  0  0  0  0  0  0  0999 V2000
    8.3036    9.8571   18.4133 C   0  0  0  0  0  0  0  0  0  0  0  0
    8.3694    7.6612   22.6703 C   0  0  0  0  0  0  0  0  0  0  0  0
    8.4143    6.6863   16.2273 C   0  0  0  0  0  0  0  0  0  0  0  0
   10.7581    6.5674   21.7636 C   0  0  0  0  0  0  0  0  0  0  0  0
    8.4452    8.7960   19.2958 O   0  0  0  0  0  0  0  0  0  0  0  0
    8.7122    6.7842   24.8569 C   0  0  0  0  0  0  0  0  0  0  0  0
   10.3400    6.1726   14.3081 C   0  0  0  0  0  0  0  0  0  0  0  0
    7.4297    7.5873   24.8962 C   0  0  0  0  0  0  0  0  0  0  0  0
    8.1566   10.0536   16.0516 O   0  0  0  0  0  0  0  0  0  0  0  0
   12.4989    6.2074   20.1776 C   0  0  0  0  0  0  0  0  0  0  0  0
    6.9192    9.1053   20.9073 O   0  0  0  0  0  0  0  0  0  0  0  0
   14.3979    6.0729   18.7784 C   0  0  0  0  0  0  0  0  0  0  0  0
    8.6811    9.5354   16.9998 C   0  0  0  0  0  0  0  0  0  0  0  0
    9.2512    4.2713   13.7653 O   0  0  0  0  0  0  0  0  0  0  0  0
    9.6495    8.6317   16.8332 N   0  0  0  0  0  0  0  0  0  0  0  0
    6.2934    8.6988   23.1988 O   0  0  0  0  0  0  0  0  0  0  0  0
    7.9806    8.6543   20.5437 C   0  0  0  0  0  0  0  0  0  0  0  0
   13.7270    5.7144   19.8610 O   0  0  0  0  0  0  0  0  0  0  0  0
    8.3351    5.5235   15.4478 C   0  0  0  0  0  0  0  0  0  0  0  0
    8.7700    7.8434   21.3915 C   0  0  0  0  0  0  0  0  0  0  0  0
   11.7856    6.8851   19.2401 C   0  0  0  0  0  0  0  0  0  0  0  0
   10.5281    7.4276   19.5649 C   0  0  0  0  0  0  0  0  0  0  0  0
   10.0256    7.2907   20.8484 C   0  0  0  0  0  0  0  0  0  0  0  0
    9.3113    5.3049   14.4911 C   0  0  0  0  0  0  0  0  0  0  0  0
    9.4607    7.5646   16.0139 C   0  0  0  0  0  0  0  0  0  0  0  0
   10.4192    7.3157   15.0955 C   0  0  0  0  0  0  0  0  0  0  0  0
   10.2489    6.4227   23.0218 N   0  0  0  0  0  0  0  0  0  0  0  0
    7.2472    8.0746   23.5050 C   0  0  0  0  0  0  0  0  0  0  0  0
    9.2051    6.9101   23.4604 C   0  0  0  0  0  0  0  0  0  0  0  0
   11.9646    6.0299   21.4251 C   0  0  0  0  0  0  0  0  0  0  0  0
  1  5  1  0
  1 13  1  0
  2 20  2  0
  2 28  1  0
  2 29  1  0
  3 19  4  0
  3 25  4  0
  4 23  4  0
  4 27  1  0
  4 30  4  0
  5 17  1  0
  6  8  1  0
  6 29  1  0
  7 24  4  0
  7 26  4  0
  8 28  1  0
  9 13  2  0
 10 18  1  0
 10 21  4  0
 10 30  4  0
 11 17  2  0
 12 18  1  0
 13 15  1  0
 14 24  1  0
 15 25  1  0
 16 28  2  0
 17 20  1  0
 19 24  4  0
 20 23  1  0
 21 22  4  0
 22 23  4  0
 25 26  4  0
 27 29  2  0
M  END
$$$$

 Created by Python create_sdf_string function

 30 33  0  0  0  0  0  0  0  0999 V2000
    8.3036    9.8571   18.4133 C   0  0  0  0  0  0  0  0  0  0  0  0
    8.3694    7.6612   22.6703 C   0  0  0  0  0  0  0  0  0  0  0  0
    8.4143    6.6863   16.2273 C   0  0  0  0  0  0  0  0  0  0  0  0
   10.7581    6.5674   21.7636 C   0  0  0  0  0  0  0  0  0  0  0  0
    8.4452    8.7960   19.2958 O   0  0  0  0  0  0  0  0  0  0  0  0
    8.7122    6.7842   24.8569 C   0  0  0  0  0  0  0  0  0  0  0  0
   10.3400    6.1726   14.3081 C   0  0  0  0  0  0  0  0  0  0  0  0
    7.4297    7.5873   24.8962 C   0  0  0  0  0  0  0  0  0  0  0  0
    8.1566   10.0536   16.0516 O   0  0  0  0  0  0  0  0  0  0  0  0
   12.4989    6.2074   20.1776 C   0  0  0  0  0  0  0  0  0  0  0  0
    6.9192    9.1053   20.9073 O   0  0  0  0  0  0  0  0  0  0  0  0
   14.3979    6.0729   18.7784 C   0  0  0  0  0  0  0  0  0  0  0  0
    8.6811    9.5354   16.9998 C   0  0  0  0  0  0  0  0  0  0  0  0
    9.2512    4.2713   13.7653 O   0  0  0  0  0  0  0  0  0  0  0  0
    9.6495    8.6317   16.8332 N   0  0  0  0  0  0  0  0  0  0  0  0
    6.2934    8.6988   23.1988 O   0  0  0  0  0  0  0  0  0  0  0  0
    7.9806    8.6543   20.5437 C   0  0  0  0  0  0  0  0  0  0  0  0
   13.7270    5.7144   19.8610 O   0  0  0  0  0  0  0  0  0  0  0  0
    8.3351    5.5235   15.4478 C   0  0  0  0  0  0  0  0  0  0  0  0
    8.7700    7.8434   21.3915 C   0  0  0  0  0  0  0  0  0  0  0  0
   11.7856    6.8851   19.2401 C   0  0  0  0  0  0  0  0  0  0  0  0
   10.5281    7.4276   19.5649 C   0  0  0  0  0  0  0  0  0  0  0  0
   10.0256    7.2907   20.8484 C   0  0  0  0  0  0  0  0  0  0  0  0
    9.3113    5.3049   14.4911 C   0  0  0  0  0  0  0  0  0  0  0  0
    9.4607    7.5646   16.0139 C   0  0  0  0  0  0  0  0  0  0  0  0
   10.4192    7.3157   15.0955 C   0  0  0  0  0  0  0  0  0  0  0  0
   10.2489    6.4227   23.0218 N   0  0  0  0  0  0  0  0  0  0  0  0
    7.2472    8.0746   23.5050 C   0  0  0  0  0  0  0  0  0  0  0  0
    9.2051    6.9101   23.4604 C   0  0  0  0  0  0  0  0  0  0  0  0
   11.9646    6.0299   21.4251 C   0  0  0  0  0  0  0  0  0  0  0  0
  1  5  1  0
  1 13  1  0
  2 20  2  0
  2 28  1  0
  2 29  1  0
  3 19  4  0
  3 25  4  0
  4 23  4  0
  4 27  1  0
  4 30  4  0
  5 17  1  0
  6  8  1  0
  6 29  1  0
  7 24  4  0
  7 26  4  0
  8 28  1  0
  9 13  2  0
 10 18  1  0
 10 21  4  0
 10 30  4  0
 11 17  2  0
 12 18  1  0
 13 15  1  0
 14 24  1  0
 15 25  1  0
 16 28  2  0
 17 20  1  0
 19 24  4  0
 20 23  1  0
 21 22  4  0
 22 23  4  0
 25 26  4  0
 27 29  2  0
M  END
$$$$

 Created by Python create_sdf_string function

 30 33  0  0  0  0  0  0  0  0999 V2000
    8.3036    9.8571   18.4133 C   0  0  0  0  0  0  0  0  0  0  0  0
    8.3694    7.6612   22.6703 C   0  0  0  0  0  0  0  0  0  0  0  0
    8.4143    6.6863   16.2273 C   0  0  0  0  0  0  0  0  0  0  0  0
   10.7581    6.5674   21.7636 C   0  0  0  0  0  0  0  0  0  0  0  0
    8.4452    8.7960   19.2958 O   0  0  0  0  0  0  0  0  0  0  0  0
    8.7122    6.7842   24.8569 C   0  0  0  0  0  0  0  0  0  0  0  0
   10.3400    6.1726   14.3081 C   0  0  0  0  0  0  0  0  0  0  0  0
    7.4297    7.5873   24.8962 C   0  0  0  0  0  0  0  0  0  0  0  0
    8.1566   10.0536   16.0516 O   0  0  0  0  0  0  0  0  0  0  0  0
   12.4989    6.2074   20.1776 C   0  0  0  0  0  0  0  0  0  0  0  0
    6.9192    9.1053   20.9073 O   0  0  0  0  0  0  0  0  0  0  0  0
   14.3979    6.0729   18.7784 C   0  0  0  0  0  0  0  0  0  0  0  0
    8.6811    9.5354   16.9998 C   0  0  0  0  0  0  0  0  0  0  0  0
    9.2512    4.2713   13.7653 O   0  0  0  0  0  0  0  0  0  0  0  0
    9.6495    8.6317   16.8332 N   0  0  0  0  0  0  0  0  0  0  0  0
    6.2934    8.6988   23.1988 O   0  0  0  0  0  0  0  0  0  0  0  0
    7.9806    8.6543   20.5437 C   0  0  0  0  0  0  0  0  0  0  0  0
   13.7270    5.7144   19.8610 O   0  0  0  0  0  0  0  0  0  0  0  0
    8.3351    5.5235   15.4478 C   0  0  0  0  0  0  0  0  0  0  0  0
    8.7700    7.8434   21.3915 C   0  0  0  0  0  0  0  0  0  0  0  0
   11.7856    6.8851   19.2401 C   0  0  0  0  0  0  0  0  0  0  0  0
   10.5281    7.4276   19.5649 C   0  0  0  0  0  0  0  0  0  0  0  0
   10.0256    7.2907   20.8484 C   0  0  0  0  0  0  0  0  0  0  0  0
    9.3113    5.3049   14.4911 C   0  0  0  0  0  0  0  0  0  0  0  0
    9.4607    7.5646   16.0139 C   0  0  0  0  0  0  0  0  0  0  0  0
   10.4192    7.3157   15.0955 C   0  0  0  0  0  0  0  0  0  0  0  0
   10.2489    6.4227   23.0218 N   0  0  0  0  0  0  0  0  0  0  0  0
    7.2472    8.0746   23.5050 C   0  0  0  0  0  0  0  0  0  0  0  0
    9.2051    6.9101   23.4604 C   0  0  0  0  0  0  0  0  0  0  0  0
   11.9646    6.0299   21.4251 C   0  0  0  0  0  0  0  0  0  0  0  0
  1  5  1  0
  1 13  1  0
  2 20  2  0
  2 28  1  0
  2 29  1  0
  3 19  4  0
  3 25  4  0
  4 23  4  0
  4 27  1  0
  4 30  4  0
  5 17  1  0
  6  8  1  0
  6 29  1  0
  7 24  4  0
  7 26  4  0
  8 28  1  0
  9 13  2  0
 10 18  1  0
 10 21  4  0
 10 30  4  0
 11 17  2  0
 12 18  1  0
 13 15  1  0
 14 24  1  0
 15 25  1  0
 16 28  2  0
 17 20  1  0
 19 24  4  0
 20 23  1  0
 21 22  4  0
 22 23  4  0
 25 26  4  0
 27 29  2  0
M  END
$$$$

 Created by Python create_sdf_string function

 30 33  0  0  0  0  0  0  0  0999 V2000
    8.3036    9.8571   18.4133 C   0  0  0  0  0  0  0  0  0  0  0  0
    8.3694    7.6612   22.6703 C   0  0  0  0  0  0  0  0  0  0  0  0
    8.4143    6.6863   16.2273 C   0  0  0  0  0  0  0  0  0  0  0  0
   10.7581    6.5674   21.7636 C   0  0  0  0  0  0  0  0  0  0  0  0
    8.4452    8.7960   19.2958 O   0  0  0  0  0  0  0  0  0  0  0  0
    8.7122    6.7842   24.8569 C   0  0  0  0  0  0  0  0  0  0  0  0
   10.3400    6.1726   14.3081 C   0  0  0  0  0  0  0  0  0  0  0  0
    7.4297    7.5873   24.8962 C   0  0  0  0  0  0  0  0  0  0  0  0
    8.1566   10.0536   16.0516 O   0  0  0  0  0  0  0  0  0  0  0  0
   12.4989    6.2074   20.1776 C   0  0  0  0  0  0  0  0  0  0  0  0
    6.9192    9.1053   20.9073 O   0  0  0  0  0  0  0  0  0  0  0  0
   14.3979    6.0729   18.7784 C   0  0  0  0  0  0  0  0  0  0  0  0
    8.6811    9.5354   16.9998 C   0  0  0  0  0  0  0  0  0  0  0  0
    9.2512    4.2713   13.7653 O   0  0  0  0  0  0  0  0  0  0  0  0
    9.6495    8.6317   16.8332 N   0  0  0  0  0  0  0  0  0  0  0  0
    6.2934    8.6988   23.1988 O   0  0  0  0  0  0  0  0  0  0  0  0
    7.9806    8.6543   20.5437 C   0  0  0  0  0  0  0  0  0  0  0  0
   13.7270    5.7144   19.8610 O   0  0  0  0  0  0  0  0  0  0  0  0
    8.3351    5.5235   15.4478 C   0  0  0  0  0  0  0  0  0  0  0  0
    8.7700    7.8434   21.3915 C   0  0  0  0  0  0  0  0  0  0  0  0
   11.7856    6.8851   19.2401 C   0  0  0  0  0  0  0  0  0  0  0  0
   10.5281    7.4276   19.5649 C   0  0  0  0  0  0  0  0  0  0  0  0
   10.0256    7.2907   20.8484 C   0  0  0  0  0  0  0  0  0  0  0  0
    9.3113    5.3049   14.4911 C   0  0  0  0  0  0  0  0  0  0  0  0
    9.4607    7.5646   16.0139 C   0  0  0  0  0  0  0  0  0  0  0  0
   10.4192    7.3157   15.0955 C   0  0  0  0  0  0  0  0  0  0  0  0
   10.2489    6.4227   23.0218 N   0  0  0  0  0  0  0  0  0  0  0  0
    7.2472    8.0746   23.5050 C   0  0  0  0  0  0  0  0  0  0  0  0
    9.2051    6.9101   23.4604 C   0  0  0  0  0  0  0  0  0  0  0  0
   11.9646    6.0299   21.4251 C   0  0  0  0  0  0  0  0  0  0  0  0
  1  5  1  0
  1 13  1  0
  2 20  2  0
  2 28  1  0
  2 29  1  0
  3 19  4  0
  3 25  4  0
  4 23  4  0
  4 27  1  0
  4 30  4  0
  5 17  1  0
  6  8  1  0
  6 29  1  0
  7 24  4  0
  7 26  4  0
  8 28  1  0
  9 13  2  0
 10 18  1  0
 10 21  4  0
 10 30  4  0
 11 17  2  0
 12 18  1  0
 13 15  1  0
 14 24  1  0
 15 25  1  0
 16 28  2  0
 17 20  1  0
 19 24  4  0
 20 23  1  0
 21 22  4  0
 22 23  4  0
 25 26  4  0
 27 29  2  0
M  END
$$$$

 Created by Python create_sdf_string function

 30 33  0  0  0  0  0  0  0  0999 V2000
    8.3036    9.8571   18.4133 C   0  0  0  0  0  0  0  0  0  0  0  0
    8.3694    7.6612   22.6703 C   0  0  0  0  0  0  0  0  0  0  0  0
    8.4143    6.6863   16.2273 C   0  0  0  0  0  0  0  0  0  0  0  0
   10.7581    6.5674   21.7636 C   0  0  0  0  0  0  0  0  0  0  0  0
    8.4452    8.7960   19.2958 O   0  0  0  0  0  0  0  0  0  0  0  0
    8.7122    6.7842   24.8569 C   0  0  0  0  0  0  0  0  0  0  0  0
   10.3400    6.1726   14.3081 C   0  0  0  0  0  0  0  0  0  0  0  0
    7.4297    7.5873   24.8962 C   0  0  0  0  0  0  0  0  0  0  0  0
    8.1566   10.0536   16.0516 O   0  0  0  0  0  0  0  0  0  0  0  0
   12.4989    6.2074   20.1776 C   0  0  0  0  0  0  0  0  0  0  0  0
    6.9192    9.1053   20.9073 O   0  0  0  0  0  0  0  0  0  0  0  0
   14.3979    6.0729   18.7784 C   0  0  0  0  0  0  0  0  0  0  0  0
    8.6811    9.5354   16.9998 C   0  0  0  0  0  0  0  0  0  0  0  0
    9.2512    4.2713   13.7653 O   0  0  0  0  0  0  0  0  0  0  0  0
    9.6495    8.6317   16.8332 N   0  0  0  0  0  0  0  0  0  0  0  0
    6.2934    8.6988   23.1988 O   0  0  0  0  0  0  0  0  0  0  0  0
    7.9806    8.6543   20.5437 C   0  0  0  0  0  0  0  0  0  0  0  0
   13.7270    5.7144   19.8610 O   0  0  0  0  0  0  0  0  0  0  0  0
    8.3351    5.5235   15.4478 C   0  0  0  0  0  0  0  0  0  0  0  0
    8.7700    7.8434   21.3915 C   0  0  0  0  0  0  0  0  0  0  0  0
   11.7856    6.8851   19.2401 C   0  0  0  0  0  0  0  0  0  0  0  0
   10.5281    7.4276   19.5649 C   0  0  0  0  0  0  0  0  0  0  0  0
   10.0256    7.2907   20.8484 C   0  0  0  0  0  0  0  0  0  0  0  0
    9.3113    5.3049   14.4911 C   0  0  0  0  0  0  0  0  0  0  0  0
    9.4607    7.5646   16.0139 C   0  0  0  0  0  0  0  0  0  0  0  0
   10.4192    7.3157   15.0955 C   0  0  0  0  0  0  0  0  0  0  0  0
   10.2489    6.4227   23.0218 N   0  0  0  0  0  0  0  0  0  0  0  0
    7.2472    8.0746   23.5050 C   0  0  0  0  0  0  0  0  0  0  0  0
    9.2051    6.9101   23.4604 C   0  0  0  0  0  0  0  0  0  0  0  0
   11.9646    6.0299   21.4251 C   0  0  0  0  0  0  0  0  0  0  0  0
  1  5  1  0
  1 13  1  0
  2 20  2  0
  2 28  1  0
  2 29  1  0
  3 19  4  0
  3 25  4  0
  4 23  4  0
  4 27  1  0
  4 30  4  0
  5 17  1  0
  6  8  1  0
  6 29  1  0
  7 24  4  0
  7 26  4  0
  8 28  1  0
  9 13  2  0
 10 18  1  0
 10 21  4  0
 10 30  4  0
 11 17  2  0
 12 18  1  0
 13 15  1  0
 14 24  1  0
 15 25  1  0
 16 28  2  0
 17 20  1  0
 19 24  4  0
 20 23  1  0
 21 22  4  0
 22 23  4  0
 25 26  4  0
 27 29  2  0
M  END
$$$$

 Created by Python create_sdf_string function

 30 33  0  0  0  0  0  0  0  0999 V2000
    8.3036    9.8571   18.4133 C   0  0  0  0  0  0  0  0  0  0  0  0
    8.3694    7.6612   22.6703 C   0  0  0  0  0  0  0  0  0  0  0  0
    8.4143    6.6863   16.2273 C   0  0  0  0  0  0  0  0  0  0  0  0
   10.7581    6.5674   21.7636 C   0  0  0  0  0  0  0  0  0  0  0  0
    8.4452    8.7960   19.2958 O   0  0  0  0  0  0  0  0  0  0  0  0
    8.7122    6.7842   24.8569 C   0  0  0  0  0  0  0  0  0  0  0  0
   10.3400    6.1726   14.3081 C   0  0  0  0  0  0  0  0  0  0  0  0
    7.4297    7.5873   24.8962 C   0  0  0  0  0  0  0  0  0  0  0  0
    8.1566   10.0536   16.0516 O   0  0  0  0  0  0  0  0  0  0  0  0
   12.4989    6.2074   20.1776 C   0  0  0  0  0  0  0  0  0  0  0  0
    6.9192    9.1053   20.9073 O   0  0  0  0  0  0  0  0  0  0  0  0
   14.3979    6.0729   18.7784 C   0  0  0  0  0  0  0  0  0  0  0  0
    8.6811    9.5354   16.9998 C   0  0  0  0  0  0  0  0  0  0  0  0
    9.2512    4.2713   13.7653 O   0  0  0  0  0  0  0  0  0  0  0  0
    9.6495    8.6317   16.8332 N   0  0  0  0  0  0  0  0  0  0  0  0
    6.2934    8.6988   23.1988 O   0  0  0  0  0  0  0  0  0  0  0  0
    7.9806    8.6543   20.5437 C   0  0  0  0  0  0  0  0  0  0  0  0
   13.7270    5.7144   19.8610 O   0  0  0  0  0  0  0  0  0  0  0  0
    8.3351    5.5235   15.4478 C   0  0  0  0  0  0  0  0  0  0  0  0
    8.7700    7.8434   21.3915 C   0  0  0  0  0  0  0  0  0  0  0  0
   11.7856    6.8851   19.2401 C   0  0  0  0  0  0  0  0  0  0  0  0
   10.5281    7.4276   19.5649 C   0  0  0  0  0  0  0  0  0  0  0  0
   10.0256    7.2907   20.8484 C   0  0  0  0  0  0  0  0  0  0  0  0
    9.3113    5.3049   14.4911 C   0  0  0  0  0  0  0  0  0  0  0  0
    9.4607    7.5646   16.0139 C   0  0  0  0  0  0  0  0  0  0  0  0
   10.4192    7.3157   15.0955 C   0  0  0  0  0  0  0  0  0  0  0  0
   10.2489    6.4227   23.0218 N   0  0  0  0  0  0  0  0  0  0  0  0
    7.2472    8.0746   23.5050 C   0  0  0  0  0  0  0  0  0  0  0  0
    9.2051    6.9101   23.4604 C   0  0  0  0  0  0  0  0  0  0  0  0
   11.9646    6.0299   21.4251 C   0  0  0  0  0  0  0  0  0  0  0  0
  1  5  1  0
  1 13  1  0
  2 20  2  0
  2 28  1  0
  2 29  1  0
  3 19  4  0
  3 25  4  0
  4 23  4  0
  4 27  1  0
  4 30  4  0
  5 17  1  0
  6  8  1  0
  6 29  1  0
  7 24  4  0
  7 26  4  0
  8 28  1  0
  9 13  2  0
 10 18  1  0
 10 21  4  0
 10 30  4  0
 11 17  2  0
 12 18  1  0
 13 15  1  0
 14 24  1  0
 15 25  1  0
 16 28  2  0
 17 20  1  0
 19 24  4  0
 20 23  1  0
 21 22  4  0
 22 23  4  0
 25 26  4  0
 27 29  2  0
M  END
$$$$

 Created by Python create_sdf_string function

 30 33  0  0  0  0  0  0  0  0999 V2000
    8.3036    9.8571   18.4133 C   0  0  0  0  0  0  0  0  0  0  0  0
    8.3694    7.6612   22.6703 C   0  0  0  0  0  0  0  0  0  0  0  0
    8.4143    6.6863   16.2273 C   0  0  0  0  0  0  0  0  0  0  0  0
   10.7581    6.5674   21.7636 C   0  0  0  0  0  0  0  0  0  0  0  0
    8.4452    8.7960   19.2958 O   0  0  0  0  0  0  0  0  0  0  0  0
    8.7122    6.7842   24.8569 C   0  0  0  0  0  0  0  0  0  0  0  0
   10.3400    6.1726   14.3081 C   0  0  0  0  0  0  0  0  0  0  0  0
    7.4297    7.5873   24.8962 C   0  0  0  0  0  0  0  0  0  0  0  0
    8.1566   10.0536   16.0516 O   0  0  0  0  0  0  0  0  0  0  0  0
   12.4989    6.2074   20.1776 C   0  0  0  0  0  0  0  0  0  0  0  0
    6.9192    9.1053   20.9073 O   0  0  0  0  0  0  0  0  0  0  0  0
   14.3979    6.0729   18.7784 C   0  0  0  0  0  0  0  0  0  0  0  0
    8.6811    9.5354   16.9998 C   0  0  0  0  0  0  0  0  0  0  0  0
    9.2512    4.2713   13.7653 O   0  0  0  0  0  0  0  0  0  0  0  0
    9.6495    8.6317   16.8332 N   0  0  0  0  0  0  0  0  0  0  0  0
    6.2934    8.6988   23.1988 O   0  0  0  0  0  0  0  0  0  0  0  0
    7.9806    8.6543   20.5437 C   0  0  0  0  0  0  0  0  0  0  0  0
   13.7270    5.7144   19.8610 O   0  0  0  0  0  0  0  0  0  0  0  0
    8.3351    5.5235   15.4478 C   0  0  0  0  0  0  0  0  0  0  0  0
    8.7700    7.8434   21.3915 C   0  0  0  0  0  0  0  0  0  0  0  0
   11.7856    6.8851   19.2401 C   0  0  0  0  0  0  0  0  0  0  0  0
   10.5281    7.4276   19.5649 C   0  0  0  0  0  0  0  0  0  0  0  0
   10.0256    7.2907   20.8484 C   0  0  0  0  0  0  0  0  0  0  0  0
    9.3113    5.3049   14.4911 C   0  0  0  0  0  0  0  0  0  0  0  0
    9.4607    7.5646   16.0139 C   0  0  0  0  0  0  0  0  0  0  0  0
   10.4192    7.3157   15.0955 C   0  0  0  0  0  0  0  0  0  0  0  0
   10.2489    6.4227   23.0218 N   0  0  0  0  0  0  0  0  0  0  0  0
    7.2472    8.0746   23.5050 C   0  0  0  0  0  0  0  0  0  0  0  0
    9.2051    6.9101   23.4604 C   0  0  0  0  0  0  0  0  0  0  0  0
   11.9646    6.0299   21.4251 C   0  0  0  0  0  0  0  0  0  0  0  0
  1  5  1  0
  1 13  1  0
  2 20  2  0
  2 28  1  0
  2 29  1  0
  3 19  4  0
  3 25  4  0
  4 23  4  0
  4 27  1  0
  4 30  4  0
  5 17  1  0
  6  8  1  0
  6 29  1  0
  7 24  4  0
  7 26  4  0
  8 28  1  0
  9 13  2  0
 10 18  1  0
 10 21  4  0
 10 30  4  0
 11 17  2  0
 12 18  1  0
 13 15  1  0
 14 24  1  0
 15 25  1  0
 16 28  2  0
 17 20  1  0
 19 24  4  0
 20 23  1  0
 21 22  4  0
 22 23  4  0
 25 26  4  0
 27 29  2  0
M  END
$$$$

 Created by Python create_sdf_string function

 30 33  0  0  0  0  0  0  0  0999 V2000
    8.3036    9.8571   18.4133 C   0  0  0  0  0  0  0  0  0  0  0  0
    8.3694    7.6612   22.6703 C   0  0  0  0  0  0  0  0  0  0  0  0
    8.4143    6.6863   16.2273 C   0  0  0  0  0  0  0  0  0  0  0  0
   10.7581    6.5674   21.7636 C   0  0  0  0  0  0  0  0  0  0  0  0
    8.4452    8.7960   19.2958 O   0  0  0  0  0  0  0  0  0  0  0  0
    8.7122    6.7842   24.8569 C   0  0  0  0  0  0  0  0  0  0  0  0
   10.3400    6.1726   14.3081 C   0  0  0  0  0  0  0  0  0  0  0  0
    7.4297    7.5873   24.8962 C   0  0  0  0  0  0  0  0  0  0  0  0
    8.1566   10.0536   16.0516 O   0  0  0  0  0  0  0  0  0  0  0  0
   12.4989    6.2074   20.1776 C   0  0  0  0  0  0  0  0  0  0  0  0
    6.9192    9.1053   20.9073 O   0  0  0  0  0  0  0  0  0  0  0  0
   14.3979    6.0729   18.7784 C   0  0  0  0  0  0  0  0  0  0  0  0
    8.6811    9.5354   16.9998 C   0  0  0  0  0  0  0  0  0  0  0  0
    9.2512    4.2713   13.7653 O   0  0  0  0  0  0  0  0  0  0  0  0
    9.6495    8.6317   16.8332 N   0  0  0  0  0  0  0  0  0  0  0  0
    6.2934    8.6988   23.1988 O   0  0  0  0  0  0  0  0  0  0  0  0
    7.9806    8.6543   20.5437 C   0  0  0  0  0  0  0  0  0  0  0  0
   13.7270    5.7144   19.8610 O   0  0  0  0  0  0  0  0  0  0  0  0
    8.3351    5.5235   15.4478 C   0  0  0  0  0  0  0  0  0  0  0  0
    8.7700    7.8434   21.3915 C   0  0  0  0  0  0  0  0  0  0  0  0
   11.7856    6.8851   19.2401 C   0  0  0  0  0  0  0  0  0  0  0  0
   10.5281    7.4276   19.5649 C   0  0  0  0  0  0  0  0  0  0  0  0
   10.0256    7.2907   20.8484 C   0  0  0  0  0  0  0  0  0  0  0  0
    9.3113    5.3049   14.4911 C   0  0  0  0  0  0  0  0  0  0  0  0
    9.4607    7.5646   16.0139 C   0  0  0  0  0  0  0  0  0  0  0  0
   10.4192    7.3157   15.0955 C   0  0  0  0  0  0  0  0  0  0  0  0
   10.2489    6.4227   23.0218 N   0  0  0  0  0  0  0  0  0  0  0  0
    7.2472    8.0746   23.5050 C   0  0  0  0  0  0  0  0  0  0  0  0
    9.2051    6.9101   23.4604 C   0  0  0  0  0  0  0  0  0  0  0  0
   11.9646    6.0299   21.4251 C   0  0  0  0  0  0  0  0  0  0  0  0
  1  5  1  0
  1 13  1  0
  2 20  2  0
  2 28  1  0
  2 29  1  0
  3 19  4  0
  3 25  4  0
  4 23  4  0
  4 27  1  0
  4 30  4  0
  5 17  1  0
  6  8  1  0
  6 29  1  0
  7 24  4  0
  7 26  4  0
  8 28  1  0
  9 13  2  0
 10 18  1  0
 10 21  4  0
 10 30  4  0
 11 17  2  0
 12 18  1  0
 13 15  1  0
 14 24  1  0
 15 25  1  0
 16 28  2  0
 17 20  1  0
 19 24  4  0
 20 23  1  0
 21 22  4  0
 22 23  4  0
 25 26  4  0
 27 29  2  0
M  END
$$$$

 Created by Python create_sdf_string function

 30 33  0  0  0  0  0  0  0  0999 V2000
    8.3036    9.8571   18.4133 C   0  0  0  0  0  0  0  0  0  0  0  0
    8.3694    7.6612   22.6703 C   0  0  0  0  0  0  0  0  0  0  0  0
    8.4143    6.6863   16.2273 C   0  0  0  0  0  0  0  0  0  0  0  0
   10.7581    6.5674   21.7636 C   0  0  0  0  0  0  0  0  0  0  0  0
    8.4452    8.7960   19.2958 O   0  0  0  0  0  0  0  0  0  0  0  0
    8.7122    6.7842   24.8569 C   0  0  0  0  0  0  0  0  0  0  0  0
   10.3400    6.1726   14.3081 C   0  0  0  0  0  0  0  0  0  0  0  0
    7.4297    7.5873   24.8962 C   0  0  0  0  0  0  0  0  0  0  0  0
    8.1566   10.0536   16.0516 O   0  0  0  0  0  0  0  0  0  0  0  0
   12.4989    6.2074   20.1776 C   0  0  0  0  0  0  0  0  0  0  0  0
    6.9192    9.1053   20.9073 O   0  0  0  0  0  0  0  0  0  0  0  0
   14.3979    6.0729   18.7784 C   0  0  0  0  0  0  0  0  0  0  0  0
    8.6811    9.5354   16.9998 C   0  0  0  0  0  0  0  0  0  0  0  0
    9.2512    4.2713   13.7653 O   0  0  0  0  0  0  0  0  0  0  0  0
    9.6495    8.6317   16.8332 N   0  0  0  0  0  0  0  0  0  0  0  0
    6.2934    8.6988   23.1988 O   0  0  0  0  0  0  0  0  0  0  0  0
    7.9806    8.6543   20.5437 C   0  0  0  0  0  0  0  0  0  0  0  0
   13.7270    5.7144   19.8610 O   0  0  0  0  0  0  0  0  0  0  0  0
    8.3351    5.5235   15.4478 C   0  0  0  0  0  0  0  0  0  0  0  0
    8.7700    7.8434   21.3915 C   0  0  0  0  0  0  0  0  0  0  0  0
   11.7856    6.8851   19.2401 C   0  0  0  0  0  0  0  0  0  0  0  0
   10.5281    7.4276   19.5649 C   0  0  0  0  0  0  0  0  0  0  0  0
   10.0256    7.2907   20.8484 C   0  0  0  0  0  0  0  0  0  0  0  0
    9.3113    5.3049   14.4911 C   0  0  0  0  0  0  0  0  0  0  0  0
    9.4607    7.5646   16.0139 C   0  0  0  0  0  0  0  0  0  0  0  0
   10.4192    7.3157   15.0955 C   0  0  0  0  0  0  0  0  0  0  0  0
   10.2489    6.4227   23.0218 N   0  0  0  0  0  0  0  0  0  0  0  0
    7.2472    8.0746   23.5050 C   0  0  0  0  0  0  0  0  0  0  0  0
    9.2051    6.9101   23.4604 C   0  0  0  0  0  0  0  0  0  0  0  0
   11.9646    6.0299   21.4251 C   0  0  0  0  0  0  0  0  0  0  0  0
  1  5  1  0
  1 13  1  0
  2 20  2  0
  2 28  1  0
  2 29  1  0
  3 19  4  0
  3 25  4  0
  4 23  4  0
  4 27  1  0
  4 30  4  0
  5 17  1  0
  6  8  1  0
  6 29  1  0
  7 24  4  0
  7 26  4  0
  8 28  1  0
  9 13  2  0
 10 18  1  0
 10 21  4  0
 10 30  4  0
 11 17  2  0
 12 18  1  0
 13 15  1  0
 14 24  1  0
 15 25  1  0
 16 28  2  0
 17 20  1  0
 19 24  4  0
 20 23  1  0
 21 22  4  0
 22 23  4  0
 25 26  4  0
 27 29  2  0
M  END
$$$$

 Created by Python create_sdf_string function

 30 33  0  0  0  0  0  0  0  0999 V2000
    8.3036    9.8571   18.4133 C   0  0  0  0  0  0  0  0  0  0  0  0
    8.3694    7.6612   22.6703 C   0  0  0  0  0  0  0  0  0  0  0  0
    8.4143    6.6863   16.2273 C   0  0  0  0  0  0  0  0  0  0  0  0
   10.7581    6.5674   21.7636 C   0  0  0  0  0  0  0  0  0  0  0  0
    8.4452    8.7960   19.2958 O   0  0  0  0  0  0  0  0  0  0  0  0
    8.7122    6.7842   24.8569 C   0  0  0  0  0  0  0  0  0  0  0  0
   10.3400    6.1726   14.3081 C   0  0  0  0  0  0  0  0  0  0  0  0
    7.4297    7.5873   24.8962 C   0  0  0  0  0  0  0  0  0  0  0  0
    8.1566   10.0536   16.0516 O   0  0  0  0  0  0  0  0  0  0  0  0
   12.4989    6.2074   20.1776 C   0  0  0  0  0  0  0  0  0  0  0  0
    6.9192    9.1053   20.9073 O   0  0  0  0  0  0  0  0  0  0  0  0
   14.3979    6.0729   18.7784 C   0  0  0  0  0  0  0  0  0  0  0  0
    8.6811    9.5354   16.9998 C   0  0  0  0  0  0  0  0  0  0  0  0
    9.2512    4.2713   13.7653 O   0  0  0  0  0  0  0  0  0  0  0  0
    9.6495    8.6317   16.8332 N   0  0  0  0  0  0  0  0  0  0  0  0
    6.2934    8.6988   23.1988 O   0  0  0  0  0  0  0  0  0  0  0  0
    7.9806    8.6543   20.5437 C   0  0  0  0  0  0  0  0  0  0  0  0
   13.7270    5.7144   19.8610 O   0  0  0  0  0  0  0  0  0  0  0  0
    8.3351    5.5235   15.4478 C   0  0  0  0  0  0  0  0  0  0  0  0
    8.7700    7.8434   21.3915 C   0  0  0  0  0  0  0  0  0  0  0  0
   11.7856    6.8851   19.2401 C   0  0  0  0  0  0  0  0  0  0  0  0
   10.5281    7.4276   19.5649 C   0  0  0  0  0  0  0  0  0  0  0  0
   10.0256    7.2907   20.8484 C   0  0  0  0  0  0  0  0  0  0  0  0
    9.3113    5.3049   14.4911 C   0  0  0  0  0  0  0  0  0  0  0  0
    9.4607    7.5646   16.0139 C   0  0  0  0  0  0  0  0  0  0  0  0
   10.4192    7.3157   15.0955 C   0  0  0  0  0  0  0  0  0  0  0  0
   10.2489    6.4227   23.0218 N   0  0  0  0  0  0  0  0  0  0  0  0
    7.2472    8.0746   23.5050 C   0  0  0  0  0  0  0  0  0  0  0  0
    9.2051    6.9101   23.4604 C   0  0  0  0  0  0  0  0  0  0  0  0
   11.9646    6.0299   21.4251 C   0  0  0  0  0  0  0  0  0  0  0  0
  1  5  1  0
  1 13  1  0
  2 20  2  0
  2 28  1  0
  2 29  1  0
  3 19  4  0
  3 25  4  0
  4 23  4  0
  4 27  1  0
  4 30  4  0
  5 17  1  0
  6  8  1  0
  6 29  1  0
  7 24  4  0
  7 26  4  0
  8 28  1  0
  9 13  2  0
 10 18  1  0
 10 21  4  0
 10 30  4  0
 11 17  2  0
 12 18  1  0
 13 15  1  0
 14 24  1  0
 15 25  1  0
 16 28  2  0
 17 20  1  0
 19 24  4  0
 20 23  1  0
 21 22  4  0
 22 23  4  0
 25 26  4  0
 27 29  2  0
M  END
$$$$

 Created by Python create_sdf_string function

 30 33  0  0  0  0  0  0  0  0999 V2000
    8.3036    9.8571   18.4133 C   0  0  0  0  0  0  0  0  0  0  0  0
    8.3694    7.6612   22.6703 C   0  0  0  0  0  0  0  0  0  0  0  0
    8.4143    6.6863   16.2273 C   0  0  0  0  0  0  0  0  0  0  0  0
   10.7581    6.5674   21.7636 C   0  0  0  0  0  0  0  0  0  0  0  0
    8.4452    8.7960   19.2958 O   0  0  0  0  0  0  0  0  0  0  0  0
    8.7122    6.7842   24.8569 C   0  0  0  0  0  0  0  0  0  0  0  0
   10.3400    6.1726   14.3081 C   0  0  0  0  0  0  0  0  0  0  0  0
    7.4297    7.5873   24.8962 C   0  0  0  0  0  0  0  0  0  0  0  0
    8.1566   10.0536   16.0516 O   0  0  0  0  0  0  0  0  0  0  0  0
   12.4989    6.2074   20.1776 C   0  0  0  0  0  0  0  0  0  0  0  0
    6.9192    9.1053   20.9073 O   0  0  0  0  0  0  0  0  0  0  0  0
   14.3979    6.0729   18.7784 C   0  0  0  0  0  0  0  0  0  0  0  0
    8.6811    9.5354   16.9998 C   0  0  0  0  0  0  0  0  0  0  0  0
    9.2512    4.2713   13.7653 O   0  0  0  0  0  0  0  0  0  0  0  0
    9.6495    8.6317   16.8332 N   0  0  0  0  0  0  0  0  0  0  0  0
    6.2934    8.6988   23.1988 O   0  0  0  0  0  0  0  0  0  0  0  0
    7.9806    8.6543   20.5437 C   0  0  0  0  0  0  0  0  0  0  0  0
   13.7270    5.7144   19.8610 O   0  0  0  0  0  0  0  0  0  0  0  0
    8.3351    5.5235   15.4478 C   0  0  0  0  0  0  0  0  0  0  0  0
    8.7700    7.8434   21.3915 C   0  0  0  0  0  0  0  0  0  0  0  0
   11.7856    6.8851   19.2401 C   0  0  0  0  0  0  0  0  0  0  0  0
   10.5281    7.4276   19.5649 C   0  0  0  0  0  0  0  0  0  0  0  0
   10.0256    7.2907   20.8484 C   0  0  0  0  0  0  0  0  0  0  0  0
    9.3113    5.3049   14.4911 C   0  0  0  0  0  0  0  0  0  0  0  0
    9.4607    7.5646   16.0139 C   0  0  0  0  0  0  0  0  0  0  0  0
   10.4192    7.3157   15.0955 C   0  0  0  0  0  0  0  0  0  0  0  0
   10.2489    6.4227   23.0218 N   0  0  0  0  0  0  0  0  0  0  0  0
    7.2472    8.0746   23.5050 C   0  0  0  0  0  0  0  0  0  0  0  0
    9.2051    6.9101   23.4604 C   0  0  0  0  0  0  0  0  0  0  0  0
   11.9646    6.0299   21.4251 C   0  0  0  0  0  0  0  0  0  0  0  0
  1  5  1  0
  1 13  1  0
  2 20  2  0
  2 28  1  0
  2 29  1  0
  3 19  4  0
  3 25  4  0
  4 23  4  0
  4 27  1  0
  4 30  4  0
  5 17  1  0
  6  8  1  0
  6 29  1  0
  7 24  4  0
  7 26  4  0
  8 28  1  0
  9 13  2  0
 10 18  1  0
 10 21  4  0
 10 30  4  0
 11 17  2  0
 12 18  1  0
 13 15  1  0
 14 24  1  0
 15 25  1  0
 16 28  2  0
 17 20  1  0
 19 24  4  0
 20 23  1  0
 21 22  4  0
 22 23  4  0
 25 26  4  0
 27 29  2  0
M  END
$$$$

 Created by Python create_sdf_string function

 30 33  0  0  0  0  0  0  0  0999 V2000
    8.3036    9.8571   18.4133 C   0  0  0  0  0  0  0  0  0  0  0  0
    8.3694    7.6612   22.6703 C   0  0  0  0  0  0  0  0  0  0  0  0
    8.4143    6.6863   16.2273 C   0  0  0  0  0  0  0  0  0  0  0  0
   10.7581    6.5674   21.7636 C   0  0  0  0  0  0  0  0  0  0  0  0
    8.4452    8.7960   19.2958 O   0  0  0  0  0  0  0  0  0  0  0  0
    8.7122    6.7842   24.8569 C   0  0  0  0  0  0  0  0  0  0  0  0
   10.3400    6.1726   14.3081 C   0  0  0  0  0  0  0  0  0  0  0  0
    7.4297    7.5873   24.8962 C   0  0  0  0  0  0  0  0  0  0  0  0
    8.1566   10.0536   16.0516 O   0  0  0  0  0  0  0  0  0  0  0  0
   12.4989    6.2074   20.1776 C   0  0  0  0  0  0  0  0  0  0  0  0
    6.9192    9.1053   20.9073 O   0  0  0  0  0  0  0  0  0  0  0  0
   14.3979    6.0729   18.7784 C   0  0  0  0  0  0  0  0  0  0  0  0
    8.6811    9.5354   16.9998 C   0  0  0  0  0  0  0  0  0  0  0  0
    9.2512    4.2713   13.7653 O   0  0  0  0  0  0  0  0  0  0  0  0
    9.6495    8.6317   16.8332 N   0  0  0  0  0  0  0  0  0  0  0  0
    6.2934    8.6988   23.1988 O   0  0  0  0  0  0  0  0  0  0  0  0
    7.9806    8.6543   20.5437 C   0  0  0  0  0  0  0  0  0  0  0  0
   13.7270    5.7144   19.8610 O   0  0  0  0  0  0  0  0  0  0  0  0
    8.3351    5.5235   15.4478 C   0  0  0  0  0  0  0  0  0  0  0  0
    8.7700    7.8434   21.3915 C   0  0  0  0  0  0  0  0  0  0  0  0
   11.7856    6.8851   19.2401 C   0  0  0  0  0  0  0  0  0  0  0  0
   10.5281    7.4276   19.5649 C   0  0  0  0  0  0  0  0  0  0  0  0
   10.0256    7.2907   20.8484 C   0  0  0  0  0  0  0  0  0  0  0  0
    9.3113    5.3049   14.4911 C   0  0  0  0  0  0  0  0  0  0  0  0
    9.4607    7.5646   16.0139 C   0  0  0  0  0  0  0  0  0  0  0  0
   10.4192    7.3157   15.0955 C   0  0  0  0  0  0  0  0  0  0  0  0
   10.2489    6.4227   23.0218 N   0  0  0  0  0  0  0  0  0  0  0  0
    7.2472    8.0746   23.5050 C   0  0  0  0  0  0  0  0  0  0  0  0
    9.2051    6.9101   23.4604 C   0  0  0  0  0  0  0  0  0  0  0  0
   11.9646    6.0299   21.4251 C   0  0  0  0  0  0  0  0  0  0  0  0
  1  5  1  0
  1 13  1  0
  2 20  2  0
  2 28  1  0
  2 29  1  0
  3 19  4  0
  3 25  4  0
  4 23  4  0
  4 27  1  0
  4 30  4  0
  5 17  1  0
  6  8  1  0
  6 29  1  0
  7 24  4  0
  7 26  4  0
  8 28  1  0
  9 13  2  0
 10 18  1  0
 10 21  4  0
 10 30  4  0
 11 17  2  0
 12 18  1  0
 13 15  1  0
 14 24  1  0
 15 25  1  0
 16 28  2  0
 17 20  1  0
 19 24  4  0
 20 23  1  0
 21 22  4  0
 22 23  4  0
 25 26  4  0
 27 29  2  0
M  END
$$$$

 Created by Python create_sdf_string function

 30 33  0  0  0  0  0  0  0  0999 V2000
    8.3036    9.8571   18.4133 C   0  0  0  0  0  0  0  0  0  0  0  0
    8.3694    7.6612   22.6703 C   0  0  0  0  0  0  0  0  0  0  0  0
    8.4143    6.6863   16.2273 C   0  0  0  0  0  0  0  0  0  0  0  0
   10.7581    6.5674   21.7636 C   0  0  0  0  0  0  0  0  0  0  0  0
    8.4452    8.7960   19.2958 O   0  0  0  0  0  0  0  0  0  0  0  0
    8.7122    6.7842   24.8569 C   0  0  0  0  0  0  0  0  0  0  0  0
   10.3400    6.1726   14.3081 C   0  0  0  0  0  0  0  0  0  0  0  0
    7.4297    7.5873   24.8962 C   0  0  0  0  0  0  0  0  0  0  0  0
    8.1566   10.0536   16.0516 O   0  0  0  0  0  0  0  0  0  0  0  0
   12.4989    6.2074   20.1776 C   0  0  0  0  0  0  0  0  0  0  0  0
    6.9192    9.1053   20.9073 O   0  0  0  0  0  0  0  0  0  0  0  0
   14.3979    6.0729   18.7784 C   0  0  0  0  0  0  0  0  0  0  0  0
    8.6811    9.5354   16.9998 C   0  0  0  0  0  0  0  0  0  0  0  0
    9.2512    4.2713   13.7653 O   0  0  0  0  0  0  0  0  0  0  0  0
    9.6495    8.6317   16.8332 N   0  0  0  0  0  0  0  0  0  0  0  0
    6.2934    8.6988   23.1988 O   0  0  0  0  0  0  0  0  0  0  0  0
    7.9806    8.6543   20.5437 C   0  0  0  0  0  0  0  0  0  0  0  0
   13.7270    5.7144   19.8610 O   0  0  0  0  0  0  0  0  0  0  0  0
    8.3351    5.5235   15.4478 C   0  0  0  0  0  0  0  0  0  0  0  0
    8.7700    7.8434   21.3915 C   0  0  0  0  0  0  0  0  0  0  0  0
   11.7856    6.8851   19.2401 C   0  0  0  0  0  0  0  0  0  0  0  0
   10.5281    7.4276   19.5649 C   0  0  0  0  0  0  0  0  0  0  0  0
   10.0256    7.2907   20.8484 C   0  0  0  0  0  0  0  0  0  0  0  0
    9.3113    5.3049   14.4911 C   0  0  0  0  0  0  0  0  0  0  0  0
    9.4607    7.5646   16.0139 C   0  0  0  0  0  0  0  0  0  0  0  0
   10.4192    7.3157   15.0955 C   0  0  0  0  0  0  0  0  0  0  0  0
   10.2489    6.4227   23.0218 N   0  0  0  0  0  0  0  0  0  0  0  0
    7.2472    8.0746   23.5050 C   0  0  0  0  0  0  0  0  0  0  0  0
    9.2051    6.9101   23.4604 C   0  0  0  0  0  0  0  0  0  0  0  0
   11.9646    6.0299   21.4251 C   0  0  0  0  0  0  0  0  0  0  0  0
  1  5  1  0
  1 13  1  0
  2 20  2  0
  2 28  1  0
  2 29  1  0
  3 19  4  0
  3 25  4  0
  4 23  4  0
  4 27  1  0
  4 30  4  0
  5 17  1  0
  6  8  1  0
  6 29  1  0
  7 24  4  0
  7 26  4  0
  8 28  1  0
  9 13  2  0
 10 18  1  0
 10 21  4  0
 10 30  4  0
 11 17  2  0
 12 18  1  0
 13 15  1  0
 14 24  1  0
 15 25  1  0
 16 28  2  0
 17 20  1  0
 19 24  4  0
 20 23  1  0
 21 22  4  0
 22 23  4  0
 25 26  4  0
 27 29  2  0
M  END
$$$$

 Created by Python create_sdf_string function

 30 33  0  0  0  0  0  0  0  0999 V2000
    8.3036    9.8571   18.4133 C   0  0  0  0  0  0  0  0  0  0  0  0
    8.3694    7.6612   22.6703 C   0  0  0  0  0  0  0  0  0  0  0  0
    8.4143    6.6863   16.2273 C   0  0  0  0  0  0  0  0  0  0  0  0
   10.7581    6.5674   21.7636 C   0  0  0  0  0  0  0  0  0  0  0  0
    8.4452    8.7960   19.2958 O   0  0  0  0  0  0  0  0  0  0  0  0
    8.7122    6.7842   24.8569 C   0  0  0  0  0  0  0  0  0  0  0  0
   10.3400    6.1726   14.3081 C   0  0  0  0  0  0  0  0  0  0  0  0
    7.4297    7.5873   24.8962 C   0  0  0  0  0  0  0  0  0  0  0  0
    8.1566   10.0536   16.0516 O   0  0  0  0  0  0  0  0  0  0  0  0
   12.4989    6.2074   20.1776 C   0  0  0  0  0  0  0  0  0  0  0  0
    6.9192    9.1053   20.9073 O   0  0  0  0  0  0  0  0  0  0  0  0
   14.3979    6.0729   18.7784 C   0  0  0  0  0  0  0  0  0  0  0  0
    8.6811    9.5354   16.9998 C   0  0  0  0  0  0  0  0  0  0  0  0
    9.2512    4.2713   13.7653 O   0  0  0  0  0  0  0  0  0  0  0  0
    9.6495    8.6317   16.8332 N   0  0  0  0  0  0  0  0  0  0  0  0
    6.2934    8.6988   23.1988 O   0  0  0  0  0  0  0  0  0  0  0  0
    7.9806    8.6543   20.5437 C   0  0  0  0  0  0  0  0  0  0  0  0
   13.7270    5.7144   19.8610 O   0  0  0  0  0  0  0  0  0  0  0  0
    8.3351    5.5235   15.4478 C   0  0  0  0  0  0  0  0  0  0  0  0
    8.7700    7.8434   21.3915 C   0  0  0  0  0  0  0  0  0  0  0  0
   11.7856    6.8851   19.2401 C   0  0  0  0  0  0  0  0  0  0  0  0
   10.5281    7.4276   19.5649 C   0  0  0  0  0  0  0  0  0  0  0  0
   10.0256    7.2907   20.8484 C   0  0  0  0  0  0  0  0  0  0  0  0
    9.3113    5.3049   14.4911 C   0  0  0  0  0  0  0  0  0  0  0  0
    9.4607    7.5646   16.0139 C   0  0  0  0  0  0  0  0  0  0  0  0
   10.4192    7.3157   15.0955 C   0  0  0  0  0  0  0  0  0  0  0  0
   10.2489    6.4227   23.0218 N   0  0  0  0  0  0  0  0  0  0  0  0
    7.2472    8.0746   23.5050 C   0  0  0  0  0  0  0  0  0  0  0  0
    9.2051    6.9101   23.4604 C   0  0  0  0  0  0  0  0  0  0  0  0
   11.9646    6.0299   21.4251 C   0  0  0  0  0  0  0  0  0  0  0  0
  1  5  1  0
  1 13  1  0
  2 20  2  0
  2 28  1  0
  2 29  1  0
  3 19  4  0
  3 25  4  0
  4 23  4  0
  4 27  1  0
  4 30  4  0
  5 17  1  0
  6  8  1  0
  6 29  1  0
  7 24  4  0
  7 26  4  0
  8 28  1  0
  9 13  2  0
 10 18  1  0
 10 21  4  0
 10 30  4  0
 11 17  2  0
 12 18  1  0
 13 15  1  0
 14 24  1  0
 15 25  1  0
 16 28  2  0
 17 20  1  0
 19 24  4  0
 20 23  1  0
 21 22  4  0
 22 23  4  0
 25 26  4  0
 27 29  2  0
M  END
$$$$

 Created by Python create_sdf_string function

 30 33  0  0  0  0  0  0  0  0999 V2000
    8.3036    9.8571   18.4133 C   0  0  0  0  0  0  0  0  0  0  0  0
    8.3694    7.6612   22.6703 C   0  0  0  0  0  0  0  0  0  0  0  0
    8.4143    6.6863   16.2273 C   0  0  0  0  0  0  0  0  0  0  0  0
   10.7581    6.5674   21.7636 C   0  0  0  0  0  0  0  0  0  0  0  0
    8.4452    8.7960   19.2958 O   0  0  0  0  0  0  0  0  0  0  0  0
    8.7122    6.7842   24.8569 C   0  0  0  0  0  0  0  0  0  0  0  0
   10.3400    6.1726   14.3081 C   0  0  0  0  0  0  0  0  0  0  0  0
    7.4297    7.5873   24.8962 C   0  0  0  0  0  0  0  0  0  0  0  0
    8.1566   10.0536   16.0516 O   0  0  0  0  0  0  0  0  0  0  0  0
   12.4989    6.2074   20.1776 C   0  0  0  0  0  0  0  0  0  0  0  0
    6.9192    9.1053   20.9073 O   0  0  0  0  0  0  0  0  0  0  0  0
   14.3979    6.0729   18.7784 C   0  0  0  0  0  0  0  0  0  0  0  0
    8.6811    9.5354   16.9998 C   0  0  0  0  0  0  0  0  0  0  0  0
    9.2512    4.2713   13.7653 O   0  0  0  0  0  0  0  0  0  0  0  0
    9.6495    8.6317   16.8332 N   0  0  0  0  0  0  0  0  0  0  0  0
    6.2934    8.6988   23.1988 O   0  0  0  0  0  0  0  0  0  0  0  0
    7.9806    8.6543   20.5437 C   0  0  0  0  0  0  0  0  0  0  0  0
   13.7270    5.7144   19.8610 O   0  0  0  0  0  0  0  0  0  0  0  0
    8.3351    5.5235   15.4478 C   0  0  0  0  0  0  0  0  0  0  0  0
    8.7700    7.8434   21.3915 C   0  0  0  0  0  0  0  0  0  0  0  0
   11.7856    6.8851   19.2401 C   0  0  0  0  0  0  0  0  0  0  0  0
   10.5281    7.4276   19.5649 C   0  0  0  0  0  0  0  0  0  0  0  0
   10.0256    7.2907   20.8484 C   0  0  0  0  0  0  0  0  0  0  0  0
    9.3113    5.3049   14.4911 C   0  0  0  0  0  0  0  0  0  0  0  0
    9.4607    7.5646   16.0139 C   0  0  0  0  0  0  0  0  0  0  0  0
   10.4192    7.3157   15.0955 C   0  0  0  0  0  0  0  0  0  0  0  0
   10.2489    6.4227   23.0218 N   0  0  0  0  0  0  0  0  0  0  0  0
    7.2472    8.0746   23.5050 C   0  0  0  0  0  0  0  0  0  0  0  0
    9.2051    6.9101   23.4604 C   0  0  0  0  0  0  0  0  0  0  0  0
   11.9646    6.0299   21.4251 C   0  0  0  0  0  0  0  0  0  0  0  0
  1  5  1  0
  1 13  1  0
  2 20  2  0
  2 28  1  0
  2 29  1  0
  3 19  4  0
  3 25  4  0
  4 23  4  0
  4 27  1  0
  4 30  4  0
  5 17  1  0
  6  8  1  0
  6 29  1  0
  7 24  4  0
  7 26  4  0
  8 28  1  0
  9 13  2  0
 10 18  1  0
 10 21  4  0
 10 30  4  0
 11 17  2  0
 12 18  1  0
 13 15  1  0
 14 24  1  0
 15 25  1  0
 16 28  2  0
 17 20  1  0
 19 24  4  0
 20 23  1  0
 21 22  4  0
 22 23  4  0
 25 26  4  0
 27 29  2  0
M  END
$$$$

 Created by Python create_sdf_string function

 30 33  0  0  0  0  0  0  0  0999 V2000
    8.3036    9.8571   18.4133 C   0  0  0  0  0  0  0  0  0  0  0  0
    8.3694    7.6612   22.6703 C   0  0  0  0  0  0  0  0  0  0  0  0
    8.4143    6.6863   16.2273 C   0  0  0  0  0  0  0  0  0  0  0  0
   10.7581    6.5674   21.7636 C   0  0  0  0  0  0  0  0  0  0  0  0
    8.4452    8.7960   19.2958 O   0  0  0  0  0  0  0  0  0  0  0  0
    8.7122    6.7842   24.8569 C   0  0  0  0  0  0  0  0  0  0  0  0
   10.3400    6.1726   14.3081 C   0  0  0  0  0  0  0  0  0  0  0  0
    7.4297    7.5873   24.8962 C   0  0  0  0  0  0  0  0  0  0  0  0
    8.1566   10.0536   16.0516 O   0  0  0  0  0  0  0  0  0  0  0  0
   12.4989    6.2074   20.1776 C   0  0  0  0  0  0  0  0  0  0  0  0
    6.9192    9.1053   20.9073 O   0  0  0  0  0  0  0  0  0  0  0  0
   14.3979    6.0729   18.7784 C   0  0  0  0  0  0  0  0  0  0  0  0
    8.6811    9.5354   16.9998 C   0  0  0  0  0  0  0  0  0  0  0  0
    9.2512    4.2713   13.7653 O   0  0  0  0  0  0  0  0  0  0  0  0
    9.6495    8.6317   16.8332 N   0  0  0  0  0  0  0  0  0  0  0  0
    6.2934    8.6988   23.1988 O   0  0  0  0  0  0  0  0  0  0  0  0
    7.9806    8.6543   20.5437 C   0  0  0  0  0  0  0  0  0  0  0  0
   13.7270    5.7144   19.8610 O   0  0  0  0  0  0  0  0  0  0  0  0
    8.3351    5.5235   15.4478 C   0  0  0  0  0  0  0  0  0  0  0  0
    8.7700    7.8434   21.3915 C   0  0  0  0  0  0  0  0  0  0  0  0
   11.7856    6.8851   19.2401 C   0  0  0  0  0  0  0  0  0  0  0  0
   10.5281    7.4276   19.5649 C   0  0  0  0  0  0  0  0  0  0  0  0
   10.0256    7.2907   20.8484 C   0  0  0  0  0  0  0  0  0  0  0  0
    9.3113    5.3049   14.4911 C   0  0  0  0  0  0  0  0  0  0  0  0
    9.4607    7.5646   16.0139 C   0  0  0  0  0  0  0  0  0  0  0  0
   10.4192    7.3157   15.0955 C   0  0  0  0  0  0  0  0  0  0  0  0
   10.2489    6.4227   23.0218 N   0  0  0  0  0  0  0  0  0  0  0  0
    7.2472    8.0746   23.5050 C   0  0  0  0  0  0  0  0  0  0  0  0
    9.2051    6.9101   23.4604 C   0  0  0  0  0  0  0  0  0  0  0  0
   11.9646    6.0299   21.4251 C   0  0  0  0  0  0  0  0  0  0  0  0
  1  5  1  0
  1 13  1  0
  2 20  2  0
  2 28  1  0
  2 29  1  0
  3 19  4  0
  3 25  4  0
  4 23  4  0
  4 27  1  0
  4 30  4  0
  5 17  1  0
  6  8  1  0
  6 29  1  0
  7 24  4  0
  7 26  4  0
  8 28  1  0
  9 13  2  0
 10 18  1  0
 10 21  4  0
 10 30  4  0
 11 17  2  0
 12 18  1  0
 13 15  1  0
 14 24  1  0
 15 25  1  0
 16 28  2  0
 17 20  1  0
 19 24  4  0
 20 23  1  0
 21 22  4  0
 22 23  4  0
 25 26  4  0
 27 29  2  0
M  END
$$$$

 Created by Python create_sdf_string function

 30 33  0  0  0  0  0  0  0  0999 V2000
    8.3036    9.8571   18.4133 C   0  0  0  0  0  0  0  0  0  0  0  0
    8.3694    7.6612   22.6703 C   0  0  0  0  0  0  0  0  0  0  0  0
    8.4143    6.6863   16.2273 C   0  0  0  0  0  0  0  0  0  0  0  0
   10.7581    6.5674   21.7636 C   0  0  0  0  0  0  0  0  0  0  0  0
    8.4452    8.7960   19.2958 O   0  0  0  0  0  0  0  0  0  0  0  0
    8.7122    6.7842   24.8569 C   0  0  0  0  0  0  0  0  0  0  0  0
   10.3400    6.1726   14.3081 C   0  0  0  0  0  0  0  0  0  0  0  0
    7.4297    7.5873   24.8962 C   0  0  0  0  0  0  0  0  0  0  0  0
    8.1566   10.0536   16.0516 O   0  0  0  0  0  0  0  0  0  0  0  0
   12.4989    6.2074   20.1776 C   0  0  0  0  0  0  0  0  0  0  0  0
    6.9192    9.1053   20.9073 O   0  0  0  0  0  0  0  0  0  0  0  0
   14.3979    6.0729   18.7784 C   0  0  0  0  0  0  0  0  0  0  0  0
    8.6811    9.5354   16.9998 C   0  0  0  0  0  0  0  0  0  0  0  0
    9.2512    4.2713   13.7653 O   0  0  0  0  0  0  0  0  0  0  0  0
    9.6495    8.6317   16.8332 N   0  0  0  0  0  0  0  0  0  0  0  0
    6.2934    8.6988   23.1988 O   0  0  0  0  0  0  0  0  0  0  0  0
    7.9806    8.6543   20.5437 C   0  0  0  0  0  0  0  0  0  0  0  0
   13.7270    5.7144   19.8610 O   0  0  0  0  0  0  0  0  0  0  0  0
    8.3351    5.5235   15.4478 C   0  0  0  0  0  0  0  0  0  0  0  0
    8.7700    7.8434   21.3915 C   0  0  0  0  0  0  0  0  0  0  0  0
   11.7856    6.8851   19.2401 C   0  0  0  0  0  0  0  0  0  0  0  0
   10.5281    7.4276   19.5649 C   0  0  0  0  0  0  0  0  0  0  0  0
   10.0256    7.2907   20.8484 C   0  0  0  0  0  0  0  0  0  0  0  0
    9.3113    5.3049   14.4911 C   0  0  0  0  0  0  0  0  0  0  0  0
    9.4607    7.5646   16.0139 C   0  0  0  0  0  0  0  0  0  0  0  0
   10.4192    7.3157   15.0955 C   0  0  0  0  0  0  0  0  0  0  0  0
   10.2489    6.4227   23.0218 N   0  0  0  0  0  0  0  0  0  0  0  0
    7.2472    8.0746   23.5050 C   0  0  0  0  0  0  0  0  0  0  0  0
    9.2051    6.9101   23.4604 C   0  0  0  0  0  0  0  0  0  0  0  0
   11.9646    6.0299   21.4251 C   0  0  0  0  0  0  0  0  0  0  0  0
  1  5  1  0
  1 13  1  0
  2 20  2  0
  2 28  1  0
  2 29  1  0
  3 19  4  0
  3 25  4  0
  4 23  4  0
  4 27  1  0
  4 30  4  0
  5 17  1  0
  6  8  1  0
  6 29  1  0
  7 24  4  0
  7 26  4  0
  8 28  1  0
  9 13  2  0
 10 18  1  0
 10 21  4  0
 10 30  4  0
 11 17  2  0
 12 18  1  0
 13 15  1  0
 14 24  1  0
 15 25  1  0
 16 28  2  0
 17 20  1  0
 19 24  4  0
 20 23  1  0
 21 22  4  0
 22 23  4  0
 25 26  4  0
 27 29  2  0
M  END
$$$$

 Created by Python create_sdf_string function

 30 33  0  0  0  0  0  0  0  0999 V2000
    8.3036    9.8571   18.4133 C   0  0  0  0  0  0  0  0  0  0  0  0
    8.3694    7.6612   22.6703 C   0  0  0  0  0  0  0  0  0  0  0  0
    8.4143    6.6863   16.2273 C   0  0  0  0  0  0  0  0  0  0  0  0
   10.7581    6.5674   21.7636 C   0  0  0  0  0  0  0  0  0  0  0  0
    8.4452    8.7960   19.2958 O   0  0  0  0  0  0  0  0  0  0  0  0
    8.7122    6.7842   24.8569 C   0  0  0  0  0  0  0  0  0  0  0  0
   10.3400    6.1726   14.3081 C   0  0  0  0  0  0  0  0  0  0  0  0
    7.4297    7.5873   24.8962 C   0  0  0  0  0  0  0  0  0  0  0  0
    8.1566   10.0536   16.0516 O   0  0  0  0  0  0  0  0  0  0  0  0
   12.4989    6.2074   20.1776 C   0  0  0  0  0  0  0  0  0  0  0  0
    6.9192    9.1053   20.9073 O   0  0  0  0  0  0  0  0  0  0  0  0
   14.3979    6.0729   18.7784 C   0  0  0  0  0  0  0  0  0  0  0  0
    8.6811    9.5354   16.9998 C   0  0  0  0  0  0  0  0  0  0  0  0
    9.2512    4.2713   13.7653 O   0  0  0  0  0  0  0  0  0  0  0  0
    9.6495    8.6317   16.8332 N   0  0  0  0  0  0  0  0  0  0  0  0
    6.2934    8.6988   23.1988 O   0  0  0  0  0  0  0  0  0  0  0  0
    7.9806    8.6543   20.5437 C   0  0  0  0  0  0  0  0  0  0  0  0
   13.7270    5.7144   19.8610 O   0  0  0  0  0  0  0  0  0  0  0  0
    8.3351    5.5235   15.4478 C   0  0  0  0  0  0  0  0  0  0  0  0
    8.7700    7.8434   21.3915 C   0  0  0  0  0  0  0  0  0  0  0  0
   11.7856    6.8851   19.2401 C   0  0  0  0  0  0  0  0  0  0  0  0
   10.5281    7.4276   19.5649 C   0  0  0  0  0  0  0  0  0  0  0  0
   10.0256    7.2907   20.8484 C   0  0  0  0  0  0  0  0  0  0  0  0
    9.3113    5.3049   14.4911 C   0  0  0  0  0  0  0  0  0  0  0  0
    9.4607    7.5646   16.0139 C   0  0  0  0  0  0  0  0  0  0  0  0
   10.4192    7.3157   15.0955 C   0  0  0  0  0  0  0  0  0  0  0  0
   10.2489    6.4227   23.0218 N   0  0  0  0  0  0  0  0  0  0  0  0
    7.2472    8.0746   23.5050 C   0  0  0  0  0  0  0  0  0  0  0  0
    9.2051    6.9101   23.4604 C   0  0  0  0  0  0  0  0  0  0  0  0
   11.9646    6.0299   21.4251 C   0  0  0  0  0  0  0  0  0  0  0  0
  1  5  1  0
  1 13  1  0
  2 20  2  0
  2 28  1  0
  2 29  1  0
  3 19  4  0
  3 25  4  0
  4 23  4  0
  4 27  1  0
  4 30  4  0
  5 17  1  0
  6  8  1  0
  6 29  1  0
  7 24  4  0
  7 26  4  0
  8 28  1  0
  9 13  2  0
 10 18  1  0
 10 21  4  0
 10 30  4  0
 11 17  2  0
 12 18  1  0
 13 15  1  0
 14 24  1  0
 15 25  1  0
 16 28  2  0
 17 20  1  0
 19 24  4  0
 20 23  1  0
 21 22  4  0
 22 23  4  0
 25 26  4  0
 27 29  2  0
M  END
$$$$

 Created by Python create_sdf_string function

 30 33  0  0  0  0  0  0  0  0999 V2000
    8.3036    9.8571   18.4133 C   0  0  0  0  0  0  0  0  0  0  0  0
    8.3694    7.6612   22.6703 C   0  0  0  0  0  0  0  0  0  0  0  0
    8.4143    6.6863   16.2273 C   0  0  0  0  0  0  0  0  0  0  0  0
   10.7581    6.5674   21.7636 C   0  0  0  0  0  0  0  0  0  0  0  0
    8.4452    8.7960   19.2958 O   0  0  0  0  0  0  0  0  0  0  0  0
    8.7122    6.7842   24.8569 C   0  0  0  0  0  0  0  0  0  0  0  0
   10.3400    6.1726   14.3081 C   0  0  0  0  0  0  0  0  0  0  0  0
    7.4297    7.5873   24.8962 C   0  0  0  0  0  0  0  0  0  0  0  0
    8.1566   10.0536   16.0516 O   0  0  0  0  0  0  0  0  0  0  0  0
   12.4989    6.2074   20.1776 C   0  0  0  0  0  0  0  0  0  0  0  0
    6.9192    9.1053   20.9073 O   0  0  0  0  0  0  0  0  0  0  0  0
   14.3979    6.0729   18.7784 C   0  0  0  0  0  0  0  0  0  0  0  0
    8.6811    9.5354   16.9998 C   0  0  0  0  0  0  0  0  0  0  0  0
    9.2512    4.2713   13.7653 O   0  0  0  0  0  0  0  0  0  0  0  0
    9.6495    8.6317   16.8332 N   0  0  0  0  0  0  0  0  0  0  0  0
    6.2934    8.6988   23.1988 O   0  0  0  0  0  0  0  0  0  0  0  0
    7.9806    8.6543   20.5437 C   0  0  0  0  0  0  0  0  0  0  0  0
   13.7270    5.7144   19.8610 O   0  0  0  0  0  0  0  0  0  0  0  0
    8.3351    5.5235   15.4478 C   0  0  0  0  0  0  0  0  0  0  0  0
    8.7700    7.8434   21.3915 C   0  0  0  0  0  0  0  0  0  0  0  0
   11.7856    6.8851   19.2401 C   0  0  0  0  0  0  0  0  0  0  0  0
   10.5281    7.4276   19.5649 C   0  0  0  0  0  0  0  0  0  0  0  0
   10.0256    7.2907   20.8484 C   0  0  0  0  0  0  0  0  0  0  0  0
    9.3113    5.3049   14.4911 C   0  0  0  0  0  0  0  0  0  0  0  0
    9.4607    7.5646   16.0139 C   0  0  0  0  0  0  0  0  0  0  0  0
   10.4192    7.3157   15.0955 C   0  0  0  0  0  0  0  0  0  0  0  0
   10.2489    6.4227   23.0218 N   0  0  0  0  0  0  0  0  0  0  0  0
    7.2472    8.0746   23.5050 C   0  0  0  0  0  0  0  0  0  0  0  0
    9.2051    6.9101   23.4604 C   0  0  0  0  0  0  0  0  0  0  0  0
   11.9646    6.0299   21.4251 C   0  0  0  0  0  0  0  0  0  0  0  0
  1  5  1  0
  1 13  1  0
  2 20  2  0
  2 28  1  0
  2 29  1  0
  3 19  4  0
  3 25  4  0
  4 23  4  0
  4 27  1  0
  4 30  4  0
  5 17  1  0
  6  8  1  0
  6 29  1  0
  7 24  4  0
  7 26  4  0
  8 28  1  0
  9 13  2  0
 10 18  1  0
 10 21  4  0
 10 30  4  0
 11 17  2  0
 12 18  1  0
 13 15  1  0
 14 24  1  0
 15 25  1  0
 16 28  2  0
 17 20  1  0
 19 24  4  0
 20 23  1  0
 21 22  4  0
 22 23  4  0
 25 26  4  0
 27 29  2  0
M  END
$$$$

 Created by Python create_sdf_string function

 30 33  0  0  0  0  0  0  0  0999 V2000
    8.3036    9.8571   18.4133 C   0  0  0  0  0  0  0  0  0  0  0  0
    8.3694    7.6612   22.6703 C   0  0  0  0  0  0  0  0  0  0  0  0
    8.4143    6.6863   16.2273 C   0  0  0  0  0  0  0  0  0  0  0  0
   10.7581    6.5674   21.7636 C   0  0  0  0  0  0  0  0  0  0  0  0
    8.4452    8.7960   19.2958 O   0  0  0  0  0  0  0  0  0  0  0  0
    8.7122    6.7842   24.8569 C   0  0  0  0  0  0  0  0  0  0  0  0
   10.3400    6.1726   14.3081 C   0  0  0  0  0  0  0  0  0  0  0  0
    7.4297    7.5873   24.8962 C   0  0  0  0  0  0  0  0  0  0  0  0
    8.1566   10.0536   16.0516 O   0  0  0  0  0  0  0  0  0  0  0  0
   12.4989    6.2074   20.1776 C   0  0  0  0  0  0  0  0  0  0  0  0
    6.9192    9.1053   20.9073 O   0  0  0  0  0  0  0  0  0  0  0  0
   14.3979    6.0729   18.7784 C   0  0  0  0  0  0  0  0  0  0  0  0
    8.6811    9.5354   16.9998 C   0  0  0  0  0  0  0  0  0  0  0  0
    9.2512    4.2713   13.7653 O   0  0  0  0  0  0  0  0  0  0  0  0
    9.6495    8.6317   16.8332 N   0  0  0  0  0  0  0  0  0  0  0  0
    6.2934    8.6988   23.1988 O   0  0  0  0  0  0  0  0  0  0  0  0
    7.9806    8.6543   20.5437 C   0  0  0  0  0  0  0  0  0  0  0  0
   13.7270    5.7144   19.8610 O   0  0  0  0  0  0  0  0  0  0  0  0
    8.3351    5.5235   15.4478 C   0  0  0  0  0  0  0  0  0  0  0  0
    8.7700    7.8434   21.3915 C   0  0  0  0  0  0  0  0  0  0  0  0
   11.7856    6.8851   19.2401 C   0  0  0  0  0  0  0  0  0  0  0  0
   10.5281    7.4276   19.5649 C   0  0  0  0  0  0  0  0  0  0  0  0
   10.0256    7.2907   20.8484 C   0  0  0  0  0  0  0  0  0  0  0  0
    9.3113    5.3049   14.4911 C   0  0  0  0  0  0  0  0  0  0  0  0
    9.4607    7.5646   16.0139 C   0  0  0  0  0  0  0  0  0  0  0  0
   10.4192    7.3157   15.0955 C   0  0  0  0  0  0  0  0  0  0  0  0
   10.2489    6.4227   23.0218 N   0  0  0  0  0  0  0  0  0  0  0  0
    7.2472    8.0746   23.5050 C   0  0  0  0  0  0  0  0  0  0  0  0
    9.2051    6.9101   23.4604 C   0  0  0  0  0  0  0  0  0  0  0  0
   11.9646    6.0299   21.4251 C   0  0  0  0  0  0  0  0  0  0  0  0
  1  5  1  0
  1 13  1  0
  2 20  2  0
  2 28  1  0
  2 29  1  0
  3 19  4  0
  3 25  4  0
  4 23  4  0
  4 27  1  0
  4 30  4  0
  5 17  1  0
  6  8  1  0
  6 29  1  0
  7 24  4  0
  7 26  4  0
  8 28  1  0
  9 13  2  0
 10 18  1  0
 10 21  4  0
 10 30  4  0
 11 17  2  0
 12 18  1  0
 13 15  1  0
 14 24  1  0
 15 25  1  0
 16 28  2  0
 17 20  1  0
 19 24  4  0
 20 23  1  0
 21 22  4  0
 22 23  4  0
 25 26  4  0
 27 29  2  0
M  END
$$$$

 Created by Python create_sdf_string function

 30 33  0  0  0  0  0  0  0  0999 V2000
    8.3036    9.8571   18.4133 C   0  0  0  0  0  0  0  0  0  0  0  0
    8.3694    7.6612   22.6703 C   0  0  0  0  0  0  0  0  0  0  0  0
    8.4143    6.6863   16.2273 C   0  0  0  0  0  0  0  0  0  0  0  0
   10.7581    6.5674   21.7636 C   0  0  0  0  0  0  0  0  0  0  0  0
    8.4452    8.7960   19.2958 O   0  0  0  0  0  0  0  0  0  0  0  0
    8.7122    6.7842   24.8569 C   0  0  0  0  0  0  0  0  0  0  0  0
   10.3400    6.1726   14.3081 C   0  0  0  0  0  0  0  0  0  0  0  0
    7.4297    7.5873   24.8962 C   0  0  0  0  0  0  0  0  0  0  0  0
    8.1566   10.0536   16.0516 O   0  0  0  0  0  0  0  0  0  0  0  0
   12.4989    6.2074   20.1776 C   0  0  0  0  0  0  0  0  0  0  0  0
    6.9192    9.1053   20.9073 O   0  0  0  0  0  0  0  0  0  0  0  0
   14.3979    6.0729   18.7784 C   0  0  0  0  0  0  0  0  0  0  0  0
    8.6811    9.5354   16.9998 C   0  0  0  0  0  0  0  0  0  0  0  0
    9.2512    4.2713   13.7653 O   0  0  0  0  0  0  0  0  0  0  0  0
    9.6495    8.6317   16.8332 N   0  0  0  0  0  0  0  0  0  0  0  0
    6.2934    8.6988   23.1988 O   0  0  0  0  0  0  0  0  0  0  0  0
    7.9806    8.6543   20.5437 C   0  0  0  0  0  0  0  0  0  0  0  0
   13.7270    5.7144   19.8610 O   0  0  0  0  0  0  0  0  0  0  0  0
    8.3351    5.5235   15.4478 C   0  0  0  0  0  0  0  0  0  0  0  0
    8.7700    7.8434   21.3915 C   0  0  0  0  0  0  0  0  0  0  0  0
   11.7856    6.8851   19.2401 C   0  0  0  0  0  0  0  0  0  0  0  0
   10.5281    7.4276   19.5649 C   0  0  0  0  0  0  0  0  0  0  0  0
   10.0256    7.2907   20.8484 C   0  0  0  0  0  0  0  0  0  0  0  0
    9.3113    5.3049   14.4911 C   0  0  0  0  0  0  0  0  0  0  0  0
    9.4607    7.5646   16.0139 C   0  0  0  0  0  0  0  0  0  0  0  0
   10.4192    7.3157   15.0955 C   0  0  0  0  0  0  0  0  0  0  0  0
   10.2489    6.4227   23.0218 N   0  0  0  0  0  0  0  0  0  0  0  0
    7.2472    8.0746   23.5050 C   0  0  0  0  0  0  0  0  0  0  0  0
    9.2051    6.9101   23.4604 C   0  0  0  0  0  0  0  0  0  0  0  0
   11.9646    6.0299   21.4251 C   0  0  0  0  0  0  0  0  0  0  0  0
  1  5  1  0
  1 13  1  0
  2 20  2  0
  2 28  1  0
  2 29  1  0
  3 19  4  0
  3 25  4  0
  4 23  4  0
  4 27  1  0
  4 30  4  0
  5 17  1  0
  6  8  1  0
  6 29  1  0
  7 24  4  0
  7 26  4  0
  8 28  1  0
  9 13  2  0
 10 18  1  0
 10 21  4  0
 10 30  4  0
 11 17  2  0
 12 18  1  0
 13 15  1  0
 14 24  1  0
 15 25  1  0
 16 28  2  0
 17 20  1  0
 19 24  4  0
 20 23  1  0
 21 22  4  0
 22 23  4  0
 25 26  4  0
 27 29  2  0
M  END
$$$$

 Created by Python create_sdf_string function

 30 33  0  0  0  0  0  0  0  0999 V2000
    8.3036    9.8571   18.4133 C   0  0  0  0  0  0  0  0  0  0  0  0
    8.3694    7.6612   22.6703 C   0  0  0  0  0  0  0  0  0  0  0  0
    8.4143    6.6863   16.2273 C   0  0  0  0  0  0  0  0  0  0  0  0
   10.7581    6.5674   21.7636 C   0  0  0  0  0  0  0  0  0  0  0  0
    8.4452    8.7960   19.2958 O   0  0  0  0  0  0  0  0  0  0  0  0
    8.7122    6.7842   24.8569 C   0  0  0  0  0  0  0  0  0  0  0  0
   10.3400    6.1726   14.3081 C   0  0  0  0  0  0  0  0  0  0  0  0
    7.4297    7.5873   24.8962 C   0  0  0  0  0  0  0  0  0  0  0  0
    8.1566   10.0536   16.0516 O   0  0  0  0  0  0  0  0  0  0  0  0
   12.4989    6.2074   20.1776 C   0  0  0  0  0  0  0  0  0  0  0  0
    6.9192    9.1053   20.9073 O   0  0  0  0  0  0  0  0  0  0  0  0
   14.3979    6.0729   18.7784 C   0  0  0  0  0  0  0  0  0  0  0  0
    8.6811    9.5354   16.9998 C   0  0  0  0  0  0  0  0  0  0  0  0
    9.2512    4.2713   13.7653 O   0  0  0  0  0  0  0  0  0  0  0  0
    9.6495    8.6317   16.8332 N   0  0  0  0  0  0  0  0  0  0  0  0
    6.2934    8.6988   23.1988 O   0  0  0  0  0  0  0  0  0  0  0  0
    7.9806    8.6543   20.5437 C   0  0  0  0  0  0  0  0  0  0  0  0
   13.7270    5.7144   19.8610 O   0  0  0  0  0  0  0  0  0  0  0  0
    8.3351    5.5235   15.4478 C   0  0  0  0  0  0  0  0  0  0  0  0
    8.7700    7.8434   21.3915 C   0  0  0  0  0  0  0  0  0  0  0  0
   11.7856    6.8851   19.2401 C   0  0  0  0  0  0  0  0  0  0  0  0
   10.5281    7.4276   19.5649 C   0  0  0  0  0  0  0  0  0  0  0  0
   10.0256    7.2907   20.8484 C   0  0  0  0  0  0  0  0  0  0  0  0
    9.3113    5.3049   14.4911 C   0  0  0  0  0  0  0  0  0  0  0  0
    9.4607    7.5646   16.0139 C   0  0  0  0  0  0  0  0  0  0  0  0
   10.4192    7.3157   15.0955 C   0  0  0  0  0  0  0  0  0  0  0  0
   10.2489    6.4227   23.0218 N   0  0  0  0  0  0  0  0  0  0  0  0
    7.2472    8.0746   23.5050 C   0  0  0  0  0  0  0  0  0  0  0  0
    9.2051    6.9101   23.4604 C   0  0  0  0  0  0  0  0  0  0  0  0
   11.9646    6.0299   21.4251 C   0  0  0  0  0  0  0  0  0  0  0  0
  1  5  1  0
  1 13  1  0
  2 20  2  0
  2 28  1  0
  2 29  1  0
  3 19  4  0
  3 25  4  0
  4 23  4  0
  4 27  1  0
  4 30  4  0
  5 17  1  0
  6  8  1  0
  6 29  1  0
  7 24  4  0
  7 26  4  0
  8 28  1  0
  9 13  2  0
 10 18  1  0
 10 21  4  0
 10 30  4  0
 11 17  2  0
 12 18  1  0
 13 15  1  0
 14 24  1  0
 15 25  1  0
 16 28  2  0
 17 20  1  0
 19 24  4  0
 20 23  1  0
 21 22  4  0
 22 23  4  0
 25 26  4  0
 27 29  2  0
M  END
$$$$

 Created by Python create_sdf_string function

 30 33  0  0  0  0  0  0  0  0999 V2000
    8.3036    9.8571   18.4133 C   0  0  0  0  0  0  0  0  0  0  0  0
    8.3694    7.6612   22.6703 C   0  0  0  0  0  0  0  0  0  0  0  0
    8.4143    6.6863   16.2273 C   0  0  0  0  0  0  0  0  0  0  0  0
   10.7581    6.5674   21.7636 C   0  0  0  0  0  0  0  0  0  0  0  0
    8.4452    8.7960   19.2958 O   0  0  0  0  0  0  0  0  0  0  0  0
    8.7122    6.7842   24.8569 C   0  0  0  0  0  0  0  0  0  0  0  0
   10.3400    6.1726   14.3081 C   0  0  0  0  0  0  0  0  0  0  0  0
    7.4297    7.5873   24.8962 C   0  0  0  0  0  0  0  0  0  0  0  0
    8.1566   10.0536   16.0516 O   0  0  0  0  0  0  0  0  0  0  0  0
   12.4989    6.2074   20.1776 C   0  0  0  0  0  0  0  0  0  0  0  0
    6.9192    9.1053   20.9073 O   0  0  0  0  0  0  0  0  0  0  0  0
   14.3979    6.0729   18.7784 C   0  0  0  0  0  0  0  0  0  0  0  0
    8.6811    9.5354   16.9998 C   0  0  0  0  0  0  0  0  0  0  0  0
    9.2512    4.2713   13.7653 O   0  0  0  0  0  0  0  0  0  0  0  0
    9.6495    8.6317   16.8332 N   0  0  0  0  0  0  0  0  0  0  0  0
    6.2934    8.6988   23.1988 O   0  0  0  0  0  0  0  0  0  0  0  0
    7.9806    8.6543   20.5437 C   0  0  0  0  0  0  0  0  0  0  0  0
   13.7270    5.7144   19.8610 O   0  0  0  0  0  0  0  0  0  0  0  0
    8.3351    5.5235   15.4478 C   0  0  0  0  0  0  0  0  0  0  0  0
    8.7700    7.8434   21.3915 C   0  0  0  0  0  0  0  0  0  0  0  0
   11.7856    6.8851   19.2401 C   0  0  0  0  0  0  0  0  0  0  0  0
   10.5281    7.4276   19.5649 C   0  0  0  0  0  0  0  0  0  0  0  0
   10.0256    7.2907   20.8484 C   0  0  0  0  0  0  0  0  0  0  0  0
    9.3113    5.3049   14.4911 C   0  0  0  0  0  0  0  0  0  0  0  0
    9.4607    7.5646   16.0139 C   0  0  0  0  0  0  0  0  0  0  0  0
   10.4192    7.3157   15.0955 C   0  0  0  0  0  0  0  0  0  0  0  0
   10.2489    6.4227   23.0218 N   0  0  0  0  0  0  0  0  0  0  0  0
    7.2472    8.0746   23.5050 C   0  0  0  0  0  0  0  0  0  0  0  0
    9.2051    6.9101   23.4604 C   0  0  0  0  0  0  0  0  0  0  0  0
   11.9646    6.0299   21.4251 C   0  0  0  0  0  0  0  0  0  0  0  0
  1  5  1  0
  1 13  1  0
  2 20  2  0
  2 28  1  0
  2 29  1  0
  3 19  4  0
  3 25  4  0
  4 23  4  0
  4 27  1  0
  4 30  4  0
  5 17  1  0
  6  8  1  0
  6 29  1  0
  7 24  4  0
  7 26  4  0
  8 28  1  0
  9 13  2  0
 10 18  1  0
 10 21  4  0
 10 30  4  0
 11 17  2  0
 12 18  1  0
 13 15  1  0
 14 24  1  0
 15 25  1  0
 16 28  2  0
 17 20  1  0
 19 24  4  0
 20 23  1  0
 21 22  4  0
 22 23  4  0
 25 26  4  0
 27 29  2  0
M  END
$$$$

 Created by Python create_sdf_string function

 30 33  0  0  0  0  0  0  0  0999 V2000
    8.3036    9.8571   18.4133 C   0  0  0  0  0  0  0  0  0  0  0  0
    8.3694    7.6612   22.6703 C   0  0  0  0  0  0  0  0  0  0  0  0
    8.4143    6.6863   16.2273 C   0  0  0  0  0  0  0  0  0  0  0  0
   10.7581    6.5674   21.7636 C   0  0  0  0  0  0  0  0  0  0  0  0
    8.4452    8.7960   19.2958 O   0  0  0  0  0  0  0  0  0  0  0  0
    8.7122    6.7842   24.8569 C   0  0  0  0  0  0  0  0  0  0  0  0
   10.3400    6.1726   14.3081 C   0  0  0  0  0  0  0  0  0  0  0  0
    7.4297    7.5873   24.8962 C   0  0  0  0  0  0  0  0  0  0  0  0
    8.1566   10.0536   16.0516 O   0  0  0  0  0  0  0  0  0  0  0  0
   12.4989    6.2074   20.1776 C   0  0  0  0  0  0  0  0  0  0  0  0
    6.9192    9.1053   20.9073 O   0  0  0  0  0  0  0  0  0  0  0  0
   14.3979    6.0729   18.7784 C   0  0  0  0  0  0  0  0  0  0  0  0
    8.6811    9.5354   16.9998 C   0  0  0  0  0  0  0  0  0  0  0  0
    9.2512    4.2713   13.7653 O   0  0  0  0  0  0  0  0  0  0  0  0
    9.6495    8.6317   16.8332 N   0  0  0  0  0  0  0  0  0  0  0  0
    6.2934    8.6988   23.1988 O   0  0  0  0  0  0  0  0  0  0  0  0
    7.9806    8.6543   20.5437 C   0  0  0  0  0  0  0  0  0  0  0  0
   13.7270    5.7144   19.8610 O   0  0  0  0  0  0  0  0  0  0  0  0
    8.3351    5.5235   15.4478 C   0  0  0  0  0  0  0  0  0  0  0  0
    8.7700    7.8434   21.3915 C   0  0  0  0  0  0  0  0  0  0  0  0
   11.7856    6.8851   19.2401 C   0  0  0  0  0  0  0  0  0  0  0  0
   10.5281    7.4276   19.5649 C   0  0  0  0  0  0  0  0  0  0  0  0
   10.0256    7.2907   20.8484 C   0  0  0  0  0  0  0  0  0  0  0  0
    9.3113    5.3049   14.4911 C   0  0  0  0  0  0  0  0  0  0  0  0
    9.4607    7.5646   16.0139 C   0  0  0  0  0  0  0  0  0  0  0  0
   10.4192    7.3157   15.0955 C   0  0  0  0  0  0  0  0  0  0  0  0
   10.2489    6.4227   23.0218 N   0  0  0  0  0  0  0  0  0  0  0  0
    7.2472    8.0746   23.5050 C   0  0  0  0  0  0  0  0  0  0  0  0
    9.2051    6.9101   23.4604 C   0  0  0  0  0  0  0  0  0  0  0  0
   11.9646    6.0299   21.4251 C   0  0  0  0  0  0  0  0  0  0  0  0
  1  5  1  0
  1 13  1  0
  2 20  2  0
  2 28  1  0
  2 29  1  0
  3 19  4  0
  3 25  4  0
  4 23  4  0
  4 27  1  0
  4 30  4  0
  5 17  1  0
  6  8  1  0
  6 29  1  0
  7 24  4  0
  7 26  4  0
  8 28  1  0
  9 13  2  0
 10 18  1  0
 10 21  4  0
 10 30  4  0
 11 17  2  0
 12 18  1  0
 13 15  1  0
 14 24  1  0
 15 25  1  0
 16 28  2  0
 17 20  1  0
 19 24  4  0
 20 23  1  0
 21 22  4  0
 22 23  4  0
 25 26  4  0
 27 29  2  0
M  END
$$$$

 Created by Python create_sdf_string function

 30 33  0  0  0  0  0  0  0  0999 V2000
    8.3036    9.8571   18.4133 C   0  0  0  0  0  0  0  0  0  0  0  0
    8.3694    7.6612   22.6703 C   0  0  0  0  0  0  0  0  0  0  0  0
    8.4143    6.6863   16.2273 C   0  0  0  0  0  0  0  0  0  0  0  0
   10.7581    6.5674   21.7636 C   0  0  0  0  0  0  0  0  0  0  0  0
    8.4452    8.7960   19.2958 O   0  0  0  0  0  0  0  0  0  0  0  0
    8.7122    6.7842   24.8569 C   0  0  0  0  0  0  0  0  0  0  0  0
   10.3400    6.1726   14.3081 C   0  0  0  0  0  0  0  0  0  0  0  0
    7.4297    7.5873   24.8962 C   0  0  0  0  0  0  0  0  0  0  0  0
    8.1566   10.0536   16.0516 O   0  0  0  0  0  0  0  0  0  0  0  0
   12.4989    6.2074   20.1776 C   0  0  0  0  0  0  0  0  0  0  0  0
    6.9192    9.1053   20.9073 O   0  0  0  0  0  0  0  0  0  0  0  0
   14.3979    6.0729   18.7784 C   0  0  0  0  0  0  0  0  0  0  0  0
    8.6811    9.5354   16.9998 C   0  0  0  0  0  0  0  0  0  0  0  0
    9.2512    4.2713   13.7653 O   0  0  0  0  0  0  0  0  0  0  0  0
    9.6495    8.6317   16.8332 N   0  0  0  0  0  0  0  0  0  0  0  0
    6.2934    8.6988   23.1988 O   0  0  0  0  0  0  0  0  0  0  0  0
    7.9806    8.6543   20.5437 C   0  0  0  0  0  0  0  0  0  0  0  0
   13.7270    5.7144   19.8610 O   0  0  0  0  0  0  0  0  0  0  0  0
    8.3351    5.5235   15.4478 C   0  0  0  0  0  0  0  0  0  0  0  0
    8.7700    7.8434   21.3915 C   0  0  0  0  0  0  0  0  0  0  0  0
   11.7856    6.8851   19.2401 C   0  0  0  0  0  0  0  0  0  0  0  0
   10.5281    7.4276   19.5649 C   0  0  0  0  0  0  0  0  0  0  0  0
   10.0256    7.2907   20.8484 C   0  0  0  0  0  0  0  0  0  0  0  0
    9.3113    5.3049   14.4911 C   0  0  0  0  0  0  0  0  0  0  0  0
    9.4607    7.5646   16.0139 C   0  0  0  0  0  0  0  0  0  0  0  0
   10.4192    7.3157   15.0955 C   0  0  0  0  0  0  0  0  0  0  0  0
   10.2489    6.4227   23.0218 N   0  0  0  0  0  0  0  0  0  0  0  0
    7.2472    8.0746   23.5050 C   0  0  0  0  0  0  0  0  0  0  0  0
    9.2051    6.9101   23.4604 C   0  0  0  0  0  0  0  0  0  0  0  0
   11.9646    6.0299   21.4251 C   0  0  0  0  0  0  0  0  0  0  0  0
  1  5  1  0
  1 13  1  0
  2 20  2  0
  2 28  1  0
  2 29  1  0
  3 19  4  0
  3 25  4  0
  4 23  4  0
  4 27  1  0
  4 30  4  0
  5 17  1  0
  6  8  1  0
  6 29  1  0
  7 24  4  0
  7 26  4  0
  8 28  1  0
  9 13  2  0
 10 18  1  0
 10 21  4  0
 10 30  4  0
 11 17  2  0
 12 18  1  0
 13 15  1  0
 14 24  1  0
 15 25  1  0
 16 28  2  0
 17 20  1  0
 19 24  4  0
 20 23  1  0
 21 22  4  0
 22 23  4  0
 25 26  4  0
 27 29  2  0
M  END
$$$$

 Created by Python create_sdf_string function

 30 33  0  0  0  0  0  0  0  0999 V2000
    8.3036    9.8571   18.4133 C   0  0  0  0  0  0  0  0  0  0  0  0
    8.3694    7.6612   22.6703 C   0  0  0  0  0  0  0  0  0  0  0  0
    8.4143    6.6863   16.2273 C   0  0  0  0  0  0  0  0  0  0  0  0
   10.7581    6.5674   21.7636 C   0  0  0  0  0  0  0  0  0  0  0  0
    8.4452    8.7960   19.2958 O   0  0  0  0  0  0  0  0  0  0  0  0
    8.7122    6.7842   24.8569 C   0  0  0  0  0  0  0  0  0  0  0  0
   10.3400    6.1726   14.3081 C   0  0  0  0  0  0  0  0  0  0  0  0
    7.4297    7.5873   24.8962 C   0  0  0  0  0  0  0  0  0  0  0  0
    8.1566   10.0536   16.0516 O   0  0  0  0  0  0  0  0  0  0  0  0
   12.4989    6.2074   20.1776 C   0  0  0  0  0  0  0  0  0  0  0  0
    6.9192    9.1053   20.9073 O   0  0  0  0  0  0  0  0  0  0  0  0
   14.3979    6.0729   18.7784 C   0  0  0  0  0  0  0  0  0  0  0  0
    8.6811    9.5354   16.9998 C   0  0  0  0  0  0  0  0  0  0  0  0
    9.2512    4.2713   13.7653 O   0  0  0  0  0  0  0  0  0  0  0  0
    9.6495    8.6317   16.8332 N   0  0  0  0  0  0  0  0  0  0  0  0
    6.2934    8.6988   23.1988 O   0  0  0  0  0  0  0  0  0  0  0  0
    7.9806    8.6543   20.5437 C   0  0  0  0  0  0  0  0  0  0  0  0
   13.7270    5.7144   19.8610 O   0  0  0  0  0  0  0  0  0  0  0  0
    8.3351    5.5235   15.4478 C   0  0  0  0  0  0  0  0  0  0  0  0
    8.7700    7.8434   21.3915 C   0  0  0  0  0  0  0  0  0  0  0  0
   11.7856    6.8851   19.2401 C   0  0  0  0  0  0  0  0  0  0  0  0
   10.5281    7.4276   19.5649 C   0  0  0  0  0  0  0  0  0  0  0  0
   10.0256    7.2907   20.8484 C   0  0  0  0  0  0  0  0  0  0  0  0
    9.3113    5.3049   14.4911 C   0  0  0  0  0  0  0  0  0  0  0  0
    9.4607    7.5646   16.0139 C   0  0  0  0  0  0  0  0  0  0  0  0
   10.4192    7.3157   15.0955 C   0  0  0  0  0  0  0  0  0  0  0  0
   10.2489    6.4227   23.0218 N   0  0  0  0  0  0  0  0  0  0  0  0
    7.2472    8.0746   23.5050 C   0  0  0  0  0  0  0  0  0  0  0  0
    9.2051    6.9101   23.4604 C   0  0  0  0  0  0  0  0  0  0  0  0
   11.9646    6.0299   21.4251 C   0  0  0  0  0  0  0  0  0  0  0  0
  1  5  1  0
  1 13  1  0
  2 20  2  0
  2 28  1  0
  2 29  1  0
  3 19  4  0
  3 25  4  0
  4 23  4  0
  4 27  1  0
  4 30  4  0
  5 17  1  0
  6  8  1  0
  6 29  1  0
  7 24  4  0
  7 26  4  0
  8 28  1  0
  9 13  2  0
 10 18  1  0
 10 21  4  0
 10 30  4  0
 11 17  2  0
 12 18  1  0
 13 15  1  0
 14 24  1  0
 15 25  1  0
 16 28  2  0
 17 20  1  0
 19 24  4  0
 20 23  1  0
 21 22  4  0
 22 23  4  0
 25 26  4  0
 27 29  2  0
M  END
$$$$

 Created by Python create_sdf_string function

 30 33  0  0  0  0  0  0  0  0999 V2000
    8.3036    9.8571   18.4133 C   0  0  0  0  0  0  0  0  0  0  0  0
    8.3694    7.6612   22.6703 C   0  0  0  0  0  0  0  0  0  0  0  0
    8.4143    6.6863   16.2273 C   0  0  0  0  0  0  0  0  0  0  0  0
   10.7581    6.5674   21.7636 C   0  0  0  0  0  0  0  0  0  0  0  0
    8.4452    8.7960   19.2958 O   0  0  0  0  0  0  0  0  0  0  0  0
    8.7122    6.7842   24.8569 C   0  0  0  0  0  0  0  0  0  0  0  0
   10.3400    6.1726   14.3081 C   0  0  0  0  0  0  0  0  0  0  0  0
    7.4297    7.5873   24.8962 C   0  0  0  0  0  0  0  0  0  0  0  0
    8.1566   10.0536   16.0516 O   0  0  0  0  0  0  0  0  0  0  0  0
   12.4989    6.2074   20.1776 C   0  0  0  0  0  0  0  0  0  0  0  0
    6.9192    9.1053   20.9073 O   0  0  0  0  0  0  0  0  0  0  0  0
   14.3979    6.0729   18.7784 C   0  0  0  0  0  0  0  0  0  0  0  0
    8.6811    9.5354   16.9998 C   0  0  0  0  0  0  0  0  0  0  0  0
    9.2512    4.2713   13.7653 O   0  0  0  0  0  0  0  0  0  0  0  0
    9.6495    8.6317   16.8332 N   0  0  0  0  0  0  0  0  0  0  0  0
    6.2934    8.6988   23.1988 O   0  0  0  0  0  0  0  0  0  0  0  0
    7.9806    8.6543   20.5437 C   0  0  0  0  0  0  0  0  0  0  0  0
   13.7270    5.7144   19.8610 O   0  0  0  0  0  0  0  0  0  0  0  0
    8.3351    5.5235   15.4478 C   0  0  0  0  0  0  0  0  0  0  0  0
    8.7700    7.8434   21.3915 C   0  0  0  0  0  0  0  0  0  0  0  0
   11.7856    6.8851   19.2401 C   0  0  0  0  0  0  0  0  0  0  0  0
   10.5281    7.4276   19.5649 C   0  0  0  0  0  0  0  0  0  0  0  0
   10.0256    7.2907   20.8484 C   0  0  0  0  0  0  0  0  0  0  0  0
    9.3113    5.3049   14.4911 C   0  0  0  0  0  0  0  0  0  0  0  0
    9.4607    7.5646   16.0139 C   0  0  0  0  0  0  0  0  0  0  0  0
   10.4192    7.3157   15.0955 C   0  0  0  0  0  0  0  0  0  0  0  0
   10.2489    6.4227   23.0218 N   0  0  0  0  0  0  0  0  0  0  0  0
    7.2472    8.0746   23.5050 C   0  0  0  0  0  0  0  0  0  0  0  0
    9.2051    6.9101   23.4604 C   0  0  0  0  0  0  0  0  0  0  0  0
   11.9646    6.0299   21.4251 C   0  0  0  0  0  0  0  0  0  0  0  0
  1  5  1  0
  1 13  1  0
  2 20  2  0
  2 28  1  0
  2 29  1  0
  3 19  4  0
  3 25  4  0
  4 23  4  0
  4 27  1  0
  4 30  4  0
  5 17  1  0
  6  8  1  0
  6 29  1  0
  7 24  4  0
  7 26  4  0
  8 28  1  0
  9 13  2  0
 10 18  1  0
 10 21  4  0
 10 30  4  0
 11 17  2  0
 12 18  1  0
 13 15  1  0
 14 24  1  0
 15 25  1  0
 16 28  2  0
 17 20  1  0
 19 24  4  0
 20 23  1  0
 21 22  4  0
 22 23  4  0
 25 26  4  0
 27 29  2  0
M  END
$$$$

 Created by Python create_sdf_string function

 30 33  0  0  0  0  0  0  0  0999 V2000
    8.3036    9.8571   18.4133 C   0  0  0  0  0  0  0  0  0  0  0  0
    8.3694    7.6612   22.6703 C   0  0  0  0  0  0  0  0  0  0  0  0
    8.4143    6.6863   16.2273 C   0  0  0  0  0  0  0  0  0  0  0  0
   10.7581    6.5674   21.7636 C   0  0  0  0  0  0  0  0  0  0  0  0
    8.4452    8.7960   19.2958 O   0  0  0  0  0  0  0  0  0  0  0  0
    8.7122    6.7842   24.8569 C   0  0  0  0  0  0  0  0  0  0  0  0
   10.3400    6.1726   14.3081 C   0  0  0  0  0  0  0  0  0  0  0  0
    7.4297    7.5873   24.8962 C   0  0  0  0  0  0  0  0  0  0  0  0
    8.1566   10.0536   16.0516 O   0  0  0  0  0  0  0  0  0  0  0  0
   12.4989    6.2074   20.1776 C   0  0  0  0  0  0  0  0  0  0  0  0
    6.9192    9.1053   20.9073 O   0  0  0  0  0  0  0  0  0  0  0  0
   14.3979    6.0729   18.7784 C   0  0  0  0  0  0  0  0  0  0  0  0
    8.6811    9.5354   16.9998 C   0  0  0  0  0  0  0  0  0  0  0  0
    9.2512    4.2713   13.7653 O   0  0  0  0  0  0  0  0  0  0  0  0
    9.6495    8.6317   16.8332 N   0  0  0  0  0  0  0  0  0  0  0  0
    6.2934    8.6988   23.1988 O   0  0  0  0  0  0  0  0  0  0  0  0
    7.9806    8.6543   20.5437 C   0  0  0  0  0  0  0  0  0  0  0  0
   13.7270    5.7144   19.8610 O   0  0  0  0  0  0  0  0  0  0  0  0
    8.3351    5.5235   15.4478 C   0  0  0  0  0  0  0  0  0  0  0  0
    8.7700    7.8434   21.3915 C   0  0  0  0  0  0  0  0  0  0  0  0
   11.7856    6.8851   19.2401 C   0  0  0  0  0  0  0  0  0  0  0  0
   10.5281    7.4276   19.5649 C   0  0  0  0  0  0  0  0  0  0  0  0
   10.0256    7.2907   20.8484 C   0  0  0  0  0  0  0  0  0  0  0  0
    9.3113    5.3049   14.4911 C   0  0  0  0  0  0  0  0  0  0  0  0
    9.4607    7.5646   16.0139 C   0  0  0  0  0  0  0  0  0  0  0  0
   10.4192    7.3157   15.0955 C   0  0  0  0  0  0  0  0  0  0  0  0
   10.2489    6.4227   23.0218 N   0  0  0  0  0  0  0  0  0  0  0  0
    7.2472    8.0746   23.5050 C   0  0  0  0  0  0  0  0  0  0  0  0
    9.2051    6.9101   23.4604 C   0  0  0  0  0  0  0  0  0  0  0  0
   11.9646    6.0299   21.4251 C   0  0  0  0  0  0  0  0  0  0  0  0
  1  5  1  0
  1 13  1  0
  2 20  2  0
  2 28  1  0
  2 29  1  0
  3 19  4  0
  3 25  4  0
  4 23  4  0
  4 27  1  0
  4 30  4  0
  5 17  1  0
  6  8  1  0
  6 29  1  0
  7 24  4  0
  7 26  4  0
  8 28  1  0
  9 13  2  0
 10 18  1  0
 10 21  4  0
 10 30  4  0
 11 17  2  0
 12 18  1  0
 13 15  1  0
 14 24  1  0
 15 25  1  0
 16 28  2  0
 17 20  1  0
 19 24  4  0
 20 23  1  0
 21 22  4  0
 22 23  4  0
 25 26  4  0
 27 29  2  0
M  END
$$$$

 Created by Python create_sdf_string function

 30 33  0  0  0  0  0  0  0  0999 V2000
    8.3036    9.8571   18.4133 C   0  0  0  0  0  0  0  0  0  0  0  0
    8.3694    7.6612   22.6703 C   0  0  0  0  0  0  0  0  0  0  0  0
    8.4143    6.6863   16.2273 C   0  0  0  0  0  0  0  0  0  0  0  0
   10.7581    6.5674   21.7636 C   0  0  0  0  0  0  0  0  0  0  0  0
    8.4452    8.7960   19.2958 O   0  0  0  0  0  0  0  0  0  0  0  0
    8.7122    6.7842   24.8569 C   0  0  0  0  0  0  0  0  0  0  0  0
   10.3400    6.1726   14.3081 C   0  0  0  0  0  0  0  0  0  0  0  0
    7.4297    7.5873   24.8962 C   0  0  0  0  0  0  0  0  0  0  0  0
    8.1566   10.0536   16.0516 O   0  0  0  0  0  0  0  0  0  0  0  0
   12.4989    6.2074   20.1776 C   0  0  0  0  0  0  0  0  0  0  0  0
    6.9192    9.1053   20.9073 O   0  0  0  0  0  0  0  0  0  0  0  0
   14.3979    6.0729   18.7784 C   0  0  0  0  0  0  0  0  0  0  0  0
    8.6811    9.5354   16.9998 C   0  0  0  0  0  0  0  0  0  0  0  0
    9.2512    4.2713   13.7653 O   0  0  0  0  0  0  0  0  0  0  0  0
    9.6495    8.6317   16.8332 N   0  0  0  0  0  0  0  0  0  0  0  0
    6.2934    8.6988   23.1988 O   0  0  0  0  0  0  0  0  0  0  0  0
    7.9806    8.6543   20.5437 C   0  0  0  0  0  0  0  0  0  0  0  0
   13.7270    5.7144   19.8610 O   0  0  0  0  0  0  0  0  0  0  0  0
    8.3351    5.5235   15.4478 C   0  0  0  0  0  0  0  0  0  0  0  0
    8.7700    7.8434   21.3915 C   0  0  0  0  0  0  0  0  0  0  0  0
   11.7856    6.8851   19.2401 C   0  0  0  0  0  0  0  0  0  0  0  0
   10.5281    7.4276   19.5649 C   0  0  0  0  0  0  0  0  0  0  0  0
   10.0256    7.2907   20.8484 C   0  0  0  0  0  0  0  0  0  0  0  0
    9.3113    5.3049   14.4911 C   0  0  0  0  0  0  0  0  0  0  0  0
    9.4607    7.5646   16.0139 C   0  0  0  0  0  0  0  0  0  0  0  0
   10.4192    7.3157   15.0955 C   0  0  0  0  0  0  0  0  0  0  0  0
   10.2489    6.4227   23.0218 N   0  0  0  0  0  0  0  0  0  0  0  0
    7.2472    8.0746   23.5050 C   0  0  0  0  0  0  0  0  0  0  0  0
    9.2051    6.9101   23.4604 C   0  0  0  0  0  0  0  0  0  0  0  0
   11.9646    6.0299   21.4251 C   0  0  0  0  0  0  0  0  0  0  0  0
  1  5  1  0
  1 13  1  0
  2 20  2  0
  2 28  1  0
  2 29  1  0
  3 19  4  0
  3 25  4  0
  4 23  4  0
  4 27  1  0
  4 30  4  0
  5 17  1  0
  6  8  1  0
  6 29  1  0
  7 24  4  0
  7 26  4  0
  8 28  1  0
  9 13  2  0
 10 18  1  0
 10 21  4  0
 10 30  4  0
 11 17  2  0
 12 18  1  0
 13 15  1  0
 14 24  1  0
 15 25  1  0
 16 28  2  0
 17 20  1  0
 19 24  4  0
 20 23  1  0
 21 22  4  0
 22 23  4  0
 25 26  4  0
 27 29  2  0
M  END
$$$$

 Created by Python create_sdf_string function

 30 33  0  0  0  0  0  0  0  0999 V2000
    8.3036    9.8571   18.4133 C   0  0  0  0  0  0  0  0  0  0  0  0
    8.3694    7.6612   22.6703 C   0  0  0  0  0  0  0  0  0  0  0  0
    8.4143    6.6863   16.2273 C   0  0  0  0  0  0  0  0  0  0  0  0
   10.7581    6.5674   21.7636 C   0  0  0  0  0  0  0  0  0  0  0  0
    8.4452    8.7960   19.2958 O   0  0  0  0  0  0  0  0  0  0  0  0
    8.7122    6.7842   24.8569 C   0  0  0  0  0  0  0  0  0  0  0  0
   10.3400    6.1726   14.3081 C   0  0  0  0  0  0  0  0  0  0  0  0
    7.4297    7.5873   24.8962 C   0  0  0  0  0  0  0  0  0  0  0  0
    8.1566   10.0536   16.0516 O   0  0  0  0  0  0  0  0  0  0  0  0
   12.4989    6.2074   20.1776 C   0  0  0  0  0  0  0  0  0  0  0  0
    6.9192    9.1053   20.9073 O   0  0  0  0  0  0  0  0  0  0  0  0
   14.3979    6.0729   18.7784 C   0  0  0  0  0  0  0  0  0  0  0  0
    8.6811    9.5354   16.9998 C   0  0  0  0  0  0  0  0  0  0  0  0
    9.2512    4.2713   13.7653 O   0  0  0  0  0  0  0  0  0  0  0  0
    9.6495    8.6317   16.8332 N   0  0  0  0  0  0  0  0  0  0  0  0
    6.2934    8.6988   23.1988 O   0  0  0  0  0  0  0  0  0  0  0  0
    7.9806    8.6543   20.5437 C   0  0  0  0  0  0  0  0  0  0  0  0
   13.7270    5.7144   19.8610 O   0  0  0  0  0  0  0  0  0  0  0  0
    8.3351    5.5235   15.4478 C   0  0  0  0  0  0  0  0  0  0  0  0
    8.7700    7.8434   21.3915 C   0  0  0  0  0  0  0  0  0  0  0  0
   11.7856    6.8851   19.2401 C   0  0  0  0  0  0  0  0  0  0  0  0
   10.5281    7.4276   19.5649 C   0  0  0  0  0  0  0  0  0  0  0  0
   10.0256    7.2907   20.8484 C   0  0  0  0  0  0  0  0  0  0  0  0
    9.3113    5.3049   14.4911 C   0  0  0  0  0  0  0  0  0  0  0  0
    9.4607    7.5646   16.0139 C   0  0  0  0  0  0  0  0  0  0  0  0
   10.4192    7.3157   15.0955 C   0  0  0  0  0  0  0  0  0  0  0  0
   10.2489    6.4227   23.0218 N   0  0  0  0  0  0  0  0  0  0  0  0
    7.2472    8.0746   23.5050 C   0  0  0  0  0  0  0  0  0  0  0  0
    9.2051    6.9101   23.4604 C   0  0  0  0  0  0  0  0  0  0  0  0
   11.9646    6.0299   21.4251 C   0  0  0  0  0  0  0  0  0  0  0  0
  1  5  1  0
  1 13  1  0
  2 20  2  0
  2 28  1  0
  2 29  1  0
  3 19  4  0
  3 25  4  0
  4 23  4  0
  4 27  1  0
  4 30  4  0
  5 17  1  0
  6  8  1  0
  6 29  1  0
  7 24  4  0
  7 26  4  0
  8 28  1  0
  9 13  2  0
 10 18  1  0
 10 21  4  0
 10 30  4  0
 11 17  2  0
 12 18  1  0
 13 15  1  0
 14 24  1  0
 15 25  1  0
 16 28  2  0
 17 20  1  0
 19 24  4  0
 20 23  1  0
 21 22  4  0
 22 23  4  0
 25 26  4  0
 27 29  2  0
M  END
$$$$

 Created by Python create_sdf_string function

 30 33  0  0  0  0  0  0  0  0999 V2000
    8.3036    9.8571   18.4133 C   0  0  0  0  0  0  0  0  0  0  0  0
    8.3694    7.6612   22.6703 C   0  0  0  0  0  0  0  0  0  0  0  0
    8.4143    6.6863   16.2273 C   0  0  0  0  0  0  0  0  0  0  0  0
   10.7581    6.5674   21.7636 C   0  0  0  0  0  0  0  0  0  0  0  0
    8.4452    8.7960   19.2958 O   0  0  0  0  0  0  0  0  0  0  0  0
    8.7122    6.7842   24.8569 C   0  0  0  0  0  0  0  0  0  0  0  0
   10.3400    6.1726   14.3081 C   0  0  0  0  0  0  0  0  0  0  0  0
    7.4297    7.5873   24.8962 C   0  0  0  0  0  0  0  0  0  0  0  0
    8.1566   10.0536   16.0516 O   0  0  0  0  0  0  0  0  0  0  0  0
   12.4989    6.2074   20.1776 C   0  0  0  0  0  0  0  0  0  0  0  0
    6.9192    9.1053   20.9073 O   0  0  0  0  0  0  0  0  0  0  0  0
   14.3979    6.0729   18.7784 C   0  0  0  0  0  0  0  0  0  0  0  0
    8.6811    9.5354   16.9998 C   0  0  0  0  0  0  0  0  0  0  0  0
    9.2512    4.2713   13.7653 O   0  0  0  0  0  0  0  0  0  0  0  0
    9.6495    8.6317   16.8332 N   0  0  0  0  0  0  0  0  0  0  0  0
    6.2934    8.6988   23.1988 O   0  0  0  0  0  0  0  0  0  0  0  0
    7.9806    8.6543   20.5437 C   0  0  0  0  0  0  0  0  0  0  0  0
   13.7270    5.7144   19.8610 O   0  0  0  0  0  0  0  0  0  0  0  0
    8.3351    5.5235   15.4478 C   0  0  0  0  0  0  0  0  0  0  0  0
    8.7700    7.8434   21.3915 C   0  0  0  0  0  0  0  0  0  0  0  0
   11.7856    6.8851   19.2401 C   0  0  0  0  0  0  0  0  0  0  0  0
   10.5281    7.4276   19.5649 C   0  0  0  0  0  0  0  0  0  0  0  0
   10.0256    7.2907   20.8484 C   0  0  0  0  0  0  0  0  0  0  0  0
    9.3113    5.3049   14.4911 C   0  0  0  0  0  0  0  0  0  0  0  0
    9.4607    7.5646   16.0139 C   0  0  0  0  0  0  0  0  0  0  0  0
   10.4192    7.3157   15.0955 C   0  0  0  0  0  0  0  0  0  0  0  0
   10.2489    6.4227   23.0218 N   0  0  0  0  0  0  0  0  0  0  0  0
    7.2472    8.0746   23.5050 C   0  0  0  0  0  0  0  0  0  0  0  0
    9.2051    6.9101   23.4604 C   0  0  0  0  0  0  0  0  0  0  0  0
   11.9646    6.0299   21.4251 C   0  0  0  0  0  0  0  0  0  0  0  0
  1  5  1  0
  1 13  1  0
  2 20  2  0
  2 28  1  0
  2 29  1  0
  3 19  4  0
  3 25  4  0
  4 23  4  0
  4 27  1  0
  4 30  4  0
  5 17  1  0
  6  8  1  0
  6 29  1  0
  7 24  4  0
  7 26  4  0
  8 28  1  0
  9 13  2  0
 10 18  1  0
 10 21  4  0
 10 30  4  0
 11 17  2  0
 12 18  1  0
 13 15  1  0
 14 24  1  0
 15 25  1  0
 16 28  2  0
 17 20  1  0
 19 24  4  0
 20 23  1  0
 21 22  4  0
 22 23  4  0
 25 26  4  0
 27 29  2  0
M  END
$$$$

 Created by Python create_sdf_string function

 30 33  0  0  0  0  0  0  0  0999 V2000
    8.3036    9.8571   18.4133 C   0  0  0  0  0  0  0  0  0  0  0  0
    8.3694    7.6612   22.6703 C   0  0  0  0  0  0  0  0  0  0  0  0
    8.4143    6.6863   16.2273 C   0  0  0  0  0  0  0  0  0  0  0  0
   10.7581    6.5674   21.7636 C   0  0  0  0  0  0  0  0  0  0  0  0
    8.4452    8.7960   19.2958 O   0  0  0  0  0  0  0  0  0  0  0  0
    8.7122    6.7842   24.8569 C   0  0  0  0  0  0  0  0  0  0  0  0
   10.3400    6.1726   14.3081 C   0  0  0  0  0  0  0  0  0  0  0  0
    7.4297    7.5873   24.8962 C   0  0  0  0  0  0  0  0  0  0  0  0
    8.1566   10.0536   16.0516 O   0  0  0  0  0  0  0  0  0  0  0  0
   12.4989    6.2074   20.1776 C   0  0  0  0  0  0  0  0  0  0  0  0
    6.9192    9.1053   20.9073 O   0  0  0  0  0  0  0  0  0  0  0  0
   14.3979    6.0729   18.7784 C   0  0  0  0  0  0  0  0  0  0  0  0
    8.6811    9.5354   16.9998 C   0  0  0  0  0  0  0  0  0  0  0  0
    9.2512    4.2713   13.7653 O   0  0  0  0  0  0  0  0  0  0  0  0
    9.6495    8.6317   16.8332 N   0  0  0  0  0  0  0  0  0  0  0  0
    6.2934    8.6988   23.1988 O   0  0  0  0  0  0  0  0  0  0  0  0
    7.9806    8.6543   20.5437 C   0  0  0  0  0  0  0  0  0  0  0  0
   13.7270    5.7144   19.8610 O   0  0  0  0  0  0  0  0  0  0  0  0
    8.3351    5.5235   15.4478 C   0  0  0  0  0  0  0  0  0  0  0  0
    8.7700    7.8434   21.3915 C   0  0  0  0  0  0  0  0  0  0  0  0
   11.7856    6.8851   19.2401 C   0  0  0  0  0  0  0  0  0  0  0  0
   10.5281    7.4276   19.5649 C   0  0  0  0  0  0  0  0  0  0  0  0
   10.0256    7.2907   20.8484 C   0  0  0  0  0  0  0  0  0  0  0  0
    9.3113    5.3049   14.4911 C   0  0  0  0  0  0  0  0  0  0  0  0
    9.4607    7.5646   16.0139 C   0  0  0  0  0  0  0  0  0  0  0  0
   10.4192    7.3157   15.0955 C   0  0  0  0  0  0  0  0  0  0  0  0
   10.2489    6.4227   23.0218 N   0  0  0  0  0  0  0  0  0  0  0  0
    7.2472    8.0746   23.5050 C   0  0  0  0  0  0  0  0  0  0  0  0
    9.2051    6.9101   23.4604 C   0  0  0  0  0  0  0  0  0  0  0  0
   11.9646    6.0299   21.4251 C   0  0  0  0  0  0  0  0  0  0  0  0
  1  5  1  0
  1 13  1  0
  2 20  2  0
  2 28  1  0
  2 29  1  0
  3 19  4  0
  3 25  4  0
  4 23  4  0
  4 27  1  0
  4 30  4  0
  5 17  1  0
  6  8  1  0
  6 29  1  0
  7 24  4  0
  7 26  4  0
  8 28  1  0
  9 13  2  0
 10 18  1  0
 10 21  4  0
 10 30  4  0
 11 17  2  0
 12 18  1  0
 13 15  1  0
 14 24  1  0
 15 25  1  0
 16 28  2  0
 17 20  1  0
 19 24  4  0
 20 23  1  0
 21 22  4  0
 22 23  4  0
 25 26  4  0
 27 29  2  0
M  END
$$$$

 Created by Python create_sdf_string function

 30 33  0  0  0  0  0  0  0  0999 V2000
    8.3036    9.8571   18.4133 C   0  0  0  0  0  0  0  0  0  0  0  0
    8.3694    7.6612   22.6703 C   0  0  0  0  0  0  0  0  0  0  0  0
    8.4143    6.6863   16.2273 C   0  0  0  0  0  0  0  0  0  0  0  0
   10.7581    6.5674   21.7636 C   0  0  0  0  0  0  0  0  0  0  0  0
    8.4452    8.7960   19.2958 O   0  0  0  0  0  0  0  0  0  0  0  0
    8.7122    6.7842   24.8569 C   0  0  0  0  0  0  0  0  0  0  0  0
   10.3400    6.1726   14.3081 C   0  0  0  0  0  0  0  0  0  0  0  0
    7.4297    7.5873   24.8962 C   0  0  0  0  0  0  0  0  0  0  0  0
    8.1566   10.0536   16.0516 O   0  0  0  0  0  0  0  0  0  0  0  0
   12.4989    6.2074   20.1776 C   0  0  0  0  0  0  0  0  0  0  0  0
    6.9192    9.1053   20.9073 O   0  0  0  0  0  0  0  0  0  0  0  0
   14.3979    6.0729   18.7784 C   0  0  0  0  0  0  0  0  0  0  0  0
    8.6811    9.5354   16.9998 C   0  0  0  0  0  0  0  0  0  0  0  0
    9.2512    4.2713   13.7653 O   0  0  0  0  0  0  0  0  0  0  0  0
    9.6495    8.6317   16.8332 N   0  0  0  0  0  0  0  0  0  0  0  0
    6.2934    8.6988   23.1988 O   0  0  0  0  0  0  0  0  0  0  0  0
    7.9806    8.6543   20.5437 C   0  0  0  0  0  0  0  0  0  0  0  0
   13.7270    5.7144   19.8610 O   0  0  0  0  0  0  0  0  0  0  0  0
    8.3351    5.5235   15.4478 C   0  0  0  0  0  0  0  0  0  0  0  0
    8.7700    7.8434   21.3915 C   0  0  0  0  0  0  0  0  0  0  0  0
   11.7856    6.8851   19.2401 C   0  0  0  0  0  0  0  0  0  0  0  0
   10.5281    7.4276   19.5649 C   0  0  0  0  0  0  0  0  0  0  0  0
   10.0256    7.2907   20.8484 C   0  0  0  0  0  0  0  0  0  0  0  0
    9.3113    5.3049   14.4911 C   0  0  0  0  0  0  0  0  0  0  0  0
    9.4607    7.5646   16.0139 C   0  0  0  0  0  0  0  0  0  0  0  0
   10.4192    7.3157   15.0955 C   0  0  0  0  0  0  0  0  0  0  0  0
   10.2489    6.4227   23.0218 N   0  0  0  0  0  0  0  0  0  0  0  0
    7.2472    8.0746   23.5050 C   0  0  0  0  0  0  0  0  0  0  0  0
    9.2051    6.9101   23.4604 C   0  0  0  0  0  0  0  0  0  0  0  0
   11.9646    6.0299   21.4251 C   0  0  0  0  0  0  0  0  0  0  0  0
  1  5  1  0
  1 13  1  0
  2 20  2  0
  2 28  1  0
  2 29  1  0
  3 19  4  0
  3 25  4  0
  4 23  4  0
  4 27  1  0
  4 30  4  0
  5 17  1  0
  6  8  1  0
  6 29  1  0
  7 24  4  0
  7 26  4  0
  8 28  1  0
  9 13  2  0
 10 18  1  0
 10 21  4  0
 10 30  4  0
 11 17  2  0
 12 18  1  0
 13 15  1  0
 14 24  1  0
 15 25  1  0
 16 28  2  0
 17 20  1  0
 19 24  4  0
 20 23  1  0
 21 22  4  0
 22 23  4  0
 25 26  4  0
 27 29  2  0
M  END
$$$$

 Created by Python create_sdf_string function

 30 33  0  0  0  0  0  0  0  0999 V2000
    8.3036    9.8571   18.4133 C   0  0  0  0  0  0  0  0  0  0  0  0
    8.3694    7.6612   22.6703 C   0  0  0  0  0  0  0  0  0  0  0  0
    8.4143    6.6863   16.2273 C   0  0  0  0  0  0  0  0  0  0  0  0
   10.7581    6.5674   21.7636 C   0  0  0  0  0  0  0  0  0  0  0  0
    8.4452    8.7960   19.2958 O   0  0  0  0  0  0  0  0  0  0  0  0
    8.7122    6.7842   24.8569 C   0  0  0  0  0  0  0  0  0  0  0  0
   10.3400    6.1726   14.3081 C   0  0  0  0  0  0  0  0  0  0  0  0
    7.4297    7.5873   24.8962 C   0  0  0  0  0  0  0  0  0  0  0  0
    8.1566   10.0536   16.0516 O   0  0  0  0  0  0  0  0  0  0  0  0
   12.4989    6.2074   20.1776 C   0  0  0  0  0  0  0  0  0  0  0  0
    6.9192    9.1053   20.9073 O   0  0  0  0  0  0  0  0  0  0  0  0
   14.3979    6.0729   18.7784 C   0  0  0  0  0  0  0  0  0  0  0  0
    8.6811    9.5354   16.9998 C   0  0  0  0  0  0  0  0  0  0  0  0
    9.2512    4.2713   13.7653 O   0  0  0  0  0  0  0  0  0  0  0  0
    9.6495    8.6317   16.8332 N   0  0  0  0  0  0  0  0  0  0  0  0
    6.2934    8.6988   23.1988 O   0  0  0  0  0  0  0  0  0  0  0  0
    7.9806    8.6543   20.5437 C   0  0  0  0  0  0  0  0  0  0  0  0
   13.7270    5.7144   19.8610 O   0  0  0  0  0  0  0  0  0  0  0  0
    8.3351    5.5235   15.4478 C   0  0  0  0  0  0  0  0  0  0  0  0
    8.7700    7.8434   21.3915 C   0  0  0  0  0  0  0  0  0  0  0  0
   11.7856    6.8851   19.2401 C   0  0  0  0  0  0  0  0  0  0  0  0
   10.5281    7.4276   19.5649 C   0  0  0  0  0  0  0  0  0  0  0  0
   10.0256    7.2907   20.8484 C   0  0  0  0  0  0  0  0  0  0  0  0
    9.3113    5.3049   14.4911 C   0  0  0  0  0  0  0  0  0  0  0  0
    9.4607    7.5646   16.0139 C   0  0  0  0  0  0  0  0  0  0  0  0
   10.4192    7.3157   15.0955 C   0  0  0  0  0  0  0  0  0  0  0  0
   10.2489    6.4227   23.0218 N   0  0  0  0  0  0  0  0  0  0  0  0
    7.2472    8.0746   23.5050 C   0  0  0  0  0  0  0  0  0  0  0  0
    9.2051    6.9101   23.4604 C   0  0  0  0  0  0  0  0  0  0  0  0
   11.9646    6.0299   21.4251 C   0  0  0  0  0  0  0  0  0  0  0  0
  1  5  1  0
  1 13  1  0
  2 20  2  0
  2 28  1  0
  2 29  1  0
  3 19  4  0
  3 25  4  0
  4 23  4  0
  4 27  1  0
  4 30  4  0
  5 17  1  0
  6  8  1  0
  6 29  1  0
  7 24  4  0
  7 26  4  0
  8 28  1  0
  9 13  2  0
 10 18  1  0
 10 21  4  0
 10 30  4  0
 11 17  2  0
 12 18  1  0
 13 15  1  0
 14 24  1  0
 15 25  1  0
 16 28  2  0
 17 20  1  0
 19 24  4  0
 20 23  1  0
 21 22  4  0
 22 23  4  0
 25 26  4  0
 27 29  2  0
M  END
$$$$

 Created by Python create_sdf_string function

 30 33  0  0  0  0  0  0  0  0999 V2000
    8.3036    9.8571   18.4133 C   0  0  0  0  0  0  0  0  0  0  0  0
    8.3694    7.6612   22.6703 C   0  0  0  0  0  0  0  0  0  0  0  0
    8.4143    6.6863   16.2273 C   0  0  0  0  0  0  0  0  0  0  0  0
   10.7581    6.5674   21.7636 C   0  0  0  0  0  0  0  0  0  0  0  0
    8.4452    8.7960   19.2958 O   0  0  0  0  0  0  0  0  0  0  0  0
    8.7122    6.7842   24.8569 C   0  0  0  0  0  0  0  0  0  0  0  0
   10.3400    6.1726   14.3081 C   0  0  0  0  0  0  0  0  0  0  0  0
    7.4297    7.5873   24.8962 C   0  0  0  0  0  0  0  0  0  0  0  0
    8.1566   10.0536   16.0516 O   0  0  0  0  0  0  0  0  0  0  0  0
   12.4989    6.2074   20.1776 C   0  0  0  0  0  0  0  0  0  0  0  0
    6.9192    9.1053   20.9073 O   0  0  0  0  0  0  0  0  0  0  0  0
   14.3979    6.0729   18.7784 C   0  0  0  0  0  0  0  0  0  0  0  0
    8.6811    9.5354   16.9998 C   0  0  0  0  0  0  0  0  0  0  0  0
    9.2512    4.2713   13.7653 O   0  0  0  0  0  0  0  0  0  0  0  0
    9.6495    8.6317   16.8332 N   0  0  0  0  0  0  0  0  0  0  0  0
    6.2934    8.6988   23.1988 O   0  0  0  0  0  0  0  0  0  0  0  0
    7.9806    8.6543   20.5437 C   0  0  0  0  0  0  0  0  0  0  0  0
   13.7270    5.7144   19.8610 O   0  0  0  0  0  0  0  0  0  0  0  0
    8.3351    5.5235   15.4478 C   0  0  0  0  0  0  0  0  0  0  0  0
    8.7700    7.8434   21.3915 C   0  0  0  0  0  0  0  0  0  0  0  0
   11.7856    6.8851   19.2401 C   0  0  0  0  0  0  0  0  0  0  0  0
   10.5281    7.4276   19.5649 C   0  0  0  0  0  0  0  0  0  0  0  0
   10.0256    7.2907   20.8484 C   0  0  0  0  0  0  0  0  0  0  0  0
    9.3113    5.3049   14.4911 C   0  0  0  0  0  0  0  0  0  0  0  0
    9.4607    7.5646   16.0139 C   0  0  0  0  0  0  0  0  0  0  0  0
   10.4192    7.3157   15.0955 C   0  0  0  0  0  0  0  0  0  0  0  0
   10.2489    6.4227   23.0218 N   0  0  0  0  0  0  0  0  0  0  0  0
    7.2472    8.0746   23.5050 C   0  0  0  0  0  0  0  0  0  0  0  0
    9.2051    6.9101   23.4604 C   0  0  0  0  0  0  0  0  0  0  0  0
   11.9646    6.0299   21.4251 C   0  0  0  0  0  0  0  0  0  0  0  0
  1  5  1  0
  1 13  1  0
  2 20  2  0
  2 28  1  0
  2 29  1  0
  3 19  4  0
  3 25  4  0
  4 23  4  0
  4 27  1  0
  4 30  4  0
  5 17  1  0
  6  8  1  0
  6 29  1  0
  7 24  4  0
  7 26  4  0
  8 28  1  0
  9 13  2  0
 10 18  1  0
 10 21  4  0
 10 30  4  0
 11 17  2  0
 12 18  1  0
 13 15  1  0
 14 24  1  0
 15 25  1  0
 16 28  2  0
 17 20  1  0
 19 24  4  0
 20 23  1  0
 21 22  4  0
 22 23  4  0
 25 26  4  0
 27 29  2  0
M  END
$$$$

 Created by Python create_sdf_string function

 30 33  0  0  0  0  0  0  0  0999 V2000
    8.3036    9.8571   18.4133 C   0  0  0  0  0  0  0  0  0  0  0  0
    8.3694    7.6612   22.6703 C   0  0  0  0  0  0  0  0  0  0  0  0
    8.4143    6.6863   16.2273 C   0  0  0  0  0  0  0  0  0  0  0  0
   10.7581    6.5674   21.7636 C   0  0  0  0  0  0  0  0  0  0  0  0
    8.4452    8.7960   19.2958 O   0  0  0  0  0  0  0  0  0  0  0  0
    8.7122    6.7842   24.8569 C   0  0  0  0  0  0  0  0  0  0  0  0
   10.3400    6.1726   14.3081 C   0  0  0  0  0  0  0  0  0  0  0  0
    7.4297    7.5873   24.8962 C   0  0  0  0  0  0  0  0  0  0  0  0
    8.1566   10.0536   16.0516 O   0  0  0  0  0  0  0  0  0  0  0  0
   12.4989    6.2074   20.1776 C   0  0  0  0  0  0  0  0  0  0  0  0
    6.9192    9.1053   20.9073 O   0  0  0  0  0  0  0  0  0  0  0  0
   14.3979    6.0729   18.7784 C   0  0  0  0  0  0  0  0  0  0  0  0
    8.6811    9.5354   16.9998 C   0  0  0  0  0  0  0  0  0  0  0  0
    9.2512    4.2713   13.7653 O   0  0  0  0  0  0  0  0  0  0  0  0
    9.6495    8.6317   16.8332 N   0  0  0  0  0  0  0  0  0  0  0  0
    6.2934    8.6988   23.1988 O   0  0  0  0  0  0  0  0  0  0  0  0
    7.9806    8.6543   20.5437 C   0  0  0  0  0  0  0  0  0  0  0  0
   13.7270    5.7144   19.8610 O   0  0  0  0  0  0  0  0  0  0  0  0
    8.3351    5.5235   15.4478 C   0  0  0  0  0  0  0  0  0  0  0  0
    8.7700    7.8434   21.3915 C   0  0  0  0  0  0  0  0  0  0  0  0
   11.7856    6.8851   19.2401 C   0  0  0  0  0  0  0  0  0  0  0  0
   10.5281    7.4276   19.5649 C   0  0  0  0  0  0  0  0  0  0  0  0
   10.0256    7.2907   20.8484 C   0  0  0  0  0  0  0  0  0  0  0  0
    9.3113    5.3049   14.4911 C   0  0  0  0  0  0  0  0  0  0  0  0
    9.4607    7.5646   16.0139 C   0  0  0  0  0  0  0  0  0  0  0  0
   10.4192    7.3157   15.0955 C   0  0  0  0  0  0  0  0  0  0  0  0
   10.2489    6.4227   23.0218 N   0  0  0  0  0  0  0  0  0  0  0  0
    7.2472    8.0746   23.5050 C   0  0  0  0  0  0  0  0  0  0  0  0
    9.2051    6.9101   23.4604 C   0  0  0  0  0  0  0  0  0  0  0  0
   11.9646    6.0299   21.4251 C   0  0  0  0  0  0  0  0  0  0  0  0
  1  5  1  0
  1 13  1  0
  2 20  2  0
  2 28  1  0
  2 29  1  0
  3 19  4  0
  3 25  4  0
  4 23  4  0
  4 27  1  0
  4 30  4  0
  5 17  1  0
  6  8  1  0
  6 29  1  0
  7 24  4  0
  7 26  4  0
  8 28  1  0
  9 13  2  0
 10 18  1  0
 10 21  4  0
 10 30  4  0
 11 17  2  0
 12 18  1  0
 13 15  1  0
 14 24  1  0
 15 25  1  0
 16 28  2  0
 17 20  1  0
 19 24  4  0
 20 23  1  0
 21 22  4  0
 22 23  4  0
 25 26  4  0
 27 29  2  0
M  END
$$$$

 Created by Python create_sdf_string function

 30 33  0  0  0  0  0  0  0  0999 V2000
    8.3036    9.8571   18.4133 C   0  0  0  0  0  0  0  0  0  0  0  0
    8.3694    7.6612   22.6703 C   0  0  0  0  0  0  0  0  0  0  0  0
    8.4143    6.6863   16.2273 C   0  0  0  0  0  0  0  0  0  0  0  0
   10.7581    6.5674   21.7636 C   0  0  0  0  0  0  0  0  0  0  0  0
    8.4452    8.7960   19.2958 O   0  0  0  0  0  0  0  0  0  0  0  0
    8.7122    6.7842   24.8569 C   0  0  0  0  0  0  0  0  0  0  0  0
   10.3400    6.1726   14.3081 C   0  0  0  0  0  0  0  0  0  0  0  0
    7.4297    7.5873   24.8962 C   0  0  0  0  0  0  0  0  0  0  0  0
    8.1566   10.0536   16.0516 O   0  0  0  0  0  0  0  0  0  0  0  0
   12.4989    6.2074   20.1776 C   0  0  0  0  0  0  0  0  0  0  0  0
    6.9192    9.1053   20.9073 O   0  0  0  0  0  0  0  0  0  0  0  0
   14.3979    6.0729   18.7784 C   0  0  0  0  0  0  0  0  0  0  0  0
    8.6811    9.5354   16.9998 C   0  0  0  0  0  0  0  0  0  0  0  0
    9.2512    4.2713   13.7653 O   0  0  0  0  0  0  0  0  0  0  0  0
    9.6495    8.6317   16.8332 N   0  0  0  0  0  0  0  0  0  0  0  0
    6.2934    8.6988   23.1988 O   0  0  0  0  0  0  0  0  0  0  0  0
    7.9806    8.6543   20.5437 C   0  0  0  0  0  0  0  0  0  0  0  0
   13.7270    5.7144   19.8610 O   0  0  0  0  0  0  0  0  0  0  0  0
    8.3351    5.5235   15.4478 C   0  0  0  0  0  0  0  0  0  0  0  0
    8.7700    7.8434   21.3915 C   0  0  0  0  0  0  0  0  0  0  0  0
   11.7856    6.8851   19.2401 C   0  0  0  0  0  0  0  0  0  0  0  0
   10.5281    7.4276   19.5649 C   0  0  0  0  0  0  0  0  0  0  0  0
   10.0256    7.2907   20.8484 C   0  0  0  0  0  0  0  0  0  0  0  0
    9.3113    5.3049   14.4911 C   0  0  0  0  0  0  0  0  0  0  0  0
    9.4607    7.5646   16.0139 C   0  0  0  0  0  0  0  0  0  0  0  0
   10.4192    7.3157   15.0955 C   0  0  0  0  0  0  0  0  0  0  0  0
   10.2489    6.4227   23.0218 N   0  0  0  0  0  0  0  0  0  0  0  0
    7.2472    8.0746   23.5050 C   0  0  0  0  0  0  0  0  0  0  0  0
    9.2051    6.9101   23.4604 C   0  0  0  0  0  0  0  0  0  0  0  0
   11.9646    6.0299   21.4251 C   0  0  0  0  0  0  0  0  0  0  0  0
  1  5  1  0
  1 13  1  0
  2 20  2  0
  2 28  1  0
  2 29  1  0
  3 19  4  0
  3 25  4  0
  4 23  4  0
  4 27  1  0
  4 30  4  0
  5 17  1  0
  6  8  1  0
  6 29  1  0
  7 24  4  0
  7 26  4  0
  8 28  1  0
  9 13  2  0
 10 18  1  0
 10 21  4  0
 10 30  4  0
 11 17  2  0
 12 18  1  0
 13 15  1  0
 14 24  1  0
 15 25  1  0
 16 28  2  0
 17 20  1  0
 19 24  4  0
 20 23  1  0
 21 22  4  0
 22 23  4  0
 25 26  4  0
 27 29  2  0
M  END
$$$$

 Created by Python create_sdf_string function

 30 33  0  0  0  0  0  0  0  0999 V2000
    8.3036    9.8571   18.4133 C   0  0  0  0  0  0  0  0  0  0  0  0
    8.3694    7.6612   22.6703 C   0  0  0  0  0  0  0  0  0  0  0  0
    8.4143    6.6863   16.2273 C   0  0  0  0  0  0  0  0  0  0  0  0
   10.7581    6.5674   21.7636 C   0  0  0  0  0  0  0  0  0  0  0  0
    8.4452    8.7960   19.2958 O   0  0  0  0  0  0  0  0  0  0  0  0
    8.7122    6.7842   24.8569 C   0  0  0  0  0  0  0  0  0  0  0  0
   10.3400    6.1726   14.3081 C   0  0  0  0  0  0  0  0  0  0  0  0
    7.4297    7.5873   24.8962 C   0  0  0  0  0  0  0  0  0  0  0  0
    8.1566   10.0536   16.0516 O   0  0  0  0  0  0  0  0  0  0  0  0
   12.4989    6.2074   20.1776 C   0  0  0  0  0  0  0  0  0  0  0  0
    6.9192    9.1053   20.9073 O   0  0  0  0  0  0  0  0  0  0  0  0
   14.3979    6.0729   18.7784 C   0  0  0  0  0  0  0  0  0  0  0  0
    8.6811    9.5354   16.9998 C   0  0  0  0  0  0  0  0  0  0  0  0
    9.2512    4.2713   13.7653 O   0  0  0  0  0  0  0  0  0  0  0  0
    9.6495    8.6317   16.8332 N   0  0  0  0  0  0  0  0  0  0  0  0
    6.2934    8.6988   23.1988 O   0  0  0  0  0  0  0  0  0  0  0  0
    7.9806    8.6543   20.5437 C   0  0  0  0  0  0  0  0  0  0  0  0
   13.7270    5.7144   19.8610 O   0  0  0  0  0  0  0  0  0  0  0  0
    8.3351    5.5235   15.4478 C   0  0  0  0  0  0  0  0  0  0  0  0
    8.7700    7.8434   21.3915 C   0  0  0  0  0  0  0  0  0  0  0  0
   11.7856    6.8851   19.2401 C   0  0  0  0  0  0  0  0  0  0  0  0
   10.5281    7.4276   19.5649 C   0  0  0  0  0  0  0  0  0  0  0  0
   10.0256    7.2907   20.8484 C   0  0  0  0  0  0  0  0  0  0  0  0
    9.3113    5.3049   14.4911 C   0  0  0  0  0  0  0  0  0  0  0  0
    9.4607    7.5646   16.0139 C   0  0  0  0  0  0  0  0  0  0  0  0
   10.4192    7.3157   15.0955 C   0  0  0  0  0  0  0  0  0  0  0  0
   10.2489    6.4227   23.0218 N   0  0  0  0  0  0  0  0  0  0  0  0
    7.2472    8.0746   23.5050 C   0  0  0  0  0  0  0  0  0  0  0  0
    9.2051    6.9101   23.4604 C   0  0  0  0  0  0  0  0  0  0  0  0
   11.9646    6.0299   21.4251 C   0  0  0  0  0  0  0  0  0  0  0  0
  1  5  1  0
  1 13  1  0
  2 20  2  0
  2 28  1  0
  2 29  1  0
  3 19  4  0
  3 25  4  0
  4 23  4  0
  4 27  1  0
  4 30  4  0
  5 17  1  0
  6  8  1  0
  6 29  1  0
  7 24  4  0
  7 26  4  0
  8 28  1  0
  9 13  2  0
 10 18  1  0
 10 21  4  0
 10 30  4  0
 11 17  2  0
 12 18  1  0
 13 15  1  0
 14 24  1  0
 15 25  1  0
 16 28  2  0
 17 20  1  0
 19 24  4  0
 20 23  1  0
 21 22  4  0
 22 23  4  0
 25 26  4  0
 27 29  2  0
M  END
$$$$

 Created by Python create_sdf_string function

 30 33  0  0  0  0  0  0  0  0999 V2000
    8.3036    9.8571   18.4133 C   0  0  0  0  0  0  0  0  0  0  0  0
    8.3694    7.6612   22.6703 C   0  0  0  0  0  0  0  0  0  0  0  0
    8.4143    6.6863   16.2273 C   0  0  0  0  0  0  0  0  0  0  0  0
   10.7581    6.5674   21.7636 C   0  0  0  0  0  0  0  0  0  0  0  0
    8.4452    8.7960   19.2958 O   0  0  0  0  0  0  0  0  0  0  0  0
    8.7122    6.7842   24.8569 C   0  0  0  0  0  0  0  0  0  0  0  0
   10.3400    6.1726   14.3081 C   0  0  0  0  0  0  0  0  0  0  0  0
    7.4297    7.5873   24.8962 C   0  0  0  0  0  0  0  0  0  0  0  0
    8.1566   10.0536   16.0516 O   0  0  0  0  0  0  0  0  0  0  0  0
   12.4989    6.2074   20.1776 C   0  0  0  0  0  0  0  0  0  0  0  0
    6.9192    9.1053   20.9073 O   0  0  0  0  0  0  0  0  0  0  0  0
   14.3979    6.0729   18.7784 C   0  0  0  0  0  0  0  0  0  0  0  0
    8.6811    9.5354   16.9998 C   0  0  0  0  0  0  0  0  0  0  0  0
    9.2512    4.2713   13.7653 O   0  0  0  0  0  0  0  0  0  0  0  0
    9.6495    8.6317   16.8332 N   0  0  0  0  0  0  0  0  0  0  0  0
    6.2934    8.6988   23.1988 O   0  0  0  0  0  0  0  0  0  0  0  0
    7.9806    8.6543   20.5437 C   0  0  0  0  0  0  0  0  0  0  0  0
   13.7270    5.7144   19.8610 O   0  0  0  0  0  0  0  0  0  0  0  0
    8.3351    5.5235   15.4478 C   0  0  0  0  0  0  0  0  0  0  0  0
    8.7700    7.8434   21.3915 C   0  0  0  0  0  0  0  0  0  0  0  0
   11.7856    6.8851   19.2401 C   0  0  0  0  0  0  0  0  0  0  0  0
   10.5281    7.4276   19.5649 C   0  0  0  0  0  0  0  0  0  0  0  0
   10.0256    7.2907   20.8484 C   0  0  0  0  0  0  0  0  0  0  0  0
    9.3113    5.3049   14.4911 C   0  0  0  0  0  0  0  0  0  0  0  0
    9.4607    7.5646   16.0139 C   0  0  0  0  0  0  0  0  0  0  0  0
   10.4192    7.3157   15.0955 C   0  0  0  0  0  0  0  0  0  0  0  0
   10.2489    6.4227   23.0218 N   0  0  0  0  0  0  0  0  0  0  0  0
    7.2472    8.0746   23.5050 C   0  0  0  0  0  0  0  0  0  0  0  0
    9.2051    6.9101   23.4604 C   0  0  0  0  0  0  0  0  0  0  0  0
   11.9646    6.0299   21.4251 C   0  0  0  0  0  0  0  0  0  0  0  0
  1  5  1  0
  1 13  1  0
  2 20  2  0
  2 28  1  0
  2 29  1  0
  3 19  4  0
  3 25  4  0
  4 23  4  0
  4 27  1  0
  4 30  4  0
  5 17  1  0
  6  8  1  0
  6 29  1  0
  7 24  4  0
  7 26  4  0
  8 28  1  0
  9 13  2  0
 10 18  1  0
 10 21  4  0
 10 30  4  0
 11 17  2  0
 12 18  1  0
 13 15  1  0
 14 24  1  0
 15 25  1  0
 16 28  2  0
 17 20  1  0
 19 24  4  0
 20 23  1  0
 21 22  4  0
 22 23  4  0
 25 26  4  0
 27 29  2  0
M  END
$$$$

 Created by Python create_sdf_string function

 30 33  0  0  0  0  0  0  0  0999 V2000
    8.3036    9.8571   18.4133 C   0  0  0  0  0  0  0  0  0  0  0  0
    8.3694    7.6612   22.6703 C   0  0  0  0  0  0  0  0  0  0  0  0
    8.4143    6.6863   16.2273 C   0  0  0  0  0  0  0  0  0  0  0  0
   10.7581    6.5674   21.7636 C   0  0  0  0  0  0  0  0  0  0  0  0
    8.4452    8.7960   19.2958 O   0  0  0  0  0  0  0  0  0  0  0  0
    8.7122    6.7842   24.8569 C   0  0  0  0  0  0  0  0  0  0  0  0
   10.3400    6.1726   14.3081 C   0  0  0  0  0  0  0  0  0  0  0  0
    7.4297    7.5873   24.8962 C   0  0  0  0  0  0  0  0  0  0  0  0
    8.1566   10.0536   16.0516 O   0  0  0  0  0  0  0  0  0  0  0  0
   12.4989    6.2074   20.1776 C   0  0  0  0  0  0  0  0  0  0  0  0
    6.9192    9.1053   20.9073 O   0  0  0  0  0  0  0  0  0  0  0  0
   14.3979    6.0729   18.7784 C   0  0  0  0  0  0  0  0  0  0  0  0
    8.6811    9.5354   16.9998 C   0  0  0  0  0  0  0  0  0  0  0  0
    9.2512    4.2713   13.7653 O   0  0  0  0  0  0  0  0  0  0  0  0
    9.6495    8.6317   16.8332 N   0  0  0  0  0  0  0  0  0  0  0  0
    6.2934    8.6988   23.1988 O   0  0  0  0  0  0  0  0  0  0  0  0
    7.9806    8.6543   20.5437 C   0  0  0  0  0  0  0  0  0  0  0  0
   13.7270    5.7144   19.8610 O   0  0  0  0  0  0  0  0  0  0  0  0
    8.3351    5.5235   15.4478 C   0  0  0  0  0  0  0  0  0  0  0  0
    8.7700    7.8434   21.3915 C   0  0  0  0  0  0  0  0  0  0  0  0
   11.7856    6.8851   19.2401 C   0  0  0  0  0  0  0  0  0  0  0  0
   10.5281    7.4276   19.5649 C   0  0  0  0  0  0  0  0  0  0  0  0
   10.0256    7.2907   20.8484 C   0  0  0  0  0  0  0  0  0  0  0  0
    9.3113    5.3049   14.4911 C   0  0  0  0  0  0  0  0  0  0  0  0
    9.4607    7.5646   16.0139 C   0  0  0  0  0  0  0  0  0  0  0  0
   10.4192    7.3157   15.0955 C   0  0  0  0  0  0  0  0  0  0  0  0
   10.2489    6.4227   23.0218 N   0  0  0  0  0  0  0  0  0  0  0  0
    7.2472    8.0746   23.5050 C   0  0  0  0  0  0  0  0  0  0  0  0
    9.2051    6.9101   23.4604 C   0  0  0  0  0  0  0  0  0  0  0  0
   11.9646    6.0299   21.4251 C   0  0  0  0  0  0  0  0  0  0  0  0
  1  5  1  0
  1 13  1  0
  2 20  2  0
  2 28  1  0
  2 29  1  0
  3 19  4  0
  3 25  4  0
  4 23  4  0
  4 27  1  0
  4 30  4  0
  5 17  1  0
  6  8  1  0
  6 29  1  0
  7 24  4  0
  7 26  4  0
  8 28  1  0
  9 13  2  0
 10 18  1  0
 10 21  4  0
 10 30  4  0
 11 17  2  0
 12 18  1  0
 13 15  1  0
 14 24  1  0
 15 25  1  0
 16 28  2  0
 17 20  1  0
 19 24  4  0
 20 23  1  0
 21 22  4  0
 22 23  4  0
 25 26  4  0
 27 29  2  0
M  END
$$$$

 Created by Python create_sdf_string function

 30 33  0  0  0  0  0  0  0  0999 V2000
    8.3036    9.8571   18.4133 C   0  0  0  0  0  0  0  0  0  0  0  0
    8.3694    7.6612   22.6703 C   0  0  0  0  0  0  0  0  0  0  0  0
    8.4143    6.6863   16.2273 C   0  0  0  0  0  0  0  0  0  0  0  0
   10.7581    6.5674   21.7636 C   0  0  0  0  0  0  0  0  0  0  0  0
    8.4452    8.7960   19.2958 O   0  0  0  0  0  0  0  0  0  0  0  0
    8.7122    6.7842   24.8569 C   0  0  0  0  0  0  0  0  0  0  0  0
   10.3400    6.1726   14.3081 C   0  0  0  0  0  0  0  0  0  0  0  0
    7.4297    7.5873   24.8962 C   0  0  0  0  0  0  0  0  0  0  0  0
    8.1566   10.0536   16.0516 O   0  0  0  0  0  0  0  0  0  0  0  0
   12.4989    6.2074   20.1776 C   0  0  0  0  0  0  0  0  0  0  0  0
    6.9192    9.1053   20.9073 O   0  0  0  0  0  0  0  0  0  0  0  0
   14.3979    6.0729   18.7784 C   0  0  0  0  0  0  0  0  0  0  0  0
    8.6811    9.5354   16.9998 C   0  0  0  0  0  0  0  0  0  0  0  0
    9.2512    4.2713   13.7653 O   0  0  0  0  0  0  0  0  0  0  0  0
    9.6495    8.6317   16.8332 N   0  0  0  0  0  0  0  0  0  0  0  0
    6.2934    8.6988   23.1988 O   0  0  0  0  0  0  0  0  0  0  0  0
    7.9806    8.6543   20.5437 C   0  0  0  0  0  0  0  0  0  0  0  0
   13.7270    5.7144   19.8610 O   0  0  0  0  0  0  0  0  0  0  0  0
    8.3351    5.5235   15.4478 C   0  0  0  0  0  0  0  0  0  0  0  0
    8.7700    7.8434   21.3915 C   0  0  0  0  0  0  0  0  0  0  0  0
   11.7856    6.8851   19.2401 C   0  0  0  0  0  0  0  0  0  0  0  0
   10.5281    7.4276   19.5649 C   0  0  0  0  0  0  0  0  0  0  0  0
   10.0256    7.2907   20.8484 C   0  0  0  0  0  0  0  0  0  0  0  0
    9.3113    5.3049   14.4911 C   0  0  0  0  0  0  0  0  0  0  0  0
    9.4607    7.5646   16.0139 C   0  0  0  0  0  0  0  0  0  0  0  0
   10.4192    7.3157   15.0955 C   0  0  0  0  0  0  0  0  0  0  0  0
   10.2489    6.4227   23.0218 N   0  0  0  0  0  0  0  0  0  0  0  0
    7.2472    8.0746   23.5050 C   0  0  0  0  0  0  0  0  0  0  0  0
    9.2051    6.9101   23.4604 C   0  0  0  0  0  0  0  0  0  0  0  0
   11.9646    6.0299   21.4251 C   0  0  0  0  0  0  0  0  0  0  0  0
  1  5  1  0
  1 13  1  0
  2 20  2  0
  2 28  1  0
  2 29  1  0
  3 19  4  0
  3 25  4  0
  4 23  4  0
  4 27  1  0
  4 30  4  0
  5 17  1  0
  6  8  1  0
  6 29  1  0
  7 24  4  0
  7 26  4  0
  8 28  1  0
  9 13  2  0
 10 18  1  0
 10 21  4  0
 10 30  4  0
 11 17  2  0
 12 18  1  0
 13 15  1  0
 14 24  1  0
 15 25  1  0
 16 28  2  0
 17 20  1  0
 19 24  4  0
 20 23  1  0
 21 22  4  0
 22 23  4  0
 25 26  4  0
 27 29  2  0
M  END
$$$$

 Created by Python create_sdf_string function

 30 33  0  0  0  0  0  0  0  0999 V2000
    8.3036    9.8571   18.4133 C   0  0  0  0  0  0  0  0  0  0  0  0
    8.3694    7.6612   22.6703 C   0  0  0  0  0  0  0  0  0  0  0  0
    8.4143    6.6863   16.2273 C   0  0  0  0  0  0  0  0  0  0  0  0
   10.7581    6.5674   21.7636 C   0  0  0  0  0  0  0  0  0  0  0  0
    8.4452    8.7960   19.2958 O   0  0  0  0  0  0  0  0  0  0  0  0
    8.7122    6.7842   24.8569 C   0  0  0  0  0  0  0  0  0  0  0  0
   10.3400    6.1726   14.3081 C   0  0  0  0  0  0  0  0  0  0  0  0
    7.4297    7.5873   24.8962 C   0  0  0  0  0  0  0  0  0  0  0  0
    8.1566   10.0536   16.0516 O   0  0  0  0  0  0  0  0  0  0  0  0
   12.4989    6.2074   20.1776 C   0  0  0  0  0  0  0  0  0  0  0  0
    6.9192    9.1053   20.9073 O   0  0  0  0  0  0  0  0  0  0  0  0
   14.3979    6.0729   18.7784 C   0  0  0  0  0  0  0  0  0  0  0  0
    8.6811    9.5354   16.9998 C   0  0  0  0  0  0  0  0  0  0  0  0
    9.2512    4.2713   13.7653 O   0  0  0  0  0  0  0  0  0  0  0  0
    9.6495    8.6317   16.8332 N   0  0  0  0  0  0  0  0  0  0  0  0
    6.2934    8.6988   23.1988 O   0  0  0  0  0  0  0  0  0  0  0  0
    7.9806    8.6543   20.5437 C   0  0  0  0  0  0  0  0  0  0  0  0
   13.7270    5.7144   19.8610 O   0  0  0  0  0  0  0  0  0  0  0  0
    8.3351    5.5235   15.4478 C   0  0  0  0  0  0  0  0  0  0  0  0
    8.7700    7.8434   21.3915 C   0  0  0  0  0  0  0  0  0  0  0  0
   11.7856    6.8851   19.2401 C   0  0  0  0  0  0  0  0  0  0  0  0
   10.5281    7.4276   19.5649 C   0  0  0  0  0  0  0  0  0  0  0  0
   10.0256    7.2907   20.8484 C   0  0  0  0  0  0  0  0  0  0  0  0
    9.3113    5.3049   14.4911 C   0  0  0  0  0  0  0  0  0  0  0  0
    9.4607    7.5646   16.0139 C   0  0  0  0  0  0  0  0  0  0  0  0
   10.4192    7.3157   15.0955 C   0  0  0  0  0  0  0  0  0  0  0  0
   10.2489    6.4227   23.0218 N   0  0  0  0  0  0  0  0  0  0  0  0
    7.2472    8.0746   23.5050 C   0  0  0  0  0  0  0  0  0  0  0  0
    9.2051    6.9101   23.4604 C   0  0  0  0  0  0  0  0  0  0  0  0
   11.9646    6.0299   21.4251 C   0  0  0  0  0  0  0  0  0  0  0  0
  1  5  1  0
  1 13  1  0
  2 20  2  0
  2 28  1  0
  2 29  1  0
  3 19  4  0
  3 25  4  0
  4 23  4  0
  4 27  1  0
  4 30  4  0
  5 17  1  0
  6  8  1  0
  6 29  1  0
  7 24  4  0
  7 26  4  0
  8 28  1  0
  9 13  2  0
 10 18  1  0
 10 21  4  0
 10 30  4  0
 11 17  2  0
 12 18  1  0
 13 15  1  0
 14 24  1  0
 15 25  1  0
 16 28  2  0
 17 20  1  0
 19 24  4  0
 20 23  1  0
 21 22  4  0
 22 23  4  0
 25 26  4  0
 27 29  2  0
M  END
$$$$

 Created by Python create_sdf_string function

 30 33  0  0  0  0  0  0  0  0999 V2000
    8.3036    9.8571   18.4133 C   0  0  0  0  0  0  0  0  0  0  0  0
    8.3694    7.6612   22.6703 C   0  0  0  0  0  0  0  0  0  0  0  0
    8.4143    6.6863   16.2273 C   0  0  0  0  0  0  0  0  0  0  0  0
   10.7581    6.5674   21.7636 C   0  0  0  0  0  0  0  0  0  0  0  0
    8.4452    8.7960   19.2958 O   0  0  0  0  0  0  0  0  0  0  0  0
    8.7122    6.7842   24.8569 C   0  0  0  0  0  0  0  0  0  0  0  0
   10.3400    6.1726   14.3081 C   0  0  0  0  0  0  0  0  0  0  0  0
    7.4297    7.5873   24.8962 C   0  0  0  0  0  0  0  0  0  0  0  0
    8.1566   10.0536   16.0516 O   0  0  0  0  0  0  0  0  0  0  0  0
   12.4989    6.2074   20.1776 C   0  0  0  0  0  0  0  0  0  0  0  0
    6.9192    9.1053   20.9073 O   0  0  0  0  0  0  0  0  0  0  0  0
   14.3979    6.0729   18.7784 C   0  0  0  0  0  0  0  0  0  0  0  0
    8.6811    9.5354   16.9998 C   0  0  0  0  0  0  0  0  0  0  0  0
    9.2512    4.2713   13.7653 O   0  0  0  0  0  0  0  0  0  0  0  0
    9.6495    8.6317   16.8332 N   0  0  0  0  0  0  0  0  0  0  0  0
    6.2934    8.6988   23.1988 O   0  0  0  0  0  0  0  0  0  0  0  0
    7.9806    8.6543   20.5437 C   0  0  0  0  0  0  0  0  0  0  0  0
   13.7270    5.7144   19.8610 O   0  0  0  0  0  0  0  0  0  0  0  0
    8.3351    5.5235   15.4478 C   0  0  0  0  0  0  0  0  0  0  0  0
    8.7700    7.8434   21.3915 C   0  0  0  0  0  0  0  0  0  0  0  0
   11.7856    6.8851   19.2401 C   0  0  0  0  0  0  0  0  0  0  0  0
   10.5281    7.4276   19.5649 C   0  0  0  0  0  0  0  0  0  0  0  0
   10.0256    7.2907   20.8484 C   0  0  0  0  0  0  0  0  0  0  0  0
    9.3113    5.3049   14.4911 C   0  0  0  0  0  0  0  0  0  0  0  0
    9.4607    7.5646   16.0139 C   0  0  0  0  0  0  0  0  0  0  0  0
   10.4192    7.3157   15.0955 C   0  0  0  0  0  0  0  0  0  0  0  0
   10.2489    6.4227   23.0218 N   0  0  0  0  0  0  0  0  0  0  0  0
    7.2472    8.0746   23.5050 C   0  0  0  0  0  0  0  0  0  0  0  0
    9.2051    6.9101   23.4604 C   0  0  0  0  0  0  0  0  0  0  0  0
   11.9646    6.0299   21.4251 C   0  0  0  0  0  0  0  0  0  0  0  0
  1  5  1  0
  1 13  1  0
  2 20  2  0
  2 28  1  0
  2 29  1  0
  3 19  4  0
  3 25  4  0
  4 23  4  0
  4 27  1  0
  4 30  4  0
  5 17  1  0
  6  8  1  0
  6 29  1  0
  7 24  4  0
  7 26  4  0
  8 28  1  0
  9 13  2  0
 10 18  1  0
 10 21  4  0
 10 30  4  0
 11 17  2  0
 12 18  1  0
 13 15  1  0
 14 24  1  0
 15 25  1  0
 16 28  2  0
 17 20  1  0
 19 24  4  0
 20 23  1  0
 21 22  4  0
 22 23  4  0
 25 26  4  0
 27 29  2  0
M  END
$$$$

 Created by Python create_sdf_string function

 30 33  0  0  0  0  0  0  0  0999 V2000
    8.3036    9.8571   18.4133 C   0  0  0  0  0  0  0  0  0  0  0  0
    8.3694    7.6612   22.6703 C   0  0  0  0  0  0  0  0  0  0  0  0
    8.4143    6.6863   16.2273 C   0  0  0  0  0  0  0  0  0  0  0  0
   10.7581    6.5674   21.7636 C   0  0  0  0  0  0  0  0  0  0  0  0
    8.4452    8.7960   19.2958 O   0  0  0  0  0  0  0  0  0  0  0  0
    8.7122    6.7842   24.8569 C   0  0  0  0  0  0  0  0  0  0  0  0
   10.3400    6.1726   14.3081 C   0  0  0  0  0  0  0  0  0  0  0  0
    7.4297    7.5873   24.8962 C   0  0  0  0  0  0  0  0  0  0  0  0
    8.1566   10.0536   16.0516 O   0  0  0  0  0  0  0  0  0  0  0  0
   12.4989    6.2074   20.1776 C   0  0  0  0  0  0  0  0  0  0  0  0
    6.9192    9.1053   20.9073 O   0  0  0  0  0  0  0  0  0  0  0  0
   14.3979    6.0729   18.7784 C   0  0  0  0  0  0  0  0  0  0  0  0
    8.6811    9.5354   16.9998 C   0  0  0  0  0  0  0  0  0  0  0  0
    9.2512    4.2713   13.7653 O   0  0  0  0  0  0  0  0  0  0  0  0
    9.6495    8.6317   16.8332 N   0  0  0  0  0  0  0  0  0  0  0  0
    6.2934    8.6988   23.1988 O   0  0  0  0  0  0  0  0  0  0  0  0
    7.9806    8.6543   20.5437 C   0  0  0  0  0  0  0  0  0  0  0  0
   13.7270    5.7144   19.8610 O   0  0  0  0  0  0  0  0  0  0  0  0
    8.3351    5.5235   15.4478 C   0  0  0  0  0  0  0  0  0  0  0  0
    8.7700    7.8434   21.3915 C   0  0  0  0  0  0  0  0  0  0  0  0
   11.7856    6.8851   19.2401 C   0  0  0  0  0  0  0  0  0  0  0  0
   10.5281    7.4276   19.5649 C   0  0  0  0  0  0  0  0  0  0  0  0
   10.0256    7.2907   20.8484 C   0  0  0  0  0  0  0  0  0  0  0  0
    9.3113    5.3049   14.4911 C   0  0  0  0  0  0  0  0  0  0  0  0
    9.4607    7.5646   16.0139 C   0  0  0  0  0  0  0  0  0  0  0  0
   10.4192    7.3157   15.0955 C   0  0  0  0  0  0  0  0  0  0  0  0
   10.2489    6.4227   23.0218 N   0  0  0  0  0  0  0  0  0  0  0  0
    7.2472    8.0746   23.5050 C   0  0  0  0  0  0  0  0  0  0  0  0
    9.2051    6.9101   23.4604 C   0  0  0  0  0  0  0  0  0  0  0  0
   11.9646    6.0299   21.4251 C   0  0  0  0  0  0  0  0  0  0  0  0
  1  5  1  0
  1 13  1  0
  2 20  2  0
  2 28  1  0
  2 29  1  0
  3 19  4  0
  3 25  4  0
  4 23  4  0
  4 27  1  0
  4 30  4  0
  5 17  1  0
  6  8  1  0
  6 29  1  0
  7 24  4  0
  7 26  4  0
  8 28  1  0
  9 13  2  0
 10 18  1  0
 10 21  4  0
 10 30  4  0
 11 17  2  0
 12 18  1  0
 13 15  1  0
 14 24  1  0
 15 25  1  0
 16 28  2  0
 17 20  1  0
 19 24  4  0
 20 23  1  0
 21 22  4  0
 22 23  4  0
 25 26  4  0
 27 29  2  0
M  END
$$$$

 Created by Python create_sdf_string function

 30 33  0  0  0  0  0  0  0  0999 V2000
    8.3036    9.8571   18.4133 C   0  0  0  0  0  0  0  0  0  0  0  0
    8.3694    7.6612   22.6703 C   0  0  0  0  0  0  0  0  0  0  0  0
    8.4143    6.6863   16.2273 C   0  0  0  0  0  0  0  0  0  0  0  0
   10.7581    6.5674   21.7636 C   0  0  0  0  0  0  0  0  0  0  0  0
    8.4452    8.7960   19.2958 O   0  0  0  0  0  0  0  0  0  0  0  0
    8.7122    6.7842   24.8569 C   0  0  0  0  0  0  0  0  0  0  0  0
   10.3400    6.1726   14.3081 C   0  0  0  0  0  0  0  0  0  0  0  0
    7.4297    7.5873   24.8962 C   0  0  0  0  0  0  0  0  0  0  0  0
    8.1566   10.0536   16.0516 O   0  0  0  0  0  0  0  0  0  0  0  0
   12.4989    6.2074   20.1776 C   0  0  0  0  0  0  0  0  0  0  0  0
    6.9192    9.1053   20.9073 O   0  0  0  0  0  0  0  0  0  0  0  0
   14.3979    6.0729   18.7784 C   0  0  0  0  0  0  0  0  0  0  0  0
    8.6811    9.5354   16.9998 C   0  0  0  0  0  0  0  0  0  0  0  0
    9.2512    4.2713   13.7653 O   0  0  0  0  0  0  0  0  0  0  0  0
    9.6495    8.6317   16.8332 N   0  0  0  0  0  0  0  0  0  0  0  0
    6.2934    8.6988   23.1988 O   0  0  0  0  0  0  0  0  0  0  0  0
    7.9806    8.6543   20.5437 C   0  0  0  0  0  0  0  0  0  0  0  0
   13.7270    5.7144   19.8610 O   0  0  0  0  0  0  0  0  0  0  0  0
    8.3351    5.5235   15.4478 C   0  0  0  0  0  0  0  0  0  0  0  0
    8.7700    7.8434   21.3915 C   0  0  0  0  0  0  0  0  0  0  0  0
   11.7856    6.8851   19.2401 C   0  0  0  0  0  0  0  0  0  0  0  0
   10.5281    7.4276   19.5649 C   0  0  0  0  0  0  0  0  0  0  0  0
   10.0256    7.2907   20.8484 C   0  0  0  0  0  0  0  0  0  0  0  0
    9.3113    5.3049   14.4911 C   0  0  0  0  0  0  0  0  0  0  0  0
    9.4607    7.5646   16.0139 C   0  0  0  0  0  0  0  0  0  0  0  0
   10.4192    7.3157   15.0955 C   0  0  0  0  0  0  0  0  0  0  0  0
   10.2489    6.4227   23.0218 N   0  0  0  0  0  0  0  0  0  0  0  0
    7.2472    8.0746   23.5050 C   0  0  0  0  0  0  0  0  0  0  0  0
    9.2051    6.9101   23.4604 C   0  0  0  0  0  0  0  0  0  0  0  0
   11.9646    6.0299   21.4251 C   0  0  0  0  0  0  0  0  0  0  0  0
  1  5  1  0
  1 13  1  0
  2 20  2  0
  2 28  1  0
  2 29  1  0
  3 19  4  0
  3 25  4  0
  4 23  4  0
  4 27  1  0
  4 30  4  0
  5 17  1  0
  6  8  1  0
  6 29  1  0
  7 24  4  0
  7 26  4  0
  8 28  1  0
  9 13  2  0
 10 18  1  0
 10 21  4  0
 10 30  4  0
 11 17  2  0
 12 18  1  0
 13 15  1  0
 14 24  1  0
 15 25  1  0
 16 28  2  0
 17 20  1  0
 19 24  4  0
 20 23  1  0
 21 22  4  0
 22 23  4  0
 25 26  4  0
 27 29  2  0
M  END
$$$$

 Created by Python create_sdf_string function

 30 33  0  0  0  0  0  0  0  0999 V2000
    8.3036    9.8571   18.4133 C   0  0  0  0  0  0  0  0  0  0  0  0
    8.3694    7.6612   22.6703 C   0  0  0  0  0  0  0  0  0  0  0  0
    8.4143    6.6863   16.2273 C   0  0  0  0  0  0  0  0  0  0  0  0
   10.7581    6.5674   21.7636 C   0  0  0  0  0  0  0  0  0  0  0  0
    8.4452    8.7960   19.2958 O   0  0  0  0  0  0  0  0  0  0  0  0
    8.7122    6.7842   24.8569 C   0  0  0  0  0  0  0  0  0  0  0  0
   10.3400    6.1726   14.3081 C   0  0  0  0  0  0  0  0  0  0  0  0
    7.4297    7.5873   24.8962 C   0  0  0  0  0  0  0  0  0  0  0  0
    8.1566   10.0536   16.0516 O   0  0  0  0  0  0  0  0  0  0  0  0
   12.4989    6.2074   20.1776 C   0  0  0  0  0  0  0  0  0  0  0  0
    6.9192    9.1053   20.9073 O   0  0  0  0  0  0  0  0  0  0  0  0
   14.3979    6.0729   18.7784 C   0  0  0  0  0  0  0  0  0  0  0  0
    8.6811    9.5354   16.9998 C   0  0  0  0  0  0  0  0  0  0  0  0
    9.2512    4.2713   13.7653 O   0  0  0  0  0  0  0  0  0  0  0  0
    9.6495    8.6317   16.8332 N   0  0  0  0  0  0  0  0  0  0  0  0
    6.2934    8.6988   23.1988 O   0  0  0  0  0  0  0  0  0  0  0  0
    7.9806    8.6543   20.5437 C   0  0  0  0  0  0  0  0  0  0  0  0
   13.7270    5.7144   19.8610 O   0  0  0  0  0  0  0  0  0  0  0  0
    8.3351    5.5235   15.4478 C   0  0  0  0  0  0  0  0  0  0  0  0
    8.7700    7.8434   21.3915 C   0  0  0  0  0  0  0  0  0  0  0  0
   11.7856    6.8851   19.2401 C   0  0  0  0  0  0  0  0  0  0  0  0
   10.5281    7.4276   19.5649 C   0  0  0  0  0  0  0  0  0  0  0  0
   10.0256    7.2907   20.8484 C   0  0  0  0  0  0  0  0  0  0  0  0
    9.3113    5.3049   14.4911 C   0  0  0  0  0  0  0  0  0  0  0  0
    9.4607    7.5646   16.0139 C   0  0  0  0  0  0  0  0  0  0  0  0
   10.4192    7.3157   15.0955 C   0  0  0  0  0  0  0  0  0  0  0  0
   10.2489    6.4227   23.0218 N   0  0  0  0  0  0  0  0  0  0  0  0
    7.2472    8.0746   23.5050 C   0  0  0  0  0  0  0  0  0  0  0  0
    9.2051    6.9101   23.4604 C   0  0  0  0  0  0  0  0  0  0  0  0
   11.9646    6.0299   21.4251 C   0  0  0  0  0  0  0  0  0  0  0  0
  1  5  1  0
  1 13  1  0
  2 20  2  0
  2 28  1  0
  2 29  1  0
  3 19  4  0
  3 25  4  0
  4 23  4  0
  4 27  1  0
  4 30  4  0
  5 17  1  0
  6  8  1  0
  6 29  1  0
  7 24  4  0
  7 26  4  0
  8 28  1  0
  9 13  2  0
 10 18  1  0
 10 21  4  0
 10 30  4  0
 11 17  2  0
 12 18  1  0
 13 15  1  0
 14 24  1  0
 15 25  1  0
 16 28  2  0
 17 20  1  0
 19 24  4  0
 20 23  1  0
 21 22  4  0
 22 23  4  0
 25 26  4  0
 27 29  2  0
M  END
$$$$

 Created by Python create_sdf_string function

 30 33  0  0  0  0  0  0  0  0999 V2000
    8.3036    9.8571   18.4133 C   0  0  0  0  0  0  0  0  0  0  0  0
    8.3694    7.6612   22.6703 C   0  0  0  0  0  0  0  0  0  0  0  0
    8.4143    6.6863   16.2273 C   0  0  0  0  0  0  0  0  0  0  0  0
   10.7581    6.5674   21.7636 C   0  0  0  0  0  0  0  0  0  0  0  0
    8.4452    8.7960   19.2958 O   0  0  0  0  0  0  0  0  0  0  0  0
    8.7122    6.7842   24.8569 C   0  0  0  0  0  0  0  0  0  0  0  0
   10.3400    6.1726   14.3081 C   0  0  0  0  0  0  0  0  0  0  0  0
    7.4297    7.5873   24.8962 C   0  0  0  0  0  0  0  0  0  0  0  0
    8.1566   10.0536   16.0516 O   0  0  0  0  0  0  0  0  0  0  0  0
   12.4989    6.2074   20.1776 C   0  0  0  0  0  0  0  0  0  0  0  0
    6.9192    9.1053   20.9073 O   0  0  0  0  0  0  0  0  0  0  0  0
   14.3979    6.0729   18.7784 C   0  0  0  0  0  0  0  0  0  0  0  0
    8.6811    9.5354   16.9998 C   0  0  0  0  0  0  0  0  0  0  0  0
    9.2512    4.2713   13.7653 O   0  0  0  0  0  0  0  0  0  0  0  0
    9.6495    8.6317   16.8332 N   0  0  0  0  0  0  0  0  0  0  0  0
    6.2934    8.6988   23.1988 O   0  0  0  0  0  0  0  0  0  0  0  0
    7.9806    8.6543   20.5437 C   0  0  0  0  0  0  0  0  0  0  0  0
   13.7270    5.7144   19.8610 O   0  0  0  0  0  0  0  0  0  0  0  0
    8.3351    5.5235   15.4478 C   0  0  0  0  0  0  0  0  0  0  0  0
    8.7700    7.8434   21.3915 C   0  0  0  0  0  0  0  0  0  0  0  0
   11.7856    6.8851   19.2401 C   0  0  0  0  0  0  0  0  0  0  0  0
   10.5281    7.4276   19.5649 C   0  0  0  0  0  0  0  0  0  0  0  0
   10.0256    7.2907   20.8484 C   0  0  0  0  0  0  0  0  0  0  0  0
    9.3113    5.3049   14.4911 C   0  0  0  0  0  0  0  0  0  0  0  0
    9.4607    7.5646   16.0139 C   0  0  0  0  0  0  0  0  0  0  0  0
   10.4192    7.3157   15.0955 C   0  0  0  0  0  0  0  0  0  0  0  0
   10.2489    6.4227   23.0218 N   0  0  0  0  0  0  0  0  0  0  0  0
    7.2472    8.0746   23.5050 C   0  0  0  0  0  0  0  0  0  0  0  0
    9.2051    6.9101   23.4604 C   0  0  0  0  0  0  0  0  0  0  0  0
   11.9646    6.0299   21.4251 C   0  0  0  0  0  0  0  0  0  0  0  0
  1  5  1  0
  1 13  1  0
  2 20  2  0
  2 28  1  0
  2 29  1  0
  3 19  4  0
  3 25  4  0
  4 23  4  0
  4 27  1  0
  4 30  4  0
  5 17  1  0
  6  8  1  0
  6 29  1  0
  7 24  4  0
  7 26  4  0
  8 28  1  0
  9 13  2  0
 10 18  1  0
 10 21  4  0
 10 30  4  0
 11 17  2  0
 12 18  1  0
 13 15  1  0
 14 24  1  0
 15 25  1  0
 16 28  2  0
 17 20  1  0
 19 24  4  0
 20 23  1  0
 21 22  4  0
 22 23  4  0
 25 26  4  0
 27 29  2  0
M  END
$$$$

 Created by Python create_sdf_string function

 30 33  0  0  0  0  0  0  0  0999 V2000
    8.3036    9.8571   18.4133 C   0  0  0  0  0  0  0  0  0  0  0  0
    8.3694    7.6612   22.6703 C   0  0  0  0  0  0  0  0  0  0  0  0
    8.4143    6.6863   16.2273 C   0  0  0  0  0  0  0  0  0  0  0  0
   10.7581    6.5674   21.7636 C   0  0  0  0  0  0  0  0  0  0  0  0
    8.4452    8.7960   19.2958 O   0  0  0  0  0  0  0  0  0  0  0  0
    8.7122    6.7842   24.8569 C   0  0  0  0  0  0  0  0  0  0  0  0
   10.3400    6.1726   14.3081 C   0  0  0  0  0  0  0  0  0  0  0  0
    7.4297    7.5873   24.8962 C   0  0  0  0  0  0  0  0  0  0  0  0
    8.1566   10.0536   16.0516 O   0  0  0  0  0  0  0  0  0  0  0  0
   12.4989    6.2074   20.1776 C   0  0  0  0  0  0  0  0  0  0  0  0
    6.9192    9.1053   20.9073 O   0  0  0  0  0  0  0  0  0  0  0  0
   14.3979    6.0729   18.7784 C   0  0  0  0  0  0  0  0  0  0  0  0
    8.6811    9.5354   16.9998 C   0  0  0  0  0  0  0  0  0  0  0  0
    9.2512    4.2713   13.7653 O   0  0  0  0  0  0  0  0  0  0  0  0
    9.6495    8.6317   16.8332 N   0  0  0  0  0  0  0  0  0  0  0  0
    6.2934    8.6988   23.1988 O   0  0  0  0  0  0  0  0  0  0  0  0
    7.9806    8.6543   20.5437 C   0  0  0  0  0  0  0  0  0  0  0  0
   13.7270    5.7144   19.8610 O   0  0  0  0  0  0  0  0  0  0  0  0
    8.3351    5.5235   15.4478 C   0  0  0  0  0  0  0  0  0  0  0  0
    8.7700    7.8434   21.3915 C   0  0  0  0  0  0  0  0  0  0  0  0
   11.7856    6.8851   19.2401 C   0  0  0  0  0  0  0  0  0  0  0  0
   10.5281    7.4276   19.5649 C   0  0  0  0  0  0  0  0  0  0  0  0
   10.0256    7.2907   20.8484 C   0  0  0  0  0  0  0  0  0  0  0  0
    9.3113    5.3049   14.4911 C   0  0  0  0  0  0  0  0  0  0  0  0
    9.4607    7.5646   16.0139 C   0  0  0  0  0  0  0  0  0  0  0  0
   10.4192    7.3157   15.0955 C   0  0  0  0  0  0  0  0  0  0  0  0
   10.2489    6.4227   23.0218 N   0  0  0  0  0  0  0  0  0  0  0  0
    7.2472    8.0746   23.5050 C   0  0  0  0  0  0  0  0  0  0  0  0
    9.2051    6.9101   23.4604 C   0  0  0  0  0  0  0  0  0  0  0  0
   11.9646    6.0299   21.4251 C   0  0  0  0  0  0  0  0  0  0  0  0
  1  5  1  0
  1 13  1  0
  2 20  2  0
  2 28  1  0
  2 29  1  0
  3 19  4  0
  3 25  4  0
  4 23  4  0
  4 27  1  0
  4 30  4  0
  5 17  1  0
  6  8  1  0
  6 29  1  0
  7 24  4  0
  7 26  4  0
  8 28  1  0
  9 13  2  0
 10 18  1  0
 10 21  4  0
 10 30  4  0
 11 17  2  0
 12 18  1  0
 13 15  1  0
 14 24  1  0
 15 25  1  0
 16 28  2  0
 17 20  1  0
 19 24  4  0
 20 23  1  0
 21 22  4  0
 22 23  4  0
 25 26  4  0
 27 29  2  0
M  END
$$$$

 Created by Python create_sdf_string function

 30 33  0  0  0  0  0  0  0  0999 V2000
    8.3036    9.8571   18.4133 C   0  0  0  0  0  0  0  0  0  0  0  0
    8.3694    7.6612   22.6703 C   0  0  0  0  0  0  0  0  0  0  0  0
    8.4143    6.6863   16.2273 C   0  0  0  0  0  0  0  0  0  0  0  0
   10.7581    6.5674   21.7636 C   0  0  0  0  0  0  0  0  0  0  0  0
    8.4452    8.7960   19.2958 O   0  0  0  0  0  0  0  0  0  0  0  0
    8.7122    6.7842   24.8569 C   0  0  0  0  0  0  0  0  0  0  0  0
   10.3400    6.1726   14.3081 C   0  0  0  0  0  0  0  0  0  0  0  0
    7.4297    7.5873   24.8962 C   0  0  0  0  0  0  0  0  0  0  0  0
    8.1566   10.0536   16.0516 O   0  0  0  0  0  0  0  0  0  0  0  0
   12.4989    6.2074   20.1776 C   0  0  0  0  0  0  0  0  0  0  0  0
    6.9192    9.1053   20.9073 O   0  0  0  0  0  0  0  0  0  0  0  0
   14.3979    6.0729   18.7784 C   0  0  0  0  0  0  0  0  0  0  0  0
    8.6811    9.5354   16.9998 C   0  0  0  0  0  0  0  0  0  0  0  0
    9.2512    4.2713   13.7653 O   0  0  0  0  0  0  0  0  0  0  0  0
    9.6495    8.6317   16.8332 N   0  0  0  0  0  0  0  0  0  0  0  0
    6.2934    8.6988   23.1988 O   0  0  0  0  0  0  0  0  0  0  0  0
    7.9806    8.6543   20.5437 C   0  0  0  0  0  0  0  0  0  0  0  0
   13.7270    5.7144   19.8610 O   0  0  0  0  0  0  0  0  0  0  0  0
    8.3351    5.5235   15.4478 C   0  0  0  0  0  0  0  0  0  0  0  0
    8.7700    7.8434   21.3915 C   0  0  0  0  0  0  0  0  0  0  0  0
   11.7856    6.8851   19.2401 C   0  0  0  0  0  0  0  0  0  0  0  0
   10.5281    7.4276   19.5649 C   0  0  0  0  0  0  0  0  0  0  0  0
   10.0256    7.2907   20.8484 C   0  0  0  0  0  0  0  0  0  0  0  0
    9.3113    5.3049   14.4911 C   0  0  0  0  0  0  0  0  0  0  0  0
    9.4607    7.5646   16.0139 C   0  0  0  0  0  0  0  0  0  0  0  0
   10.4192    7.3157   15.0955 C   0  0  0  0  0  0  0  0  0  0  0  0
   10.2489    6.4227   23.0218 N   0  0  0  0  0  0  0  0  0  0  0  0
    7.2472    8.0746   23.5050 C   0  0  0  0  0  0  0  0  0  0  0  0
    9.2051    6.9101   23.4604 C   0  0  0  0  0  0  0  0  0  0  0  0
   11.9646    6.0299   21.4251 C   0  0  0  0  0  0  0  0  0  0  0  0
  1  5  1  0
  1 13  1  0
  2 20  2  0
  2 28  1  0
  2 29  1  0
  3 19  4  0
  3 25  4  0
  4 23  4  0
  4 27  1  0
  4 30  4  0
  5 17  1  0
  6  8  1  0
  6 29  1  0
  7 24  4  0
  7 26  4  0
  8 28  1  0
  9 13  2  0
 10 18  1  0
 10 21  4  0
 10 30  4  0
 11 17  2  0
 12 18  1  0
 13 15  1  0
 14 24  1  0
 15 25  1  0
 16 28  2  0
 17 20  1  0
 19 24  4  0
 20 23  1  0
 21 22  4  0
 22 23  4  0
 25 26  4  0
 27 29  2  0
M  END
$$$$

 Created by Python create_sdf_string function

 30 33  0  0  0  0  0  0  0  0999 V2000
    8.3036    9.8571   18.4133 C   0  0  0  0  0  0  0  0  0  0  0  0
    8.3694    7.6612   22.6703 C   0  0  0  0  0  0  0  0  0  0  0  0
    8.4143    6.6863   16.2273 C   0  0  0  0  0  0  0  0  0  0  0  0
   10.7581    6.5674   21.7636 C   0  0  0  0  0  0  0  0  0  0  0  0
    8.4452    8.7960   19.2958 O   0  0  0  0  0  0  0  0  0  0  0  0
    8.7122    6.7842   24.8569 C   0  0  0  0  0  0  0  0  0  0  0  0
   10.3400    6.1726   14.3081 C   0  0  0  0  0  0  0  0  0  0  0  0
    7.4297    7.5873   24.8962 C   0  0  0  0  0  0  0  0  0  0  0  0
    8.1566   10.0536   16.0516 O   0  0  0  0  0  0  0  0  0  0  0  0
   12.4989    6.2074   20.1776 C   0  0  0  0  0  0  0  0  0  0  0  0
    6.9192    9.1053   20.9073 O   0  0  0  0  0  0  0  0  0  0  0  0
   14.3979    6.0729   18.7784 C   0  0  0  0  0  0  0  0  0  0  0  0
    8.6811    9.5354   16.9998 C   0  0  0  0  0  0  0  0  0  0  0  0
    9.2512    4.2713   13.7653 O   0  0  0  0  0  0  0  0  0  0  0  0
    9.6495    8.6317   16.8332 N   0  0  0  0  0  0  0  0  0  0  0  0
    6.2934    8.6988   23.1988 O   0  0  0  0  0  0  0  0  0  0  0  0
    7.9806    8.6543   20.5437 C   0  0  0  0  0  0  0  0  0  0  0  0
   13.7270    5.7144   19.8610 O   0  0  0  0  0  0  0  0  0  0  0  0
    8.3351    5.5235   15.4478 C   0  0  0  0  0  0  0  0  0  0  0  0
    8.7700    7.8434   21.3915 C   0  0  0  0  0  0  0  0  0  0  0  0
   11.7856    6.8851   19.2401 C   0  0  0  0  0  0  0  0  0  0  0  0
   10.5281    7.4276   19.5649 C   0  0  0  0  0  0  0  0  0  0  0  0
   10.0256    7.2907   20.8484 C   0  0  0  0  0  0  0  0  0  0  0  0
    9.3113    5.3049   14.4911 C   0  0  0  0  0  0  0  0  0  0  0  0
    9.4607    7.5646   16.0139 C   0  0  0  0  0  0  0  0  0  0  0  0
   10.4192    7.3157   15.0955 C   0  0  0  0  0  0  0  0  0  0  0  0
   10.2489    6.4227   23.0218 N   0  0  0  0  0  0  0  0  0  0  0  0
    7.2472    8.0746   23.5050 C   0  0  0  0  0  0  0  0  0  0  0  0
    9.2051    6.9101   23.4604 C   0  0  0  0  0  0  0  0  0  0  0  0
   11.9646    6.0299   21.4251 C   0  0  0  0  0  0  0  0  0  0  0  0
  1  5  1  0
  1 13  1  0
  2 20  2  0
  2 28  1  0
  2 29  1  0
  3 19  4  0
  3 25  4  0
  4 23  4  0
  4 27  1  0
  4 30  4  0
  5 17  1  0
  6  8  1  0
  6 29  1  0
  7 24  4  0
  7 26  4  0
  8 28  1  0
  9 13  2  0
 10 18  1  0
 10 21  4  0
 10 30  4  0
 11 17  2  0
 12 18  1  0
 13 15  1  0
 14 24  1  0
 15 25  1  0
 16 28  2  0
 17 20  1  0
 19 24  4  0
 20 23  1  0
 21 22  4  0
 22 23  4  0
 25 26  4  0
 27 29  2  0
M  END
$$$$

 Created by Python create_sdf_string function

 30 33  0  0  0  0  0  0  0  0999 V2000
    8.3036    9.8571   18.4133 C   0  0  0  0  0  0  0  0  0  0  0  0
    8.3694    7.6612   22.6703 C   0  0  0  0  0  0  0  0  0  0  0  0
    8.4143    6.6863   16.2273 C   0  0  0  0  0  0  0  0  0  0  0  0
   10.7581    6.5674   21.7636 C   0  0  0  0  0  0  0  0  0  0  0  0
    8.4452    8.7960   19.2958 O   0  0  0  0  0  0  0  0  0  0  0  0
    8.7122    6.7842   24.8569 C   0  0  0  0  0  0  0  0  0  0  0  0
   10.3400    6.1726   14.3081 C   0  0  0  0  0  0  0  0  0  0  0  0
    7.4297    7.5873   24.8962 C   0  0  0  0  0  0  0  0  0  0  0  0
    8.1566   10.0536   16.0516 O   0  0  0  0  0  0  0  0  0  0  0  0
   12.4989    6.2074   20.1776 C   0  0  0  0  0  0  0  0  0  0  0  0
    6.9192    9.1053   20.9073 O   0  0  0  0  0  0  0  0  0  0  0  0
   14.3979    6.0729   18.7784 C   0  0  0  0  0  0  0  0  0  0  0  0
    8.6811    9.5354   16.9998 C   0  0  0  0  0  0  0  0  0  0  0  0
    9.2512    4.2713   13.7653 O   0  0  0  0  0  0  0  0  0  0  0  0
    9.6495    8.6317   16.8332 N   0  0  0  0  0  0  0  0  0  0  0  0
    6.2934    8.6988   23.1988 O   0  0  0  0  0  0  0  0  0  0  0  0
    7.9806    8.6543   20.5437 C   0  0  0  0  0  0  0  0  0  0  0  0
   13.7270    5.7144   19.8610 O   0  0  0  0  0  0  0  0  0  0  0  0
    8.3351    5.5235   15.4478 C   0  0  0  0  0  0  0  0  0  0  0  0
    8.7700    7.8434   21.3915 C   0  0  0  0  0  0  0  0  0  0  0  0
   11.7856    6.8851   19.2401 C   0  0  0  0  0  0  0  0  0  0  0  0
   10.5281    7.4276   19.5649 C   0  0  0  0  0  0  0  0  0  0  0  0
   10.0256    7.2907   20.8484 C   0  0  0  0  0  0  0  0  0  0  0  0
    9.3113    5.3049   14.4911 C   0  0  0  0  0  0  0  0  0  0  0  0
    9.4607    7.5646   16.0139 C   0  0  0  0  0  0  0  0  0  0  0  0
   10.4192    7.3157   15.0955 C   0  0  0  0  0  0  0  0  0  0  0  0
   10.2489    6.4227   23.0218 N   0  0  0  0  0  0  0  0  0  0  0  0
    7.2472    8.0746   23.5050 C   0  0  0  0  0  0  0  0  0  0  0  0
    9.2051    6.9101   23.4604 C   0  0  0  0  0  0  0  0  0  0  0  0
   11.9646    6.0299   21.4251 C   0  0  0  0  0  0  0  0  0  0  0  0
  1  5  1  0
  1 13  1  0
  2 20  2  0
  2 28  1  0
  2 29  1  0
  3 19  4  0
  3 25  4  0
  4 23  4  0
  4 27  1  0
  4 30  4  0
  5 17  1  0
  6  8  1  0
  6 29  1  0
  7 24  4  0
  7 26  4  0
  8 28  1  0
  9 13  2  0
 10 18  1  0
 10 21  4  0
 10 30  4  0
 11 17  2  0
 12 18  1  0
 13 15  1  0
 14 24  1  0
 15 25  1  0
 16 28  2  0
 17 20  1  0
 19 24  4  0
 20 23  1  0
 21 22  4  0
 22 23  4  0
 25 26  4  0
 27 29  2  0
M  END
$$$$

 Created by Python create_sdf_string function

 30 33  0  0  0  0  0  0  0  0999 V2000
    8.3036    9.8571   18.4133 C   0  0  0  0  0  0  0  0  0  0  0  0
    8.3694    7.6612   22.6703 C   0  0  0  0  0  0  0  0  0  0  0  0
    8.4143    6.6863   16.2273 C   0  0  0  0  0  0  0  0  0  0  0  0
   10.7581    6.5674   21.7636 C   0  0  0  0  0  0  0  0  0  0  0  0
    8.4452    8.7960   19.2958 O   0  0  0  0  0  0  0  0  0  0  0  0
    8.7122    6.7842   24.8569 C   0  0  0  0  0  0  0  0  0  0  0  0
   10.3400    6.1726   14.3081 C   0  0  0  0  0  0  0  0  0  0  0  0
    7.4297    7.5873   24.8962 C   0  0  0  0  0  0  0  0  0  0  0  0
    8.1566   10.0536   16.0516 O   0  0  0  0  0  0  0  0  0  0  0  0
   12.4989    6.2074   20.1776 C   0  0  0  0  0  0  0  0  0  0  0  0
    6.9192    9.1053   20.9073 O   0  0  0  0  0  0  0  0  0  0  0  0
   14.3979    6.0729   18.7784 C   0  0  0  0  0  0  0  0  0  0  0  0
    8.6811    9.5354   16.9998 C   0  0  0  0  0  0  0  0  0  0  0  0
    9.2512    4.2713   13.7653 O   0  0  0  0  0  0  0  0  0  0  0  0
    9.6495    8.6317   16.8332 N   0  0  0  0  0  0  0  0  0  0  0  0
    6.2934    8.6988   23.1988 O   0  0  0  0  0  0  0  0  0  0  0  0
    7.9806    8.6543   20.5437 C   0  0  0  0  0  0  0  0  0  0  0  0
   13.7270    5.7144   19.8610 O   0  0  0  0  0  0  0  0  0  0  0  0
    8.3351    5.5235   15.4478 C   0  0  0  0  0  0  0  0  0  0  0  0
    8.7700    7.8434   21.3915 C   0  0  0  0  0  0  0  0  0  0  0  0
   11.7856    6.8851   19.2401 C   0  0  0  0  0  0  0  0  0  0  0  0
   10.5281    7.4276   19.5649 C   0  0  0  0  0  0  0  0  0  0  0  0
   10.0256    7.2907   20.8484 C   0  0  0  0  0  0  0  0  0  0  0  0
    9.3113    5.3049   14.4911 C   0  0  0  0  0  0  0  0  0  0  0  0
    9.4607    7.5646   16.0139 C   0  0  0  0  0  0  0  0  0  0  0  0
   10.4192    7.3157   15.0955 C   0  0  0  0  0  0  0  0  0  0  0  0
   10.2489    6.4227   23.0218 N   0  0  0  0  0  0  0  0  0  0  0  0
    7.2472    8.0746   23.5050 C   0  0  0  0  0  0  0  0  0  0  0  0
    9.2051    6.9101   23.4604 C   0  0  0  0  0  0  0  0  0  0  0  0
   11.9646    6.0299   21.4251 C   0  0  0  0  0  0  0  0  0  0  0  0
  1  5  1  0
  1 13  1  0
  2 20  2  0
  2 28  1  0
  2 29  1  0
  3 19  4  0
  3 25  4  0
  4 23  4  0
  4 27  1  0
  4 30  4  0
  5 17  1  0
  6  8  1  0
  6 29  1  0
  7 24  4  0
  7 26  4  0
  8 28  1  0
  9 13  2  0
 10 18  1  0
 10 21  4  0
 10 30  4  0
 11 17  2  0
 12 18  1  0
 13 15  1  0
 14 24  1  0
 15 25  1  0
 16 28  2  0
 17 20  1  0
 19 24  4  0
 20 23  1  0
 21 22  4  0
 22 23  4  0
 25 26  4  0
 27 29  2  0
M  END
$$$$

 Created by Python create_sdf_string function

 30 33  0  0  0  0  0  0  0  0999 V2000
    8.3036    9.8571   18.4133 C   0  0  0  0  0  0  0  0  0  0  0  0
    8.3694    7.6612   22.6703 C   0  0  0  0  0  0  0  0  0  0  0  0
    8.4143    6.6863   16.2273 C   0  0  0  0  0  0  0  0  0  0  0  0
   10.7581    6.5674   21.7636 C   0  0  0  0  0  0  0  0  0  0  0  0
    8.4452    8.7960   19.2958 O   0  0  0  0  0  0  0  0  0  0  0  0
    8.7122    6.7842   24.8569 C   0  0  0  0  0  0  0  0  0  0  0  0
   10.3400    6.1726   14.3081 C   0  0  0  0  0  0  0  0  0  0  0  0
    7.4297    7.5873   24.8962 C   0  0  0  0  0  0  0  0  0  0  0  0
    8.1566   10.0536   16.0516 O   0  0  0  0  0  0  0  0  0  0  0  0
   12.4989    6.2074   20.1776 C   0  0  0  0  0  0  0  0  0  0  0  0
    6.9192    9.1053   20.9073 O   0  0  0  0  0  0  0  0  0  0  0  0
   14.3979    6.0729   18.7784 C   0  0  0  0  0  0  0  0  0  0  0  0
    8.6811    9.5354   16.9998 C   0  0  0  0  0  0  0  0  0  0  0  0
    9.2512    4.2713   13.7653 O   0  0  0  0  0  0  0  0  0  0  0  0
    9.6495    8.6317   16.8332 N   0  0  0  0  0  0  0  0  0  0  0  0
    6.2934    8.6988   23.1988 O   0  0  0  0  0  0  0  0  0  0  0  0
    7.9806    8.6543   20.5437 C   0  0  0  0  0  0  0  0  0  0  0  0
   13.7270    5.7144   19.8610 O   0  0  0  0  0  0  0  0  0  0  0  0
    8.3351    5.5235   15.4478 C   0  0  0  0  0  0  0  0  0  0  0  0
    8.7700    7.8434   21.3915 C   0  0  0  0  0  0  0  0  0  0  0  0
   11.7856    6.8851   19.2401 C   0  0  0  0  0  0  0  0  0  0  0  0
   10.5281    7.4276   19.5649 C   0  0  0  0  0  0  0  0  0  0  0  0
   10.0256    7.2907   20.8484 C   0  0  0  0  0  0  0  0  0  0  0  0
    9.3113    5.3049   14.4911 C   0  0  0  0  0  0  0  0  0  0  0  0
    9.4607    7.5646   16.0139 C   0  0  0  0  0  0  0  0  0  0  0  0
   10.4192    7.3157   15.0955 C   0  0  0  0  0  0  0  0  0  0  0  0
   10.2489    6.4227   23.0218 N   0  0  0  0  0  0  0  0  0  0  0  0
    7.2472    8.0746   23.5050 C   0  0  0  0  0  0  0  0  0  0  0  0
    9.2051    6.9101   23.4604 C   0  0  0  0  0  0  0  0  0  0  0  0
   11.9646    6.0299   21.4251 C   0  0  0  0  0  0  0  0  0  0  0  0
  1  5  1  0
  1 13  1  0
  2 20  2  0
  2 28  1  0
  2 29  1  0
  3 19  4  0
  3 25  4  0
  4 23  4  0
  4 27  1  0
  4 30  4  0
  5 17  1  0
  6  8  1  0
  6 29  1  0
  7 24  4  0
  7 26  4  0
  8 28  1  0
  9 13  2  0
 10 18  1  0
 10 21  4  0
 10 30  4  0
 11 17  2  0
 12 18  1  0
 13 15  1  0
 14 24  1  0
 15 25  1  0
 16 28  2  0
 17 20  1  0
 19 24  4  0
 20 23  1  0
 21 22  4  0
 22 23  4  0
 25 26  4  0
 27 29  2  0
M  END
$$$$

 Created by Python create_sdf_string function

 30 33  0  0  0  0  0  0  0  0999 V2000
    8.3036    9.8571   18.4133 C   0  0  0  0  0  0  0  0  0  0  0  0
    8.3694    7.6612   22.6703 C   0  0  0  0  0  0  0  0  0  0  0  0
    8.4143    6.6863   16.2273 C   0  0  0  0  0  0  0  0  0  0  0  0
   10.7581    6.5674   21.7636 C   0  0  0  0  0  0  0  0  0  0  0  0
    8.4452    8.7960   19.2958 O   0  0  0  0  0  0  0  0  0  0  0  0
    8.7122    6.7842   24.8569 C   0  0  0  0  0  0  0  0  0  0  0  0
   10.3400    6.1726   14.3081 C   0  0  0  0  0  0  0  0  0  0  0  0
    7.4297    7.5873   24.8962 C   0  0  0  0  0  0  0  0  0  0  0  0
    8.1566   10.0536   16.0516 O   0  0  0  0  0  0  0  0  0  0  0  0
   12.4989    6.2074   20.1776 C   0  0  0  0  0  0  0  0  0  0  0  0
    6.9192    9.1053   20.9073 O   0  0  0  0  0  0  0  0  0  0  0  0
   14.3979    6.0729   18.7784 C   0  0  0  0  0  0  0  0  0  0  0  0
    8.6811    9.5354   16.9998 C   0  0  0  0  0  0  0  0  0  0  0  0
    9.2512    4.2713   13.7653 O   0  0  0  0  0  0  0  0  0  0  0  0
    9.6495    8.6317   16.8332 N   0  0  0  0  0  0  0  0  0  0  0  0
    6.2934    8.6988   23.1988 O   0  0  0  0  0  0  0  0  0  0  0  0
    7.9806    8.6543   20.5437 C   0  0  0  0  0  0  0  0  0  0  0  0
   13.7270    5.7144   19.8610 O   0  0  0  0  0  0  0  0  0  0  0  0
    8.3351    5.5235   15.4478 C   0  0  0  0  0  0  0  0  0  0  0  0
    8.7700    7.8434   21.3915 C   0  0  0  0  0  0  0  0  0  0  0  0
   11.7856    6.8851   19.2401 C   0  0  0  0  0  0  0  0  0  0  0  0
   10.5281    7.4276   19.5649 C   0  0  0  0  0  0  0  0  0  0  0  0
   10.0256    7.2907   20.8484 C   0  0  0  0  0  0  0  0  0  0  0  0
    9.3113    5.3049   14.4911 C   0  0  0  0  0  0  0  0  0  0  0  0
    9.4607    7.5646   16.0139 C   0  0  0  0  0  0  0  0  0  0  0  0
   10.4192    7.3157   15.0955 C   0  0  0  0  0  0  0  0  0  0  0  0
   10.2489    6.4227   23.0218 N   0  0  0  0  0  0  0  0  0  0  0  0
    7.2472    8.0746   23.5050 C   0  0  0  0  0  0  0  0  0  0  0  0
    9.2051    6.9101   23.4604 C   0  0  0  0  0  0  0  0  0  0  0  0
   11.9646    6.0299   21.4251 C   0  0  0  0  0  0  0  0  0  0  0  0
  1  5  1  0
  1 13  1  0
  2 20  2  0
  2 28  1  0
  2 29  1  0
  3 19  4  0
  3 25  4  0
  4 23  4  0
  4 27  1  0
  4 30  4  0
  5 17  1  0
  6  8  1  0
  6 29  1  0
  7 24  4  0
  7 26  4  0
  8 28  1  0
  9 13  2  0
 10 18  1  0
 10 21  4  0
 10 30  4  0
 11 17  2  0
 12 18  1  0
 13 15  1  0
 14 24  1  0
 15 25  1  0
 16 28  2  0
 17 20  1  0
 19 24  4  0
 20 23  1  0
 21 22  4  0
 22 23  4  0
 25 26  4  0
 27 29  2  0
M  END
$$$$

 Created by Python create_sdf_string function

 30 33  0  0  0  0  0  0  0  0999 V2000
    8.3036    9.8571   18.4133 C   0  0  0  0  0  0  0  0  0  0  0  0
    8.3694    7.6612   22.6703 C   0  0  0  0  0  0  0  0  0  0  0  0
    8.4143    6.6863   16.2273 C   0  0  0  0  0  0  0  0  0  0  0  0
   10.7581    6.5674   21.7636 C   0  0  0  0  0  0  0  0  0  0  0  0
    8.4452    8.7960   19.2958 O   0  0  0  0  0  0  0  0  0  0  0  0
    8.7122    6.7842   24.8569 C   0  0  0  0  0  0  0  0  0  0  0  0
   10.3400    6.1726   14.3081 C   0  0  0  0  0  0  0  0  0  0  0  0
    7.4297    7.5873   24.8962 C   0  0  0  0  0  0  0  0  0  0  0  0
    8.1566   10.0536   16.0516 O   0  0  0  0  0  0  0  0  0  0  0  0
   12.4989    6.2074   20.1776 C   0  0  0  0  0  0  0  0  0  0  0  0
    6.9192    9.1053   20.9073 O   0  0  0  0  0  0  0  0  0  0  0  0
   14.3979    6.0729   18.7784 C   0  0  0  0  0  0  0  0  0  0  0  0
    8.6811    9.5354   16.9998 C   0  0  0  0  0  0  0  0  0  0  0  0
    9.2512    4.2713   13.7653 O   0  0  0  0  0  0  0  0  0  0  0  0
    9.6495    8.6317   16.8332 N   0  0  0  0  0  0  0  0  0  0  0  0
    6.2934    8.6988   23.1988 O   0  0  0  0  0  0  0  0  0  0  0  0
    7.9806    8.6543   20.5437 C   0  0  0  0  0  0  0  0  0  0  0  0
   13.7270    5.7144   19.8610 O   0  0  0  0  0  0  0  0  0  0  0  0
    8.3351    5.5235   15.4478 C   0  0  0  0  0  0  0  0  0  0  0  0
    8.7700    7.8434   21.3915 C   0  0  0  0  0  0  0  0  0  0  0  0
   11.7856    6.8851   19.2401 C   0  0  0  0  0  0  0  0  0  0  0  0
   10.5281    7.4276   19.5649 C   0  0  0  0  0  0  0  0  0  0  0  0
   10.0256    7.2907   20.8484 C   0  0  0  0  0  0  0  0  0  0  0  0
    9.3113    5.3049   14.4911 C   0  0  0  0  0  0  0  0  0  0  0  0
    9.4607    7.5646   16.0139 C   0  0  0  0  0  0  0  0  0  0  0  0
   10.4192    7.3157   15.0955 C   0  0  0  0  0  0  0  0  0  0  0  0
   10.2489    6.4227   23.0218 N   0  0  0  0  0  0  0  0  0  0  0  0
    7.2472    8.0746   23.5050 C   0  0  0  0  0  0  0  0  0  0  0  0
    9.2051    6.9101   23.4604 C   0  0  0  0  0  0  0  0  0  0  0  0
   11.9646    6.0299   21.4251 C   0  0  0  0  0  0  0  0  0  0  0  0
  1  5  1  0
  1 13  1  0
  2 20  2  0
  2 28  1  0
  2 29  1  0
  3 19  4  0
  3 25  4  0
  4 23  4  0
  4 27  1  0
  4 30  4  0
  5 17  1  0
  6  8  1  0
  6 29  1  0
  7 24  4  0
  7 26  4  0
  8 28  1  0
  9 13  2  0
 10 18  1  0
 10 21  4  0
 10 30  4  0
 11 17  2  0
 12 18  1  0
 13 15  1  0
 14 24  1  0
 15 25  1  0
 16 28  2  0
 17 20  1  0
 19 24  4  0
 20 23  1  0
 21 22  4  0
 22 23  4  0
 25 26  4  0
 27 29  2  0
M  END
$$$$

 Created by Python create_sdf_string function

 30 33  0  0  0  0  0  0  0  0999 V2000
    8.3036    9.8571   18.4133 C   0  0  0  0  0  0  0  0  0  0  0  0
    8.3694    7.6612   22.6703 C   0  0  0  0  0  0  0  0  0  0  0  0
    8.4143    6.6863   16.2273 C   0  0  0  0  0  0  0  0  0  0  0  0
   10.7581    6.5674   21.7636 C   0  0  0  0  0  0  0  0  0  0  0  0
    8.4452    8.7960   19.2958 O   0  0  0  0  0  0  0  0  0  0  0  0
    8.7122    6.7842   24.8569 C   0  0  0  0  0  0  0  0  0  0  0  0
   10.3400    6.1726   14.3081 C   0  0  0  0  0  0  0  0  0  0  0  0
    7.4297    7.5873   24.8962 C   0  0  0  0  0  0  0  0  0  0  0  0
    8.1566   10.0536   16.0516 O   0  0  0  0  0  0  0  0  0  0  0  0
   12.4989    6.2074   20.1776 C   0  0  0  0  0  0  0  0  0  0  0  0
    6.9192    9.1053   20.9073 O   0  0  0  0  0  0  0  0  0  0  0  0
   14.3979    6.0729   18.7784 C   0  0  0  0  0  0  0  0  0  0  0  0
    8.6811    9.5354   16.9998 C   0  0  0  0  0  0  0  0  0  0  0  0
    9.2512    4.2713   13.7653 O   0  0  0  0  0  0  0  0  0  0  0  0
    9.6495    8.6317   16.8332 N   0  0  0  0  0  0  0  0  0  0  0  0
    6.2934    8.6988   23.1988 O   0  0  0  0  0  0  0  0  0  0  0  0
    7.9806    8.6543   20.5437 C   0  0  0  0  0  0  0  0  0  0  0  0
   13.7270    5.7144   19.8610 O   0  0  0  0  0  0  0  0  0  0  0  0
    8.3351    5.5235   15.4478 C   0  0  0  0  0  0  0  0  0  0  0  0
    8.7700    7.8434   21.3915 C   0  0  0  0  0  0  0  0  0  0  0  0
   11.7856    6.8851   19.2401 C   0  0  0  0  0  0  0  0  0  0  0  0
   10.5281    7.4276   19.5649 C   0  0  0  0  0  0  0  0  0  0  0  0
   10.0256    7.2907   20.8484 C   0  0  0  0  0  0  0  0  0  0  0  0
    9.3113    5.3049   14.4911 C   0  0  0  0  0  0  0  0  0  0  0  0
    9.4607    7.5646   16.0139 C   0  0  0  0  0  0  0  0  0  0  0  0
   10.4192    7.3157   15.0955 C   0  0  0  0  0  0  0  0  0  0  0  0
   10.2489    6.4227   23.0218 N   0  0  0  0  0  0  0  0  0  0  0  0
    7.2472    8.0746   23.5050 C   0  0  0  0  0  0  0  0  0  0  0  0
    9.2051    6.9101   23.4604 C   0  0  0  0  0  0  0  0  0  0  0  0
   11.9646    6.0299   21.4251 C   0  0  0  0  0  0  0  0  0  0  0  0
  1  5  1  0
  1 13  1  0
  2 20  2  0
  2 28  1  0
  2 29  1  0
  3 19  4  0
  3 25  4  0
  4 23  4  0
  4 27  1  0
  4 30  4  0
  5 17  1  0
  6  8  1  0
  6 29  1  0
  7 24  4  0
  7 26  4  0
  8 28  1  0
  9 13  2  0
 10 18  1  0
 10 21  4  0
 10 30  4  0
 11 17  2  0
 12 18  1  0
 13 15  1  0
 14 24  1  0
 15 25  1  0
 16 28  2  0
 17 20  1  0
 19 24  4  0
 20 23  1  0
 21 22  4  0
 22 23  4  0
 25 26  4  0
 27 29  2  0
M  END
$$$$

 Created by Python create_sdf_string function

 30 33  0  0  0  0  0  0  0  0999 V2000
    8.3036    9.8571   18.4133 C   0  0  0  0  0  0  0  0  0  0  0  0
    8.3694    7.6612   22.6703 C   0  0  0  0  0  0  0  0  0  0  0  0
    8.4143    6.6863   16.2273 C   0  0  0  0  0  0  0  0  0  0  0  0
   10.7581    6.5674   21.7636 C   0  0  0  0  0  0  0  0  0  0  0  0
    8.4452    8.7960   19.2958 O   0  0  0  0  0  0  0  0  0  0  0  0
    8.7122    6.7842   24.8569 C   0  0  0  0  0  0  0  0  0  0  0  0
   10.3400    6.1726   14.3081 C   0  0  0  0  0  0  0  0  0  0  0  0
    7.4297    7.5873   24.8962 C   0  0  0  0  0  0  0  0  0  0  0  0
    8.1566   10.0536   16.0516 O   0  0  0  0  0  0  0  0  0  0  0  0
   12.4989    6.2074   20.1776 C   0  0  0  0  0  0  0  0  0  0  0  0
    6.9192    9.1053   20.9073 O   0  0  0  0  0  0  0  0  0  0  0  0
   14.3979    6.0729   18.7784 C   0  0  0  0  0  0  0  0  0  0  0  0
    8.6811    9.5354   16.9998 C   0  0  0  0  0  0  0  0  0  0  0  0
    9.2512    4.2713   13.7653 O   0  0  0  0  0  0  0  0  0  0  0  0
    9.6495    8.6317   16.8332 N   0  0  0  0  0  0  0  0  0  0  0  0
    6.2934    8.6988   23.1988 O   0  0  0  0  0  0  0  0  0  0  0  0
    7.9806    8.6543   20.5437 C   0  0  0  0  0  0  0  0  0  0  0  0
   13.7270    5.7144   19.8610 O   0  0  0  0  0  0  0  0  0  0  0  0
    8.3351    5.5235   15.4478 C   0  0  0  0  0  0  0  0  0  0  0  0
    8.7700    7.8434   21.3915 C   0  0  0  0  0  0  0  0  0  0  0  0
   11.7856    6.8851   19.2401 C   0  0  0  0  0  0  0  0  0  0  0  0
   10.5281    7.4276   19.5649 C   0  0  0  0  0  0  0  0  0  0  0  0
   10.0256    7.2907   20.8484 C   0  0  0  0  0  0  0  0  0  0  0  0
    9.3113    5.3049   14.4911 C   0  0  0  0  0  0  0  0  0  0  0  0
    9.4607    7.5646   16.0139 C   0  0  0  0  0  0  0  0  0  0  0  0
   10.4192    7.3157   15.0955 C   0  0  0  0  0  0  0  0  0  0  0  0
   10.2489    6.4227   23.0218 N   0  0  0  0  0  0  0  0  0  0  0  0
    7.2472    8.0746   23.5050 C   0  0  0  0  0  0  0  0  0  0  0  0
    9.2051    6.9101   23.4604 C   0  0  0  0  0  0  0  0  0  0  0  0
   11.9646    6.0299   21.4251 C   0  0  0  0  0  0  0  0  0  0  0  0
  1  5  1  0
  1 13  1  0
  2 20  2  0
  2 28  1  0
  2 29  1  0
  3 19  4  0
  3 25  4  0
  4 23  4  0
  4 27  1  0
  4 30  4  0
  5 17  1  0
  6  8  1  0
  6 29  1  0
  7 24  4  0
  7 26  4  0
  8 28  1  0
  9 13  2  0
 10 18  1  0
 10 21  4  0
 10 30  4  0
 11 17  2  0
 12 18  1  0
 13 15  1  0
 14 24  1  0
 15 25  1  0
 16 28  2  0
 17 20  1  0
 19 24  4  0
 20 23  1  0
 21 22  4  0
 22 23  4  0
 25 26  4  0
 27 29  2  0
M  END
$$$$

 Created by Python create_sdf_string function

 30 33  0  0  0  0  0  0  0  0999 V2000
    8.3036    9.8571   18.4133 C   0  0  0  0  0  0  0  0  0  0  0  0
    8.3694    7.6612   22.6703 C   0  0  0  0  0  0  0  0  0  0  0  0
    8.4143    6.6863   16.2273 C   0  0  0  0  0  0  0  0  0  0  0  0
   10.7581    6.5674   21.7636 C   0  0  0  0  0  0  0  0  0  0  0  0
    8.4452    8.7960   19.2958 O   0  0  0  0  0  0  0  0  0  0  0  0
    8.7122    6.7842   24.8569 C   0  0  0  0  0  0  0  0  0  0  0  0
   10.3400    6.1726   14.3081 C   0  0  0  0  0  0  0  0  0  0  0  0
    7.4297    7.5873   24.8962 C   0  0  0  0  0  0  0  0  0  0  0  0
    8.1566   10.0536   16.0516 O   0  0  0  0  0  0  0  0  0  0  0  0
   12.4989    6.2074   20.1776 C   0  0  0  0  0  0  0  0  0  0  0  0
    6.9192    9.1053   20.9073 O   0  0  0  0  0  0  0  0  0  0  0  0
   14.3979    6.0729   18.7784 C   0  0  0  0  0  0  0  0  0  0  0  0
    8.6811    9.5354   16.9998 C   0  0  0  0  0  0  0  0  0  0  0  0
    9.2512    4.2713   13.7653 O   0  0  0  0  0  0  0  0  0  0  0  0
    9.6495    8.6317   16.8332 N   0  0  0  0  0  0  0  0  0  0  0  0
    6.2934    8.6988   23.1988 O   0  0  0  0  0  0  0  0  0  0  0  0
    7.9806    8.6543   20.5437 C   0  0  0  0  0  0  0  0  0  0  0  0
   13.7270    5.7144   19.8610 O   0  0  0  0  0  0  0  0  0  0  0  0
    8.3351    5.5235   15.4478 C   0  0  0  0  0  0  0  0  0  0  0  0
    8.7700    7.8434   21.3915 C   0  0  0  0  0  0  0  0  0  0  0  0
   11.7856    6.8851   19.2401 C   0  0  0  0  0  0  0  0  0  0  0  0
   10.5281    7.4276   19.5649 C   0  0  0  0  0  0  0  0  0  0  0  0
   10.0256    7.2907   20.8484 C   0  0  0  0  0  0  0  0  0  0  0  0
    9.3113    5.3049   14.4911 C   0  0  0  0  0  0  0  0  0  0  0  0
    9.4607    7.5646   16.0139 C   0  0  0  0  0  0  0  0  0  0  0  0
   10.4192    7.3157   15.0955 C   0  0  0  0  0  0  0  0  0  0  0  0
   10.2489    6.4227   23.0218 N   0  0  0  0  0  0  0  0  0  0  0  0
    7.2472    8.0746   23.5050 C   0  0  0  0  0  0  0  0  0  0  0  0
    9.2051    6.9101   23.4604 C   0  0  0  0  0  0  0  0  0  0  0  0
   11.9646    6.0299   21.4251 C   0  0  0  0  0  0  0  0  0  0  0  0
  1  5  1  0
  1 13  1  0
  2 20  2  0
  2 28  1  0
  2 29  1  0
  3 19  4  0
  3 25  4  0
  4 23  4  0
  4 27  1  0
  4 30  4  0
  5 17  1  0
  6  8  1  0
  6 29  1  0
  7 24  4  0
  7 26  4  0
  8 28  1  0
  9 13  2  0
 10 18  1  0
 10 21  4  0
 10 30  4  0
 11 17  2  0
 12 18  1  0
 13 15  1  0
 14 24  1  0
 15 25  1  0
 16 28  2  0
 17 20  1  0
 19 24  4  0
 20 23  1  0
 21 22  4  0
 22 23  4  0
 25 26  4  0
 27 29  2  0
M  END
$$$$

 Created by Python create_sdf_string function

 30 33  0  0  0  0  0  0  0  0999 V2000
    8.3036    9.8571   18.4133 C   0  0  0  0  0  0  0  0  0  0  0  0
    8.3694    7.6612   22.6703 C   0  0  0  0  0  0  0  0  0  0  0  0
    8.4143    6.6863   16.2273 C   0  0  0  0  0  0  0  0  0  0  0  0
   10.7581    6.5674   21.7636 C   0  0  0  0  0  0  0  0  0  0  0  0
    8.4452    8.7960   19.2958 O   0  0  0  0  0  0  0  0  0  0  0  0
    8.7122    6.7842   24.8569 C   0  0  0  0  0  0  0  0  0  0  0  0
   10.3400    6.1726   14.3081 C   0  0  0  0  0  0  0  0  0  0  0  0
    7.4297    7.5873   24.8962 C   0  0  0  0  0  0  0  0  0  0  0  0
    8.1566   10.0536   16.0516 O   0  0  0  0  0  0  0  0  0  0  0  0
   12.4989    6.2074   20.1776 C   0  0  0  0  0  0  0  0  0  0  0  0
    6.9192    9.1053   20.9073 O   0  0  0  0  0  0  0  0  0  0  0  0
   14.3979    6.0729   18.7784 C   0  0  0  0  0  0  0  0  0  0  0  0
    8.6811    9.5354   16.9998 C   0  0  0  0  0  0  0  0  0  0  0  0
    9.2512    4.2713   13.7653 O   0  0  0  0  0  0  0  0  0  0  0  0
    9.6495    8.6317   16.8332 N   0  0  0  0  0  0  0  0  0  0  0  0
    6.2934    8.6988   23.1988 O   0  0  0  0  0  0  0  0  0  0  0  0
    7.9806    8.6543   20.5437 C   0  0  0  0  0  0  0  0  0  0  0  0
   13.7270    5.7144   19.8610 O   0  0  0  0  0  0  0  0  0  0  0  0
    8.3351    5.5235   15.4478 C   0  0  0  0  0  0  0  0  0  0  0  0
    8.7700    7.8434   21.3915 C   0  0  0  0  0  0  0  0  0  0  0  0
   11.7856    6.8851   19.2401 C   0  0  0  0  0  0  0  0  0  0  0  0
   10.5281    7.4276   19.5649 C   0  0  0  0  0  0  0  0  0  0  0  0
   10.0256    7.2907   20.8484 C   0  0  0  0  0  0  0  0  0  0  0  0
    9.3113    5.3049   14.4911 C   0  0  0  0  0  0  0  0  0  0  0  0
    9.4607    7.5646   16.0139 C   0  0  0  0  0  0  0  0  0  0  0  0
   10.4192    7.3157   15.0955 C   0  0  0  0  0  0  0  0  0  0  0  0
   10.2489    6.4227   23.0218 N   0  0  0  0  0  0  0  0  0  0  0  0
    7.2472    8.0746   23.5050 C   0  0  0  0  0  0  0  0  0  0  0  0
    9.2051    6.9101   23.4604 C   0  0  0  0  0  0  0  0  0  0  0  0
   11.9646    6.0299   21.4251 C   0  0  0  0  0  0  0  0  0  0  0  0
  1  5  1  0
  1 13  1  0
  2 20  2  0
  2 28  1  0
  2 29  1  0
  3 19  4  0
  3 25  4  0
  4 23  4  0
  4 27  1  0
  4 30  4  0
  5 17  1  0
  6  8  1  0
  6 29  1  0
  7 24  4  0
  7 26  4  0
  8 28  1  0
  9 13  2  0
 10 18  1  0
 10 21  4  0
 10 30  4  0
 11 17  2  0
 12 18  1  0
 13 15  1  0
 14 24  1  0
 15 25  1  0
 16 28  2  0
 17 20  1  0
 19 24  4  0
 20 23  1  0
 21 22  4  0
 22 23  4  0
 25 26  4  0
 27 29  2  0
M  END
$$$$

 Created by Python create_sdf_string function

 30 33  0  0  0  0  0  0  0  0999 V2000
    8.3036    9.8571   18.4133 C   0  0  0  0  0  0  0  0  0  0  0  0
    8.3694    7.6612   22.6703 C   0  0  0  0  0  0  0  0  0  0  0  0
    8.4143    6.6863   16.2273 C   0  0  0  0  0  0  0  0  0  0  0  0
   10.7581    6.5674   21.7636 C   0  0  0  0  0  0  0  0  0  0  0  0
    8.4452    8.7960   19.2958 O   0  0  0  0  0  0  0  0  0  0  0  0
    8.7122    6.7842   24.8569 C   0  0  0  0  0  0  0  0  0  0  0  0
   10.3400    6.1726   14.3081 C   0  0  0  0  0  0  0  0  0  0  0  0
    7.4297    7.5873   24.8962 C   0  0  0  0  0  0  0  0  0  0  0  0
    8.1566   10.0536   16.0516 O   0  0  0  0  0  0  0  0  0  0  0  0
   12.4989    6.2074   20.1776 C   0  0  0  0  0  0  0  0  0  0  0  0
    6.9192    9.1053   20.9073 O   0  0  0  0  0  0  0  0  0  0  0  0
   14.3979    6.0729   18.7784 C   0  0  0  0  0  0  0  0  0  0  0  0
    8.6811    9.5354   16.9998 C   0  0  0  0  0  0  0  0  0  0  0  0
    9.2512    4.2713   13.7653 O   0  0  0  0  0  0  0  0  0  0  0  0
    9.6495    8.6317   16.8332 N   0  0  0  0  0  0  0  0  0  0  0  0
    6.2934    8.6988   23.1988 O   0  0  0  0  0  0  0  0  0  0  0  0
    7.9806    8.6543   20.5437 C   0  0  0  0  0  0  0  0  0  0  0  0
   13.7270    5.7144   19.8610 O   0  0  0  0  0  0  0  0  0  0  0  0
    8.3351    5.5235   15.4478 C   0  0  0  0  0  0  0  0  0  0  0  0
    8.7700    7.8434   21.3915 C   0  0  0  0  0  0  0  0  0  0  0  0
   11.7856    6.8851   19.2401 C   0  0  0  0  0  0  0  0  0  0  0  0
   10.5281    7.4276   19.5649 C   0  0  0  0  0  0  0  0  0  0  0  0
   10.0256    7.2907   20.8484 C   0  0  0  0  0  0  0  0  0  0  0  0
    9.3113    5.3049   14.4911 C   0  0  0  0  0  0  0  0  0  0  0  0
    9.4607    7.5646   16.0139 C   0  0  0  0  0  0  0  0  0  0  0  0
   10.4192    7.3157   15.0955 C   0  0  0  0  0  0  0  0  0  0  0  0
   10.2489    6.4227   23.0218 N   0  0  0  0  0  0  0  0  0  0  0  0
    7.2472    8.0746   23.5050 C   0  0  0  0  0  0  0  0  0  0  0  0
    9.2051    6.9101   23.4604 C   0  0  0  0  0  0  0  0  0  0  0  0
   11.9646    6.0299   21.4251 C   0  0  0  0  0  0  0  0  0  0  0  0
  1  5  1  0
  1 13  1  0
  2 20  2  0
  2 28  1  0
  2 29  1  0
  3 19  4  0
  3 25  4  0
  4 23  4  0
  4 27  1  0
  4 30  4  0
  5 17  1  0
  6  8  1  0
  6 29  1  0
  7 24  4  0
  7 26  4  0
  8 28  1  0
  9 13  2  0
 10 18  1  0
 10 21  4  0
 10 30  4  0
 11 17  2  0
 12 18  1  0
 13 15  1  0
 14 24  1  0
 15 25  1  0
 16 28  2  0
 17 20  1  0
 19 24  4  0
 20 23  1  0
 21 22  4  0
 22 23  4  0
 25 26  4  0
 27 29  2  0
M  END
$$$$

 Created by Python create_sdf_string function

 30 33  0  0  0  0  0  0  0  0999 V2000
    8.3036    9.8571   18.4133 C   0  0  0  0  0  0  0  0  0  0  0  0
    8.3694    7.6612   22.6703 C   0  0  0  0  0  0  0  0  0  0  0  0
    8.4143    6.6863   16.2273 C   0  0  0  0  0  0  0  0  0  0  0  0
   10.7581    6.5674   21.7636 C   0  0  0  0  0  0  0  0  0  0  0  0
    8.4452    8.7960   19.2958 O   0  0  0  0  0  0  0  0  0  0  0  0
    8.7122    6.7842   24.8569 C   0  0  0  0  0  0  0  0  0  0  0  0
   10.3400    6.1726   14.3081 C   0  0  0  0  0  0  0  0  0  0  0  0
    7.4297    7.5873   24.8962 C   0  0  0  0  0  0  0  0  0  0  0  0
    8.1566   10.0536   16.0516 O   0  0  0  0  0  0  0  0  0  0  0  0
   12.4989    6.2074   20.1776 C   0  0  0  0  0  0  0  0  0  0  0  0
    6.9192    9.1053   20.9073 O   0  0  0  0  0  0  0  0  0  0  0  0
   14.3979    6.0729   18.7784 C   0  0  0  0  0  0  0  0  0  0  0  0
    8.6811    9.5354   16.9998 C   0  0  0  0  0  0  0  0  0  0  0  0
    9.2512    4.2713   13.7653 O   0  0  0  0  0  0  0  0  0  0  0  0
    9.6495    8.6317   16.8332 N   0  0  0  0  0  0  0  0  0  0  0  0
    6.2934    8.6988   23.1988 O   0  0  0  0  0  0  0  0  0  0  0  0
    7.9806    8.6543   20.5437 C   0  0  0  0  0  0  0  0  0  0  0  0
   13.7270    5.7144   19.8610 O   0  0  0  0  0  0  0  0  0  0  0  0
    8.3351    5.5235   15.4478 C   0  0  0  0  0  0  0  0  0  0  0  0
    8.7700    7.8434   21.3915 C   0  0  0  0  0  0  0  0  0  0  0  0
   11.7856    6.8851   19.2401 C   0  0  0  0  0  0  0  0  0  0  0  0
   10.5281    7.4276   19.5649 C   0  0  0  0  0  0  0  0  0  0  0  0
   10.0256    7.2907   20.8484 C   0  0  0  0  0  0  0  0  0  0  0  0
    9.3113    5.3049   14.4911 C   0  0  0  0  0  0  0  0  0  0  0  0
    9.4607    7.5646   16.0139 C   0  0  0  0  0  0  0  0  0  0  0  0
   10.4192    7.3157   15.0955 C   0  0  0  0  0  0  0  0  0  0  0  0
   10.2489    6.4227   23.0218 N   0  0  0  0  0  0  0  0  0  0  0  0
    7.2472    8.0746   23.5050 C   0  0  0  0  0  0  0  0  0  0  0  0
    9.2051    6.9101   23.4604 C   0  0  0  0  0  0  0  0  0  0  0  0
   11.9646    6.0299   21.4251 C   0  0  0  0  0  0  0  0  0  0  0  0
  1  5  1  0
  1 13  1  0
  2 20  2  0
  2 28  1  0
  2 29  1  0
  3 19  4  0
  3 25  4  0
  4 23  4  0
  4 27  1  0
  4 30  4  0
  5 17  1  0
  6  8  1  0
  6 29  1  0
  7 24  4  0
  7 26  4  0
  8 28  1  0
  9 13  2  0
 10 18  1  0
 10 21  4  0
 10 30  4  0
 11 17  2  0
 12 18  1  0
 13 15  1  0
 14 24  1  0
 15 25  1  0
 16 28  2  0
 17 20  1  0
 19 24  4  0
 20 23  1  0
 21 22  4  0
 22 23  4  0
 25 26  4  0
 27 29  2  0
M  END
$$$$

 Created by Python create_sdf_string function

 30 33  0  0  0  0  0  0  0  0999 V2000
    8.3036    9.8571   18.4133 C   0  0  0  0  0  0  0  0  0  0  0  0
    8.3694    7.6612   22.6703 C   0  0  0  0  0  0  0  0  0  0  0  0
    8.4143    6.6863   16.2273 C   0  0  0  0  0  0  0  0  0  0  0  0
   10.7581    6.5674   21.7636 C   0  0  0  0  0  0  0  0  0  0  0  0
    8.4452    8.7960   19.2958 O   0  0  0  0  0  0  0  0  0  0  0  0
    8.7122    6.7842   24.8569 C   0  0  0  0  0  0  0  0  0  0  0  0
   10.3400    6.1726   14.3081 C   0  0  0  0  0  0  0  0  0  0  0  0
    7.4297    7.5873   24.8962 C   0  0  0  0  0  0  0  0  0  0  0  0
    8.1566   10.0536   16.0516 O   0  0  0  0  0  0  0  0  0  0  0  0
   12.4989    6.2074   20.1776 C   0  0  0  0  0  0  0  0  0  0  0  0
    6.9192    9.1053   20.9073 O   0  0  0  0  0  0  0  0  0  0  0  0
   14.3979    6.0729   18.7784 C   0  0  0  0  0  0  0  0  0  0  0  0
    8.6811    9.5354   16.9998 C   0  0  0  0  0  0  0  0  0  0  0  0
    9.2512    4.2713   13.7653 O   0  0  0  0  0  0  0  0  0  0  0  0
    9.6495    8.6317   16.8332 N   0  0  0  0  0  0  0  0  0  0  0  0
    6.2934    8.6988   23.1988 O   0  0  0  0  0  0  0  0  0  0  0  0
    7.9806    8.6543   20.5437 C   0  0  0  0  0  0  0  0  0  0  0  0
   13.7270    5.7144   19.8610 O   0  0  0  0  0  0  0  0  0  0  0  0
    8.3351    5.5235   15.4478 C   0  0  0  0  0  0  0  0  0  0  0  0
    8.7700    7.8434   21.3915 C   0  0  0  0  0  0  0  0  0  0  0  0
   11.7856    6.8851   19.2401 C   0  0  0  0  0  0  0  0  0  0  0  0
   10.5281    7.4276   19.5649 C   0  0  0  0  0  0  0  0  0  0  0  0
   10.0256    7.2907   20.8484 C   0  0  0  0  0  0  0  0  0  0  0  0
    9.3113    5.3049   14.4911 C   0  0  0  0  0  0  0  0  0  0  0  0
    9.4607    7.5646   16.0139 C   0  0  0  0  0  0  0  0  0  0  0  0
   10.4192    7.3157   15.0955 C   0  0  0  0  0  0  0  0  0  0  0  0
   10.2489    6.4227   23.0218 N   0  0  0  0  0  0  0  0  0  0  0  0
    7.2472    8.0746   23.5050 C   0  0  0  0  0  0  0  0  0  0  0  0
    9.2051    6.9101   23.4604 C   0  0  0  0  0  0  0  0  0  0  0  0
   11.9646    6.0299   21.4251 C   0  0  0  0  0  0  0  0  0  0  0  0
  1  5  1  0
  1 13  1  0
  2 20  2  0
  2 28  1  0
  2 29  1  0
  3 19  4  0
  3 25  4  0
  4 23  4  0
  4 27  1  0
  4 30  4  0
  5 17  1  0
  6  8  1  0
  6 29  1  0
  7 24  4  0
  7 26  4  0
  8 28  1  0
  9 13  2  0
 10 18  1  0
 10 21  4  0
 10 30  4  0
 11 17  2  0
 12 18  1  0
 13 15  1  0
 14 24  1  0
 15 25  1  0
 16 28  2  0
 17 20  1  0
 19 24  4  0
 20 23  1  0
 21 22  4  0
 22 23  4  0
 25 26  4  0
 27 29  2  0
M  END
$$$$

 Created by Python create_sdf_string function

 30 33  0  0  0  0  0  0  0  0999 V2000
    8.3036    9.8571   18.4133 C   0  0  0  0  0  0  0  0  0  0  0  0
    8.3694    7.6612   22.6703 C   0  0  0  0  0  0  0  0  0  0  0  0
    8.4143    6.6863   16.2273 C   0  0  0  0  0  0  0  0  0  0  0  0
   10.7581    6.5674   21.7636 C   0  0  0  0  0  0  0  0  0  0  0  0
    8.4452    8.7960   19.2958 O   0  0  0  0  0  0  0  0  0  0  0  0
    8.7122    6.7842   24.8569 C   0  0  0  0  0  0  0  0  0  0  0  0
   10.3400    6.1726   14.3081 C   0  0  0  0  0  0  0  0  0  0  0  0
    7.4297    7.5873   24.8962 C   0  0  0  0  0  0  0  0  0  0  0  0
    8.1566   10.0536   16.0516 O   0  0  0  0  0  0  0  0  0  0  0  0
   12.4989    6.2074   20.1776 C   0  0  0  0  0  0  0  0  0  0  0  0
    6.9192    9.1053   20.9073 O   0  0  0  0  0  0  0  0  0  0  0  0
   14.3979    6.0729   18.7784 C   0  0  0  0  0  0  0  0  0  0  0  0
    8.6811    9.5354   16.9998 C   0  0  0  0  0  0  0  0  0  0  0  0
    9.2512    4.2713   13.7653 O   0  0  0  0  0  0  0  0  0  0  0  0
    9.6495    8.6317   16.8332 N   0  0  0  0  0  0  0  0  0  0  0  0
    6.2934    8.6988   23.1988 O   0  0  0  0  0  0  0  0  0  0  0  0
    7.9806    8.6543   20.5437 C   0  0  0  0  0  0  0  0  0  0  0  0
   13.7270    5.7144   19.8610 O   0  0  0  0  0  0  0  0  0  0  0  0
    8.3351    5.5235   15.4478 C   0  0  0  0  0  0  0  0  0  0  0  0
    8.7700    7.8434   21.3915 C   0  0  0  0  0  0  0  0  0  0  0  0
   11.7856    6.8851   19.2401 C   0  0  0  0  0  0  0  0  0  0  0  0
   10.5281    7.4276   19.5649 C   0  0  0  0  0  0  0  0  0  0  0  0
   10.0256    7.2907   20.8484 C   0  0  0  0  0  0  0  0  0  0  0  0
    9.3113    5.3049   14.4911 C   0  0  0  0  0  0  0  0  0  0  0  0
    9.4607    7.5646   16.0139 C   0  0  0  0  0  0  0  0  0  0  0  0
   10.4192    7.3157   15.0955 C   0  0  0  0  0  0  0  0  0  0  0  0
   10.2489    6.4227   23.0218 N   0  0  0  0  0  0  0  0  0  0  0  0
    7.2472    8.0746   23.5050 C   0  0  0  0  0  0  0  0  0  0  0  0
    9.2051    6.9101   23.4604 C   0  0  0  0  0  0  0  0  0  0  0  0
   11.9646    6.0299   21.4251 C   0  0  0  0  0  0  0  0  0  0  0  0
  1  5  1  0
  1 13  1  0
  2 20  2  0
  2 28  1  0
  2 29  1  0
  3 19  4  0
  3 25  4  0
  4 23  4  0
  4 27  1  0
  4 30  4  0
  5 17  1  0
  6  8  1  0
  6 29  1  0
  7 24  4  0
  7 26  4  0
  8 28  1  0
  9 13  2  0
 10 18  1  0
 10 21  4  0
 10 30  4  0
 11 17  2  0
 12 18  1  0
 13 15  1  0
 14 24  1  0
 15 25  1  0
 16 28  2  0
 17 20  1  0
 19 24  4  0
 20 23  1  0
 21 22  4  0
 22 23  4  0
 25 26  4  0
 27 29  2  0
M  END
$$$$

 Created by Python create_sdf_string function

 30 33  0  0  0  0  0  0  0  0999 V2000
    8.3036    9.8571   18.4133 C   0  0  0  0  0  0  0  0  0  0  0  0
    8.3694    7.6612   22.6703 C   0  0  0  0  0  0  0  0  0  0  0  0
    8.4143    6.6863   16.2273 C   0  0  0  0  0  0  0  0  0  0  0  0
   10.7581    6.5674   21.7636 C   0  0  0  0  0  0  0  0  0  0  0  0
    8.4452    8.7960   19.2958 O   0  0  0  0  0  0  0  0  0  0  0  0
    8.7122    6.7842   24.8569 C   0  0  0  0  0  0  0  0  0  0  0  0
   10.3400    6.1726   14.3081 C   0  0  0  0  0  0  0  0  0  0  0  0
    7.4297    7.5873   24.8962 C   0  0  0  0  0  0  0  0  0  0  0  0
    8.1566   10.0536   16.0516 O   0  0  0  0  0  0  0  0  0  0  0  0
   12.4989    6.2074   20.1776 C   0  0  0  0  0  0  0  0  0  0  0  0
    6.9192    9.1053   20.9073 O   0  0  0  0  0  0  0  0  0  0  0  0
   14.3979    6.0729   18.7784 C   0  0  0  0  0  0  0  0  0  0  0  0
    8.6811    9.5354   16.9998 C   0  0  0  0  0  0  0  0  0  0  0  0
    9.2512    4.2713   13.7653 O   0  0  0  0  0  0  0  0  0  0  0  0
    9.6495    8.6317   16.8332 N   0  0  0  0  0  0  0  0  0  0  0  0
    6.2934    8.6988   23.1988 O   0  0  0  0  0  0  0  0  0  0  0  0
    7.9806    8.6543   20.5437 C   0  0  0  0  0  0  0  0  0  0  0  0
   13.7270    5.7144   19.8610 O   0  0  0  0  0  0  0  0  0  0  0  0
    8.3351    5.5235   15.4478 C   0  0  0  0  0  0  0  0  0  0  0  0
    8.7700    7.8434   21.3915 C   0  0  0  0  0  0  0  0  0  0  0  0
   11.7856    6.8851   19.2401 C   0  0  0  0  0  0  0  0  0  0  0  0
   10.5281    7.4276   19.5649 C   0  0  0  0  0  0  0  0  0  0  0  0
   10.0256    7.2907   20.8484 C   0  0  0  0  0  0  0  0  0  0  0  0
    9.3113    5.3049   14.4911 C   0  0  0  0  0  0  0  0  0  0  0  0
    9.4607    7.5646   16.0139 C   0  0  0  0  0  0  0  0  0  0  0  0
   10.4192    7.3157   15.0955 C   0  0  0  0  0  0  0  0  0  0  0  0
   10.2489    6.4227   23.0218 N   0  0  0  0  0  0  0  0  0  0  0  0
    7.2472    8.0746   23.5050 C   0  0  0  0  0  0  0  0  0  0  0  0
    9.2051    6.9101   23.4604 C   0  0  0  0  0  0  0  0  0  0  0  0
   11.9646    6.0299   21.4251 C   0  0  0  0  0  0  0  0  0  0  0  0
  1  5  1  0
  1 13  1  0
  2 20  2  0
  2 28  1  0
  2 29  1  0
  3 19  4  0
  3 25  4  0
  4 23  4  0
  4 27  1  0
  4 30  4  0
  5 17  1  0
  6  8  1  0
  6 29  1  0
  7 24  4  0
  7 26  4  0
  8 28  1  0
  9 13  2  0
 10 18  1  0
 10 21  4  0
 10 30  4  0
 11 17  2  0
 12 18  1  0
 13 15  1  0
 14 24  1  0
 15 25  1  0
 16 28  2  0
 17 20  1  0
 19 24  4  0
 20 23  1  0
 21 22  4  0
 22 23  4  0
 25 26  4  0
 27 29  2  0
M  END
$$$$

 Created by Python create_sdf_string function

 30 33  0  0  0  0  0  0  0  0999 V2000
    8.3036    9.8571   18.4133 C   0  0  0  0  0  0  0  0  0  0  0  0
    8.3694    7.6612   22.6703 C   0  0  0  0  0  0  0  0  0  0  0  0
    8.4143    6.6863   16.2273 C   0  0  0  0  0  0  0  0  0  0  0  0
   10.7581    6.5674   21.7636 C   0  0  0  0  0  0  0  0  0  0  0  0
    8.4452    8.7960   19.2958 O   0  0  0  0  0  0  0  0  0  0  0  0
    8.7122    6.7842   24.8569 C   0  0  0  0  0  0  0  0  0  0  0  0
   10.3400    6.1726   14.3081 C   0  0  0  0  0  0  0  0  0  0  0  0
    7.4297    7.5873   24.8962 C   0  0  0  0  0  0  0  0  0  0  0  0
    8.1566   10.0536   16.0516 O   0  0  0  0  0  0  0  0  0  0  0  0
   12.4989    6.2074   20.1776 C   0  0  0  0  0  0  0  0  0  0  0  0
    6.9192    9.1053   20.9073 O   0  0  0  0  0  0  0  0  0  0  0  0
   14.3979    6.0729   18.7784 C   0  0  0  0  0  0  0  0  0  0  0  0
    8.6811    9.5354   16.9998 C   0  0  0  0  0  0  0  0  0  0  0  0
    9.2512    4.2713   13.7653 O   0  0  0  0  0  0  0  0  0  0  0  0
    9.6495    8.6317   16.8332 N   0  0  0  0  0  0  0  0  0  0  0  0
    6.2934    8.6988   23.1988 O   0  0  0  0  0  0  0  0  0  0  0  0
    7.9806    8.6543   20.5437 C   0  0  0  0  0  0  0  0  0  0  0  0
   13.7270    5.7144   19.8610 O   0  0  0  0  0  0  0  0  0  0  0  0
    8.3351    5.5235   15.4478 C   0  0  0  0  0  0  0  0  0  0  0  0
    8.7700    7.8434   21.3915 C   0  0  0  0  0  0  0  0  0  0  0  0
   11.7856    6.8851   19.2401 C   0  0  0  0  0  0  0  0  0  0  0  0
   10.5281    7.4276   19.5649 C   0  0  0  0  0  0  0  0  0  0  0  0
   10.0256    7.2907   20.8484 C   0  0  0  0  0  0  0  0  0  0  0  0
    9.3113    5.3049   14.4911 C   0  0  0  0  0  0  0  0  0  0  0  0
    9.4607    7.5646   16.0139 C   0  0  0  0  0  0  0  0  0  0  0  0
   10.4192    7.3157   15.0955 C   0  0  0  0  0  0  0  0  0  0  0  0
   10.2489    6.4227   23.0218 N   0  0  0  0  0  0  0  0  0  0  0  0
    7.2472    8.0746   23.5050 C   0  0  0  0  0  0  0  0  0  0  0  0
    9.2051    6.9101   23.4604 C   0  0  0  0  0  0  0  0  0  0  0  0
   11.9646    6.0299   21.4251 C   0  0  0  0  0  0  0  0  0  0  0  0
  1  5  1  0
  1 13  1  0
  2 20  2  0
  2 28  1  0
  2 29  1  0
  3 19  4  0
  3 25  4  0
  4 23  4  0
  4 27  1  0
  4 30  4  0
  5 17  1  0
  6  8  1  0
  6 29  1  0
  7 24  4  0
  7 26  4  0
  8 28  1  0
  9 13  2  0
 10 18  1  0
 10 21  4  0
 10 30  4  0
 11 17  2  0
 12 18  1  0
 13 15  1  0
 14 24  1  0
 15 25  1  0
 16 28  2  0
 17 20  1  0
 19 24  4  0
 20 23  1  0
 21 22  4  0
 22 23  4  0
 25 26  4  0
 27 29  2  0
M  END
$$$$

 Created by Python create_sdf_string function

 30 33  0  0  0  0  0  0  0  0999 V2000
    8.3036    9.8571   18.4133 C   0  0  0  0  0  0  0  0  0  0  0  0
    8.3694    7.6612   22.6703 C   0  0  0  0  0  0  0  0  0  0  0  0
    8.4143    6.6863   16.2273 C   0  0  0  0  0  0  0  0  0  0  0  0
   10.7581    6.5674   21.7636 C   0  0  0  0  0  0  0  0  0  0  0  0
    8.4452    8.7960   19.2958 O   0  0  0  0  0  0  0  0  0  0  0  0
    8.7122    6.7842   24.8569 C   0  0  0  0  0  0  0  0  0  0  0  0
   10.3400    6.1726   14.3081 C   0  0  0  0  0  0  0  0  0  0  0  0
    7.4297    7.5873   24.8962 C   0  0  0  0  0  0  0  0  0  0  0  0
    8.1566   10.0536   16.0516 O   0  0  0  0  0  0  0  0  0  0  0  0
   12.4989    6.2074   20.1776 C   0  0  0  0  0  0  0  0  0  0  0  0
    6.9192    9.1053   20.9073 O   0  0  0  0  0  0  0  0  0  0  0  0
   14.3979    6.0729   18.7784 C   0  0  0  0  0  0  0  0  0  0  0  0
    8.6811    9.5354   16.9998 C   0  0  0  0  0  0  0  0  0  0  0  0
    9.2512    4.2713   13.7653 O   0  0  0  0  0  0  0  0  0  0  0  0
    9.6495    8.6317   16.8332 N   0  0  0  0  0  0  0  0  0  0  0  0
    6.2934    8.6988   23.1988 O   0  0  0  0  0  0  0  0  0  0  0  0
    7.9806    8.6543   20.5437 C   0  0  0  0  0  0  0  0  0  0  0  0
   13.7270    5.7144   19.8610 O   0  0  0  0  0  0  0  0  0  0  0  0
    8.3351    5.5235   15.4478 C   0  0  0  0  0  0  0  0  0  0  0  0
    8.7700    7.8434   21.3915 C   0  0  0  0  0  0  0  0  0  0  0  0
   11.7856    6.8851   19.2401 C   0  0  0  0  0  0  0  0  0  0  0  0
   10.5281    7.4276   19.5649 C   0  0  0  0  0  0  0  0  0  0  0  0
   10.0256    7.2907   20.8484 C   0  0  0  0  0  0  0  0  0  0  0  0
    9.3113    5.3049   14.4911 C   0  0  0  0  0  0  0  0  0  0  0  0
    9.4607    7.5646   16.0139 C   0  0  0  0  0  0  0  0  0  0  0  0
   10.4192    7.3157   15.0955 C   0  0  0  0  0  0  0  0  0  0  0  0
   10.2489    6.4227   23.0218 N   0  0  0  0  0  0  0  0  0  0  0  0
    7.2472    8.0746   23.5050 C   0  0  0  0  0  0  0  0  0  0  0  0
    9.2051    6.9101   23.4604 C   0  0  0  0  0  0  0  0  0  0  0  0
   11.9646    6.0299   21.4251 C   0  0  0  0  0  0  0  0  0  0  0  0
  1  5  1  0
  1 13  1  0
  2 20  2  0
  2 28  1  0
  2 29  1  0
  3 19  4  0
  3 25  4  0
  4 23  4  0
  4 27  1  0
  4 30  4  0
  5 17  1  0
  6  8  1  0
  6 29  1  0
  7 24  4  0
  7 26  4  0
  8 28  1  0
  9 13  2  0
 10 18  1  0
 10 21  4  0
 10 30  4  0
 11 17  2  0
 12 18  1  0
 13 15  1  0
 14 24  1  0
 15 25  1  0
 16 28  2  0
 17 20  1  0
 19 24  4  0
 20 23  1  0
 21 22  4  0
 22 23  4  0
 25 26  4  0
 27 29  2  0
M  END
$$$$

 Created by Python create_sdf_string function

 30 33  0  0  0  0  0  0  0  0999 V2000
    8.3036    9.8571   18.4133 C   0  0  0  0  0  0  0  0  0  0  0  0
    8.3694    7.6612   22.6703 C   0  0  0  0  0  0  0  0  0  0  0  0
    8.4143    6.6863   16.2273 C   0  0  0  0  0  0  0  0  0  0  0  0
   10.7581    6.5674   21.7636 C   0  0  0  0  0  0  0  0  0  0  0  0
    8.4452    8.7960   19.2958 O   0  0  0  0  0  0  0  0  0  0  0  0
    8.7122    6.7842   24.8569 C   0  0  0  0  0  0  0  0  0  0  0  0
   10.3400    6.1726   14.3081 C   0  0  0  0  0  0  0  0  0  0  0  0
    7.4297    7.5873   24.8962 C   0  0  0  0  0  0  0  0  0  0  0  0
    8.1566   10.0536   16.0516 O   0  0  0  0  0  0  0  0  0  0  0  0
   12.4989    6.2074   20.1776 C   0  0  0  0  0  0  0  0  0  0  0  0
    6.9192    9.1053   20.9073 O   0  0  0  0  0  0  0  0  0  0  0  0
   14.3979    6.0729   18.7784 C   0  0  0  0  0  0  0  0  0  0  0  0
    8.6811    9.5354   16.9998 C   0  0  0  0  0  0  0  0  0  0  0  0
    9.2512    4.2713   13.7653 O   0  0  0  0  0  0  0  0  0  0  0  0
    9.6495    8.6317   16.8332 N   0  0  0  0  0  0  0  0  0  0  0  0
    6.2934    8.6988   23.1988 O   0  0  0  0  0  0  0  0  0  0  0  0
    7.9806    8.6543   20.5437 C   0  0  0  0  0  0  0  0  0  0  0  0
   13.7270    5.7144   19.8610 O   0  0  0  0  0  0  0  0  0  0  0  0
    8.3351    5.5235   15.4478 C   0  0  0  0  0  0  0  0  0  0  0  0
    8.7700    7.8434   21.3915 C   0  0  0  0  0  0  0  0  0  0  0  0
   11.7856    6.8851   19.2401 C   0  0  0  0  0  0  0  0  0  0  0  0
   10.5281    7.4276   19.5649 C   0  0  0  0  0  0  0  0  0  0  0  0
   10.0256    7.2907   20.8484 C   0  0  0  0  0  0  0  0  0  0  0  0
    9.3113    5.3049   14.4911 C   0  0  0  0  0  0  0  0  0  0  0  0
    9.4607    7.5646   16.0139 C   0  0  0  0  0  0  0  0  0  0  0  0
   10.4192    7.3157   15.0955 C   0  0  0  0  0  0  0  0  0  0  0  0
   10.2489    6.4227   23.0218 N   0  0  0  0  0  0  0  0  0  0  0  0
    7.2472    8.0746   23.5050 C   0  0  0  0  0  0  0  0  0  0  0  0
    9.2051    6.9101   23.4604 C   0  0  0  0  0  0  0  0  0  0  0  0
   11.9646    6.0299   21.4251 C   0  0  0  0  0  0  0  0  0  0  0  0
  1  5  1  0
  1 13  1  0
  2 20  2  0
  2 28  1  0
  2 29  1  0
  3 19  4  0
  3 25  4  0
  4 23  4  0
  4 27  1  0
  4 30  4  0
  5 17  1  0
  6  8  1  0
  6 29  1  0
  7 24  4  0
  7 26  4  0
  8 28  1  0
  9 13  2  0
 10 18  1  0
 10 21  4  0
 10 30  4  0
 11 17  2  0
 12 18  1  0
 13 15  1  0
 14 24  1  0
 15 25  1  0
 16 28  2  0
 17 20  1  0
 19 24  4  0
 20 23  1  0
 21 22  4  0
 22 23  4  0
 25 26  4  0
 27 29  2  0
M  END
$$$$

 Created by Python create_sdf_string function

 30 33  0  0  0  0  0  0  0  0999 V2000
    8.3036    9.8571   18.4133 C   0  0  0  0  0  0  0  0  0  0  0  0
    8.3694    7.6612   22.6703 C   0  0  0  0  0  0  0  0  0  0  0  0
    8.4143    6.6863   16.2273 C   0  0  0  0  0  0  0  0  0  0  0  0
   10.7581    6.5674   21.7636 C   0  0  0  0  0  0  0  0  0  0  0  0
    8.4452    8.7960   19.2958 O   0  0  0  0  0  0  0  0  0  0  0  0
    8.7122    6.7842   24.8569 C   0  0  0  0  0  0  0  0  0  0  0  0
   10.3400    6.1726   14.3081 C   0  0  0  0  0  0  0  0  0  0  0  0
    7.4297    7.5873   24.8962 C   0  0  0  0  0  0  0  0  0  0  0  0
    8.1566   10.0536   16.0516 O   0  0  0  0  0  0  0  0  0  0  0  0
   12.4989    6.2074   20.1776 C   0  0  0  0  0  0  0  0  0  0  0  0
    6.9192    9.1053   20.9073 O   0  0  0  0  0  0  0  0  0  0  0  0
   14.3979    6.0729   18.7784 C   0  0  0  0  0  0  0  0  0  0  0  0
    8.6811    9.5354   16.9998 C   0  0  0  0  0  0  0  0  0  0  0  0
    9.2512    4.2713   13.7653 O   0  0  0  0  0  0  0  0  0  0  0  0
    9.6495    8.6317   16.8332 N   0  0  0  0  0  0  0  0  0  0  0  0
    6.2934    8.6988   23.1988 O   0  0  0  0  0  0  0  0  0  0  0  0
    7.9806    8.6543   20.5437 C   0  0  0  0  0  0  0  0  0  0  0  0
   13.7270    5.7144   19.8610 O   0  0  0  0  0  0  0  0  0  0  0  0
    8.3351    5.5235   15.4478 C   0  0  0  0  0  0  0  0  0  0  0  0
    8.7700    7.8434   21.3915 C   0  0  0  0  0  0  0  0  0  0  0  0
   11.7856    6.8851   19.2401 C   0  0  0  0  0  0  0  0  0  0  0  0
   10.5281    7.4276   19.5649 C   0  0  0  0  0  0  0  0  0  0  0  0
   10.0256    7.2907   20.8484 C   0  0  0  0  0  0  0  0  0  0  0  0
    9.3113    5.3049   14.4911 C   0  0  0  0  0  0  0  0  0  0  0  0
    9.4607    7.5646   16.0139 C   0  0  0  0  0  0  0  0  0  0  0  0
   10.4192    7.3157   15.0955 C   0  0  0  0  0  0  0  0  0  0  0  0
   10.2489    6.4227   23.0218 N   0  0  0  0  0  0  0  0  0  0  0  0
    7.2472    8.0746   23.5050 C   0  0  0  0  0  0  0  0  0  0  0  0
    9.2051    6.9101   23.4604 C   0  0  0  0  0  0  0  0  0  0  0  0
   11.9646    6.0299   21.4251 C   0  0  0  0  0  0  0  0  0  0  0  0
  1  5  1  0
  1 13  1  0
  2 20  2  0
  2 28  1  0
  2 29  1  0
  3 19  4  0
  3 25  4  0
  4 23  4  0
  4 27  1  0
  4 30  4  0
  5 17  1  0
  6  8  1  0
  6 29  1  0
  7 24  4  0
  7 26  4  0
  8 28  1  0
  9 13  2  0
 10 18  1  0
 10 21  4  0
 10 30  4  0
 11 17  2  0
 12 18  1  0
 13 15  1  0
 14 24  1  0
 15 25  1  0
 16 28  2  0
 17 20  1  0
 19 24  4  0
 20 23  1  0
 21 22  4  0
 22 23  4  0
 25 26  4  0
 27 29  2  0
M  END
$$$$

 Created by Python create_sdf_string function

 30 33  0  0  0  0  0  0  0  0999 V2000
    8.3036    9.8571   18.4133 C   0  0  0  0  0  0  0  0  0  0  0  0
    8.3694    7.6612   22.6703 C   0  0  0  0  0  0  0  0  0  0  0  0
    8.4143    6.6863   16.2273 C   0  0  0  0  0  0  0  0  0  0  0  0
   10.7581    6.5674   21.7636 C   0  0  0  0  0  0  0  0  0  0  0  0
    8.4452    8.7960   19.2958 O   0  0  0  0  0  0  0  0  0  0  0  0
    8.7122    6.7842   24.8569 C   0  0  0  0  0  0  0  0  0  0  0  0
   10.3400    6.1726   14.3081 C   0  0  0  0  0  0  0  0  0  0  0  0
    7.4297    7.5873   24.8962 C   0  0  0  0  0  0  0  0  0  0  0  0
    8.1566   10.0536   16.0516 O   0  0  0  0  0  0  0  0  0  0  0  0
   12.4989    6.2074   20.1776 C   0  0  0  0  0  0  0  0  0  0  0  0
    6.9192    9.1053   20.9073 O   0  0  0  0  0  0  0  0  0  0  0  0
   14.3979    6.0729   18.7784 C   0  0  0  0  0  0  0  0  0  0  0  0
    8.6811    9.5354   16.9998 C   0  0  0  0  0  0  0  0  0  0  0  0
    9.2512    4.2713   13.7653 O   0  0  0  0  0  0  0  0  0  0  0  0
    9.6495    8.6317   16.8332 N   0  0  0  0  0  0  0  0  0  0  0  0
    6.2934    8.6988   23.1988 O   0  0  0  0  0  0  0  0  0  0  0  0
    7.9806    8.6543   20.5437 C   0  0  0  0  0  0  0  0  0  0  0  0
   13.7270    5.7144   19.8610 O   0  0  0  0  0  0  0  0  0  0  0  0
    8.3351    5.5235   15.4478 C   0  0  0  0  0  0  0  0  0  0  0  0
    8.7700    7.8434   21.3915 C   0  0  0  0  0  0  0  0  0  0  0  0
   11.7856    6.8851   19.2401 C   0  0  0  0  0  0  0  0  0  0  0  0
   10.5281    7.4276   19.5649 C   0  0  0  0  0  0  0  0  0  0  0  0
   10.0256    7.2907   20.8484 C   0  0  0  0  0  0  0  0  0  0  0  0
    9.3113    5.3049   14.4911 C   0  0  0  0  0  0  0  0  0  0  0  0
    9.4607    7.5646   16.0139 C   0  0  0  0  0  0  0  0  0  0  0  0
   10.4192    7.3157   15.0955 C   0  0  0  0  0  0  0  0  0  0  0  0
   10.2489    6.4227   23.0218 N   0  0  0  0  0  0  0  0  0  0  0  0
    7.2472    8.0746   23.5050 C   0  0  0  0  0  0  0  0  0  0  0  0
    9.2051    6.9101   23.4604 C   0  0  0  0  0  0  0  0  0  0  0  0
   11.9646    6.0299   21.4251 C   0  0  0  0  0  0  0  0  0  0  0  0
  1  5  1  0
  1 13  1  0
  2 20  2  0
  2 28  1  0
  2 29  1  0
  3 19  4  0
  3 25  4  0
  4 23  4  0
  4 27  1  0
  4 30  4  0
  5 17  1  0
  6  8  1  0
  6 29  1  0
  7 24  4  0
  7 26  4  0
  8 28  1  0
  9 13  2  0
 10 18  1  0
 10 21  4  0
 10 30  4  0
 11 17  2  0
 12 18  1  0
 13 15  1  0
 14 24  1  0
 15 25  1  0
 16 28  2  0
 17 20  1  0
 19 24  4  0
 20 23  1  0
 21 22  4  0
 22 23  4  0
 25 26  4  0
 27 29  2  0
M  END
$$$$

 Created by Python create_sdf_string function

 30 33  0  0  0  0  0  0  0  0999 V2000
    8.3036    9.8571   18.4133 C   0  0  0  0  0  0  0  0  0  0  0  0
    8.3694    7.6612   22.6703 C   0  0  0  0  0  0  0  0  0  0  0  0
    8.4143    6.6863   16.2273 C   0  0  0  0  0  0  0  0  0  0  0  0
   10.7581    6.5674   21.7636 C   0  0  0  0  0  0  0  0  0  0  0  0
    8.4452    8.7960   19.2958 O   0  0  0  0  0  0  0  0  0  0  0  0
    8.7122    6.7842   24.8569 C   0  0  0  0  0  0  0  0  0  0  0  0
   10.3400    6.1726   14.3081 C   0  0  0  0  0  0  0  0  0  0  0  0
    7.4297    7.5873   24.8962 C   0  0  0  0  0  0  0  0  0  0  0  0
    8.1566   10.0536   16.0516 O   0  0  0  0  0  0  0  0  0  0  0  0
   12.4989    6.2074   20.1776 C   0  0  0  0  0  0  0  0  0  0  0  0
    6.9192    9.1053   20.9073 O   0  0  0  0  0  0  0  0  0  0  0  0
   14.3979    6.0729   18.7784 C   0  0  0  0  0  0  0  0  0  0  0  0
    8.6811    9.5354   16.9998 C   0  0  0  0  0  0  0  0  0  0  0  0
    9.2512    4.2713   13.7653 O   0  0  0  0  0  0  0  0  0  0  0  0
    9.6495    8.6317   16.8332 N   0  0  0  0  0  0  0  0  0  0  0  0
    6.2934    8.6988   23.1988 O   0  0  0  0  0  0  0  0  0  0  0  0
    7.9806    8.6543   20.5437 C   0  0  0  0  0  0  0  0  0  0  0  0
   13.7270    5.7144   19.8610 O   0  0  0  0  0  0  0  0  0  0  0  0
    8.3351    5.5235   15.4478 C   0  0  0  0  0  0  0  0  0  0  0  0
    8.7700    7.8434   21.3915 C   0  0  0  0  0  0  0  0  0  0  0  0
   11.7856    6.8851   19.2401 C   0  0  0  0  0  0  0  0  0  0  0  0
   10.5281    7.4276   19.5649 C   0  0  0  0  0  0  0  0  0  0  0  0
   10.0256    7.2907   20.8484 C   0  0  0  0  0  0  0  0  0  0  0  0
    9.3113    5.3049   14.4911 C   0  0  0  0  0  0  0  0  0  0  0  0
    9.4607    7.5646   16.0139 C   0  0  0  0  0  0  0  0  0  0  0  0
   10.4192    7.3157   15.0955 C   0  0  0  0  0  0  0  0  0  0  0  0
   10.2489    6.4227   23.0218 N   0  0  0  0  0  0  0  0  0  0  0  0
    7.2472    8.0746   23.5050 C   0  0  0  0  0  0  0  0  0  0  0  0
    9.2051    6.9101   23.4604 C   0  0  0  0  0  0  0  0  0  0  0  0
   11.9646    6.0299   21.4251 C   0  0  0  0  0  0  0  0  0  0  0  0
  1  5  1  0
  1 13  1  0
  2 20  2  0
  2 28  1  0
  2 29  1  0
  3 19  4  0
  3 25  4  0
  4 23  4  0
  4 27  1  0
  4 30  4  0
  5 17  1  0
  6  8  1  0
  6 29  1  0
  7 24  4  0
  7 26  4  0
  8 28  1  0
  9 13  2  0
 10 18  1  0
 10 21  4  0
 10 30  4  0
 11 17  2  0
 12 18  1  0
 13 15  1  0
 14 24  1  0
 15 25  1  0
 16 28  2  0
 17 20  1  0
 19 24  4  0
 20 23  1  0
 21 22  4  0
 22 23  4  0
 25 26  4  0
 27 29  2  0
M  END
$$$$

 Created by Python create_sdf_string function

 30 33  0  0  0  0  0  0  0  0999 V2000
    8.3036    9.8571   18.4133 C   0  0  0  0  0  0  0  0  0  0  0  0
    8.3694    7.6612   22.6703 C   0  0  0  0  0  0  0  0  0  0  0  0
    8.4143    6.6863   16.2273 C   0  0  0  0  0  0  0  0  0  0  0  0
   10.7581    6.5674   21.7636 C   0  0  0  0  0  0  0  0  0  0  0  0
    8.4452    8.7960   19.2958 O   0  0  0  0  0  0  0  0  0  0  0  0
    8.7122    6.7842   24.8569 C   0  0  0  0  0  0  0  0  0  0  0  0
   10.3400    6.1726   14.3081 C   0  0  0  0  0  0  0  0  0  0  0  0
    7.4297    7.5873   24.8962 C   0  0  0  0  0  0  0  0  0  0  0  0
    8.1566   10.0536   16.0516 O   0  0  0  0  0  0  0  0  0  0  0  0
   12.4989    6.2074   20.1776 C   0  0  0  0  0  0  0  0  0  0  0  0
    6.9192    9.1053   20.9073 O   0  0  0  0  0  0  0  0  0  0  0  0
   14.3979    6.0729   18.7784 C   0  0  0  0  0  0  0  0  0  0  0  0
    8.6811    9.5354   16.9998 C   0  0  0  0  0  0  0  0  0  0  0  0
    9.2512    4.2713   13.7653 O   0  0  0  0  0  0  0  0  0  0  0  0
    9.6495    8.6317   16.8332 N   0  0  0  0  0  0  0  0  0  0  0  0
    6.2934    8.6988   23.1988 O   0  0  0  0  0  0  0  0  0  0  0  0
    7.9806    8.6543   20.5437 C   0  0  0  0  0  0  0  0  0  0  0  0
   13.7270    5.7144   19.8610 O   0  0  0  0  0  0  0  0  0  0  0  0
    8.3351    5.5235   15.4478 C   0  0  0  0  0  0  0  0  0  0  0  0
    8.7700    7.8434   21.3915 C   0  0  0  0  0  0  0  0  0  0  0  0
   11.7856    6.8851   19.2401 C   0  0  0  0  0  0  0  0  0  0  0  0
   10.5281    7.4276   19.5649 C   0  0  0  0  0  0  0  0  0  0  0  0
   10.0256    7.2907   20.8484 C   0  0  0  0  0  0  0  0  0  0  0  0
    9.3113    5.3049   14.4911 C   0  0  0  0  0  0  0  0  0  0  0  0
    9.4607    7.5646   16.0139 C   0  0  0  0  0  0  0  0  0  0  0  0
   10.4192    7.3157   15.0955 C   0  0  0  0  0  0  0  0  0  0  0  0
   10.2489    6.4227   23.0218 N   0  0  0  0  0  0  0  0  0  0  0  0
    7.2472    8.0746   23.5050 C   0  0  0  0  0  0  0  0  0  0  0  0
    9.2051    6.9101   23.4604 C   0  0  0  0  0  0  0  0  0  0  0  0
   11.9646    6.0299   21.4251 C   0  0  0  0  0  0  0  0  0  0  0  0
  1  5  1  0
  1 13  1  0
  2 20  2  0
  2 28  1  0
  2 29  1  0
  3 19  4  0
  3 25  4  0
  4 23  4  0
  4 27  1  0
  4 30  4  0
  5 17  1  0
  6  8  1  0
  6 29  1  0
  7 24  4  0
  7 26  4  0
  8 28  1  0
  9 13  2  0
 10 18  1  0
 10 21  4  0
 10 30  4  0
 11 17  2  0
 12 18  1  0
 13 15  1  0
 14 24  1  0
 15 25  1  0
 16 28  2  0
 17 20  1  0
 19 24  4  0
 20 23  1  0
 21 22  4  0
 22 23  4  0
 25 26  4  0
 27 29  2  0
M  END
$$$$

 Created by Python create_sdf_string function

 30 33  0  0  0  0  0  0  0  0999 V2000
    8.3036    9.8571   18.4133 C   0  0  0  0  0  0  0  0  0  0  0  0
    8.3694    7.6612   22.6703 C   0  0  0  0  0  0  0  0  0  0  0  0
    8.4143    6.6863   16.2273 C   0  0  0  0  0  0  0  0  0  0  0  0
   10.7581    6.5674   21.7636 C   0  0  0  0  0  0  0  0  0  0  0  0
    8.4452    8.7960   19.2958 O   0  0  0  0  0  0  0  0  0  0  0  0
    8.7122    6.7842   24.8569 C   0  0  0  0  0  0  0  0  0  0  0  0
   10.3400    6.1726   14.3081 C   0  0  0  0  0  0  0  0  0  0  0  0
    7.4297    7.5873   24.8962 C   0  0  0  0  0  0  0  0  0  0  0  0
    8.1566   10.0536   16.0516 O   0  0  0  0  0  0  0  0  0  0  0  0
   12.4989    6.2074   20.1776 C   0  0  0  0  0  0  0  0  0  0  0  0
    6.9192    9.1053   20.9073 O   0  0  0  0  0  0  0  0  0  0  0  0
   14.3979    6.0729   18.7784 C   0  0  0  0  0  0  0  0  0  0  0  0
    8.6811    9.5354   16.9998 C   0  0  0  0  0  0  0  0  0  0  0  0
    9.2512    4.2713   13.7653 O   0  0  0  0  0  0  0  0  0  0  0  0
    9.6495    8.6317   16.8332 N   0  0  0  0  0  0  0  0  0  0  0  0
    6.2934    8.6988   23.1988 O   0  0  0  0  0  0  0  0  0  0  0  0
    7.9806    8.6543   20.5437 C   0  0  0  0  0  0  0  0  0  0  0  0
   13.7270    5.7144   19.8610 O   0  0  0  0  0  0  0  0  0  0  0  0
    8.3351    5.5235   15.4478 C   0  0  0  0  0  0  0  0  0  0  0  0
    8.7700    7.8434   21.3915 C   0  0  0  0  0  0  0  0  0  0  0  0
   11.7856    6.8851   19.2401 C   0  0  0  0  0  0  0  0  0  0  0  0
   10.5281    7.4276   19.5649 C   0  0  0  0  0  0  0  0  0  0  0  0
   10.0256    7.2907   20.8484 C   0  0  0  0  0  0  0  0  0  0  0  0
    9.3113    5.3049   14.4911 C   0  0  0  0  0  0  0  0  0  0  0  0
    9.4607    7.5646   16.0139 C   0  0  0  0  0  0  0  0  0  0  0  0
   10.4192    7.3157   15.0955 C   0  0  0  0  0  0  0  0  0  0  0  0
   10.2489    6.4227   23.0218 N   0  0  0  0  0  0  0  0  0  0  0  0
    7.2472    8.0746   23.5050 C   0  0  0  0  0  0  0  0  0  0  0  0
    9.2051    6.9101   23.4604 C   0  0  0  0  0  0  0  0  0  0  0  0
   11.9646    6.0299   21.4251 C   0  0  0  0  0  0  0  0  0  0  0  0
  1  5  1  0
  1 13  1  0
  2 20  2  0
  2 28  1  0
  2 29  1  0
  3 19  4  0
  3 25  4  0
  4 23  4  0
  4 27  1  0
  4 30  4  0
  5 17  1  0
  6  8  1  0
  6 29  1  0
  7 24  4  0
  7 26  4  0
  8 28  1  0
  9 13  2  0
 10 18  1  0
 10 21  4  0
 10 30  4  0
 11 17  2  0
 12 18  1  0
 13 15  1  0
 14 24  1  0
 15 25  1  0
 16 28  2  0
 17 20  1  0
 19 24  4  0
 20 23  1  0
 21 22  4  0
 22 23  4  0
 25 26  4  0
 27 29  2  0
M  END
$$$$

 Created by Python create_sdf_string function

 30 33  0  0  0  0  0  0  0  0999 V2000
    8.3036    9.8571   18.4133 C   0  0  0  0  0  0  0  0  0  0  0  0
    8.3694    7.6612   22.6703 C   0  0  0  0  0  0  0  0  0  0  0  0
    8.4143    6.6863   16.2273 C   0  0  0  0  0  0  0  0  0  0  0  0
   10.7581    6.5674   21.7636 C   0  0  0  0  0  0  0  0  0  0  0  0
    8.4452    8.7960   19.2958 O   0  0  0  0  0  0  0  0  0  0  0  0
    8.7122    6.7842   24.8569 C   0  0  0  0  0  0  0  0  0  0  0  0
   10.3400    6.1726   14.3081 C   0  0  0  0  0  0  0  0  0  0  0  0
    7.4297    7.5873   24.8962 C   0  0  0  0  0  0  0  0  0  0  0  0
    8.1566   10.0536   16.0516 O   0  0  0  0  0  0  0  0  0  0  0  0
   12.4989    6.2074   20.1776 C   0  0  0  0  0  0  0  0  0  0  0  0
    6.9192    9.1053   20.9073 O   0  0  0  0  0  0  0  0  0  0  0  0
   14.3979    6.0729   18.7784 C   0  0  0  0  0  0  0  0  0  0  0  0
    8.6811    9.5354   16.9998 C   0  0  0  0  0  0  0  0  0  0  0  0
    9.2512    4.2713   13.7653 O   0  0  0  0  0  0  0  0  0  0  0  0
    9.6495    8.6317   16.8332 N   0  0  0  0  0  0  0  0  0  0  0  0
    6.2934    8.6988   23.1988 O   0  0  0  0  0  0  0  0  0  0  0  0
    7.9806    8.6543   20.5437 C   0  0  0  0  0  0  0  0  0  0  0  0
   13.7270    5.7144   19.8610 O   0  0  0  0  0  0  0  0  0  0  0  0
    8.3351    5.5235   15.4478 C   0  0  0  0  0  0  0  0  0  0  0  0
    8.7700    7.8434   21.3915 C   0  0  0  0  0  0  0  0  0  0  0  0
   11.7856    6.8851   19.2401 C   0  0  0  0  0  0  0  0  0  0  0  0
   10.5281    7.4276   19.5649 C   0  0  0  0  0  0  0  0  0  0  0  0
   10.0256    7.2907   20.8484 C   0  0  0  0  0  0  0  0  0  0  0  0
    9.3113    5.3049   14.4911 C   0  0  0  0  0  0  0  0  0  0  0  0
    9.4607    7.5646   16.0139 C   0  0  0  0  0  0  0  0  0  0  0  0
   10.4192    7.3157   15.0955 C   0  0  0  0  0  0  0  0  0  0  0  0
   10.2489    6.4227   23.0218 N   0  0  0  0  0  0  0  0  0  0  0  0
    7.2472    8.0746   23.5050 C   0  0  0  0  0  0  0  0  0  0  0  0
    9.2051    6.9101   23.4604 C   0  0  0  0  0  0  0  0  0  0  0  0
   11.9646    6.0299   21.4251 C   0  0  0  0  0  0  0  0  0  0  0  0
  1  5  1  0
  1 13  1  0
  2 20  2  0
  2 28  1  0
  2 29  1  0
  3 19  4  0
  3 25  4  0
  4 23  4  0
  4 27  1  0
  4 30  4  0
  5 17  1  0
  6  8  1  0
  6 29  1  0
  7 24  4  0
  7 26  4  0
  8 28  1  0
  9 13  2  0
 10 18  1  0
 10 21  4  0
 10 30  4  0
 11 17  2  0
 12 18  1  0
 13 15  1  0
 14 24  1  0
 15 25  1  0
 16 28  2  0
 17 20  1  0
 19 24  4  0
 20 23  1  0
 21 22  4  0
 22 23  4  0
 25 26  4  0
 27 29  2  0
M  END
$$$$

 Created by Python create_sdf_string function

 30 33  0  0  0  0  0  0  0  0999 V2000
    8.3036    9.8571   18.4133 C   0  0  0  0  0  0  0  0  0  0  0  0
    8.3694    7.6612   22.6703 C   0  0  0  0  0  0  0  0  0  0  0  0
    8.4143    6.6863   16.2273 C   0  0  0  0  0  0  0  0  0  0  0  0
   10.7581    6.5674   21.7636 C   0  0  0  0  0  0  0  0  0  0  0  0
    8.4452    8.7960   19.2958 O   0  0  0  0  0  0  0  0  0  0  0  0
    8.7122    6.7842   24.8569 C   0  0  0  0  0  0  0  0  0  0  0  0
   10.3400    6.1726   14.3081 C   0  0  0  0  0  0  0  0  0  0  0  0
    7.4297    7.5873   24.8962 C   0  0  0  0  0  0  0  0  0  0  0  0
    8.1566   10.0536   16.0516 O   0  0  0  0  0  0  0  0  0  0  0  0
   12.4989    6.2074   20.1776 C   0  0  0  0  0  0  0  0  0  0  0  0
    6.9192    9.1053   20.9073 O   0  0  0  0  0  0  0  0  0  0  0  0
   14.3979    6.0729   18.7784 C   0  0  0  0  0  0  0  0  0  0  0  0
    8.6811    9.5354   16.9998 C   0  0  0  0  0  0  0  0  0  0  0  0
    9.2512    4.2713   13.7653 O   0  0  0  0  0  0  0  0  0  0  0  0
    9.6495    8.6317   16.8332 N   0  0  0  0  0  0  0  0  0  0  0  0
    6.2934    8.6988   23.1988 O   0  0  0  0  0  0  0  0  0  0  0  0
    7.9806    8.6543   20.5437 C   0  0  0  0  0  0  0  0  0  0  0  0
   13.7270    5.7144   19.8610 O   0  0  0  0  0  0  0  0  0  0  0  0
    8.3351    5.5235   15.4478 C   0  0  0  0  0  0  0  0  0  0  0  0
    8.7700    7.8434   21.3915 C   0  0  0  0  0  0  0  0  0  0  0  0
   11.7856    6.8851   19.2401 C   0  0  0  0  0  0  0  0  0  0  0  0
   10.5281    7.4276   19.5649 C   0  0  0  0  0  0  0  0  0  0  0  0
   10.0256    7.2907   20.8484 C   0  0  0  0  0  0  0  0  0  0  0  0
    9.3113    5.3049   14.4911 C   0  0  0  0  0  0  0  0  0  0  0  0
    9.4607    7.5646   16.0139 C   0  0  0  0  0  0  0  0  0  0  0  0
   10.4192    7.3157   15.0955 C   0  0  0  0  0  0  0  0  0  0  0  0
   10.2489    6.4227   23.0218 N   0  0  0  0  0  0  0  0  0  0  0  0
    7.2472    8.0746   23.5050 C   0  0  0  0  0  0  0  0  0  0  0  0
    9.2051    6.9101   23.4604 C   0  0  0  0  0  0  0  0  0  0  0  0
   11.9646    6.0299   21.4251 C   0  0  0  0  0  0  0  0  0  0  0  0
  1  5  1  0
  1 13  1  0
  2 20  2  0
  2 28  1  0
  2 29  1  0
  3 19  4  0
  3 25  4  0
  4 23  4  0
  4 27  1  0
  4 30  4  0
  5 17  1  0
  6  8  1  0
  6 29  1  0
  7 24  4  0
  7 26  4  0
  8 28  1  0
  9 13  2  0
 10 18  1  0
 10 21  4  0
 10 30  4  0
 11 17  2  0
 12 18  1  0
 13 15  1  0
 14 24  1  0
 15 25  1  0
 16 28  2  0
 17 20  1  0
 19 24  4  0
 20 23  1  0
 21 22  4  0
 22 23  4  0
 25 26  4  0
 27 29  2  0
M  END
$$$$

 Created by Python create_sdf_string function

 30 33  0  0  0  0  0  0  0  0999 V2000
    8.3036    9.8571   18.4133 C   0  0  0  0  0  0  0  0  0  0  0  0
    8.3694    7.6612   22.6703 C   0  0  0  0  0  0  0  0  0  0  0  0
    8.4143    6.6863   16.2273 C   0  0  0  0  0  0  0  0  0  0  0  0
   10.7581    6.5674   21.7636 C   0  0  0  0  0  0  0  0  0  0  0  0
    8.4452    8.7960   19.2958 O   0  0  0  0  0  0  0  0  0  0  0  0
    8.7122    6.7842   24.8569 C   0  0  0  0  0  0  0  0  0  0  0  0
   10.3400    6.1726   14.3081 C   0  0  0  0  0  0  0  0  0  0  0  0
    7.4297    7.5873   24.8962 C   0  0  0  0  0  0  0  0  0  0  0  0
    8.1566   10.0536   16.0516 O   0  0  0  0  0  0  0  0  0  0  0  0
   12.4989    6.2074   20.1776 C   0  0  0  0  0  0  0  0  0  0  0  0
    6.9192    9.1053   20.9073 O   0  0  0  0  0  0  0  0  0  0  0  0
   14.3979    6.0729   18.7784 C   0  0  0  0  0  0  0  0  0  0  0  0
    8.6811    9.5354   16.9998 C   0  0  0  0  0  0  0  0  0  0  0  0
    9.2512    4.2713   13.7653 O   0  0  0  0  0  0  0  0  0  0  0  0
    9.6495    8.6317   16.8332 N   0  0  0  0  0  0  0  0  0  0  0  0
    6.2934    8.6988   23.1988 O   0  0  0  0  0  0  0  0  0  0  0  0
    7.9806    8.6543   20.5437 C   0  0  0  0  0  0  0  0  0  0  0  0
   13.7270    5.7144   19.8610 O   0  0  0  0  0  0  0  0  0  0  0  0
    8.3351    5.5235   15.4478 C   0  0  0  0  0  0  0  0  0  0  0  0
    8.7700    7.8434   21.3915 C   0  0  0  0  0  0  0  0  0  0  0  0
   11.7856    6.8851   19.2401 C   0  0  0  0  0  0  0  0  0  0  0  0
   10.5281    7.4276   19.5649 C   0  0  0  0  0  0  0  0  0  0  0  0
   10.0256    7.2907   20.8484 C   0  0  0  0  0  0  0  0  0  0  0  0
    9.3113    5.3049   14.4911 C   0  0  0  0  0  0  0  0  0  0  0  0
    9.4607    7.5646   16.0139 C   0  0  0  0  0  0  0  0  0  0  0  0
   10.4192    7.3157   15.0955 C   0  0  0  0  0  0  0  0  0  0  0  0
   10.2489    6.4227   23.0218 N   0  0  0  0  0  0  0  0  0  0  0  0
    7.2472    8.0746   23.5050 C   0  0  0  0  0  0  0  0  0  0  0  0
    9.2051    6.9101   23.4604 C   0  0  0  0  0  0  0  0  0  0  0  0
   11.9646    6.0299   21.4251 C   0  0  0  0  0  0  0  0  0  0  0  0
  1  5  1  0
  1 13  1  0
  2 20  2  0
  2 28  1  0
  2 29  1  0
  3 19  4  0
  3 25  4  0
  4 23  4  0
  4 27  1  0
  4 30  4  0
  5 17  1  0
  6  8  1  0
  6 29  1  0
  7 24  4  0
  7 26  4  0
  8 28  1  0
  9 13  2  0
 10 18  1  0
 10 21  4  0
 10 30  4  0
 11 17  2  0
 12 18  1  0
 13 15  1  0
 14 24  1  0
 15 25  1  0
 16 28  2  0
 17 20  1  0
 19 24  4  0
 20 23  1  0
 21 22  4  0
 22 23  4  0
 25 26  4  0
 27 29  2  0
M  END
$$$$

 Created by Python create_sdf_string function

 30 33  0  0  0  0  0  0  0  0999 V2000
    8.3036    9.8571   18.4133 C   0  0  0  0  0  0  0  0  0  0  0  0
    8.3694    7.6612   22.6703 C   0  0  0  0  0  0  0  0  0  0  0  0
    8.4143    6.6863   16.2273 C   0  0  0  0  0  0  0  0  0  0  0  0
   10.7581    6.5674   21.7636 C   0  0  0  0  0  0  0  0  0  0  0  0
    8.4452    8.7960   19.2958 O   0  0  0  0  0  0  0  0  0  0  0  0
    8.7122    6.7842   24.8569 C   0  0  0  0  0  0  0  0  0  0  0  0
   10.3400    6.1726   14.3081 C   0  0  0  0  0  0  0  0  0  0  0  0
    7.4297    7.5873   24.8962 C   0  0  0  0  0  0  0  0  0  0  0  0
    8.1566   10.0536   16.0516 O   0  0  0  0  0  0  0  0  0  0  0  0
   12.4989    6.2074   20.1776 C   0  0  0  0  0  0  0  0  0  0  0  0
    6.9192    9.1053   20.9073 O   0  0  0  0  0  0  0  0  0  0  0  0
   14.3979    6.0729   18.7784 C   0  0  0  0  0  0  0  0  0  0  0  0
    8.6811    9.5354   16.9998 C   0  0  0  0  0  0  0  0  0  0  0  0
    9.2512    4.2713   13.7653 O   0  0  0  0  0  0  0  0  0  0  0  0
    9.6495    8.6317   16.8332 N   0  0  0  0  0  0  0  0  0  0  0  0
    6.2934    8.6988   23.1988 O   0  0  0  0  0  0  0  0  0  0  0  0
    7.9806    8.6543   20.5437 C   0  0  0  0  0  0  0  0  0  0  0  0
   13.7270    5.7144   19.8610 O   0  0  0  0  0  0  0  0  0  0  0  0
    8.3351    5.5235   15.4478 C   0  0  0  0  0  0  0  0  0  0  0  0
    8.7700    7.8434   21.3915 C   0  0  0  0  0  0  0  0  0  0  0  0
   11.7856    6.8851   19.2401 C   0  0  0  0  0  0  0  0  0  0  0  0
   10.5281    7.4276   19.5649 C   0  0  0  0  0  0  0  0  0  0  0  0
   10.0256    7.2907   20.8484 C   0  0  0  0  0  0  0  0  0  0  0  0
    9.3113    5.3049   14.4911 C   0  0  0  0  0  0  0  0  0  0  0  0
    9.4607    7.5646   16.0139 C   0  0  0  0  0  0  0  0  0  0  0  0
   10.4192    7.3157   15.0955 C   0  0  0  0  0  0  0  0  0  0  0  0
   10.2489    6.4227   23.0218 N   0  0  0  0  0  0  0  0  0  0  0  0
    7.2472    8.0746   23.5050 C   0  0  0  0  0  0  0  0  0  0  0  0
    9.2051    6.9101   23.4604 C   0  0  0  0  0  0  0  0  0  0  0  0
   11.9646    6.0299   21.4251 C   0  0  0  0  0  0  0  0  0  0  0  0
  1  5  1  0
  1 13  1  0
  2 20  2  0
  2 28  1  0
  2 29  1  0
  3 19  4  0
  3 25  4  0
  4 23  4  0
  4 27  1  0
  4 30  4  0
  5 17  1  0
  6  8  1  0
  6 29  1  0
  7 24  4  0
  7 26  4  0
  8 28  1  0
  9 13  2  0
 10 18  1  0
 10 21  4  0
 10 30  4  0
 11 17  2  0
 12 18  1  0
 13 15  1  0
 14 24  1  0
 15 25  1  0
 16 28  2  0
 17 20  1  0
 19 24  4  0
 20 23  1  0
 21 22  4  0
 22 23  4  0
 25 26  4  0
 27 29  2  0
M  END
$$$$

 Created by Python create_sdf_string function

 30 33  0  0  0  0  0  0  0  0999 V2000
    8.3036    9.8571   18.4133 C   0  0  0  0  0  0  0  0  0  0  0  0
    8.3694    7.6612   22.6703 C   0  0  0  0  0  0  0  0  0  0  0  0
    8.4143    6.6863   16.2273 C   0  0  0  0  0  0  0  0  0  0  0  0
   10.7581    6.5674   21.7636 C   0  0  0  0  0  0  0  0  0  0  0  0
    8.4452    8.7960   19.2958 O   0  0  0  0  0  0  0  0  0  0  0  0
    8.7122    6.7842   24.8569 C   0  0  0  0  0  0  0  0  0  0  0  0
   10.3400    6.1726   14.3081 C   0  0  0  0  0  0  0  0  0  0  0  0
    7.4297    7.5873   24.8962 C   0  0  0  0  0  0  0  0  0  0  0  0
    8.1566   10.0536   16.0516 O   0  0  0  0  0  0  0  0  0  0  0  0
   12.4989    6.2074   20.1776 C   0  0  0  0  0  0  0  0  0  0  0  0
    6.9192    9.1053   20.9073 O   0  0  0  0  0  0  0  0  0  0  0  0
   14.3979    6.0729   18.7784 C   0  0  0  0  0  0  0  0  0  0  0  0
    8.6811    9.5354   16.9998 C   0  0  0  0  0  0  0  0  0  0  0  0
    9.2512    4.2713   13.7653 O   0  0  0  0  0  0  0  0  0  0  0  0
    9.6495    8.6317   16.8332 N   0  0  0  0  0  0  0  0  0  0  0  0
    6.2934    8.6988   23.1988 O   0  0  0  0  0  0  0  0  0  0  0  0
    7.9806    8.6543   20.5437 C   0  0  0  0  0  0  0  0  0  0  0  0
   13.7270    5.7144   19.8610 O   0  0  0  0  0  0  0  0  0  0  0  0
    8.3351    5.5235   15.4478 C   0  0  0  0  0  0  0  0  0  0  0  0
    8.7700    7.8434   21.3915 C   0  0  0  0  0  0  0  0  0  0  0  0
   11.7856    6.8851   19.2401 C   0  0  0  0  0  0  0  0  0  0  0  0
   10.5281    7.4276   19.5649 C   0  0  0  0  0  0  0  0  0  0  0  0
   10.0256    7.2907   20.8484 C   0  0  0  0  0  0  0  0  0  0  0  0
    9.3113    5.3049   14.4911 C   0  0  0  0  0  0  0  0  0  0  0  0
    9.4607    7.5646   16.0139 C   0  0  0  0  0  0  0  0  0  0  0  0
   10.4192    7.3157   15.0955 C   0  0  0  0  0  0  0  0  0  0  0  0
   10.2489    6.4227   23.0218 N   0  0  0  0  0  0  0  0  0  0  0  0
    7.2472    8.0746   23.5050 C   0  0  0  0  0  0  0  0  0  0  0  0
    9.2051    6.9101   23.4604 C   0  0  0  0  0  0  0  0  0  0  0  0
   11.9646    6.0299   21.4251 C   0  0  0  0  0  0  0  0  0  0  0  0
  1  5  1  0
  1 13  1  0
  2 20  2  0
  2 28  1  0
  2 29  1  0
  3 19  4  0
  3 25  4  0
  4 23  4  0
  4 27  1  0
  4 30  4  0
  5 17  1  0
  6  8  1  0
  6 29  1  0
  7 24  4  0
  7 26  4  0
  8 28  1  0
  9 13  2  0
 10 18  1  0
 10 21  4  0
 10 30  4  0
 11 17  2  0
 12 18  1  0
 13 15  1  0
 14 24  1  0
 15 25  1  0
 16 28  2  0
 17 20  1  0
 19 24  4  0
 20 23  1  0
 21 22  4  0
 22 23  4  0
 25 26  4  0
 27 29  2  0
M  END
$$$$

 Created by Python create_sdf_string function

 30 33  0  0  0  0  0  0  0  0999 V2000
    8.3036    9.8571   18.4133 C   0  0  0  0  0  0  0  0  0  0  0  0
    8.3694    7.6612   22.6703 C   0  0  0  0  0  0  0  0  0  0  0  0
    8.4143    6.6863   16.2273 C   0  0  0  0  0  0  0  0  0  0  0  0
   10.7581    6.5674   21.7636 C   0  0  0  0  0  0  0  0  0  0  0  0
    8.4452    8.7960   19.2958 O   0  0  0  0  0  0  0  0  0  0  0  0
    8.7122    6.7842   24.8569 C   0  0  0  0  0  0  0  0  0  0  0  0
   10.3400    6.1726   14.3081 C   0  0  0  0  0  0  0  0  0  0  0  0
    7.4297    7.5873   24.8962 C   0  0  0  0  0  0  0  0  0  0  0  0
    8.1566   10.0536   16.0516 O   0  0  0  0  0  0  0  0  0  0  0  0
   12.4989    6.2074   20.1776 C   0  0  0  0  0  0  0  0  0  0  0  0
    6.9192    9.1053   20.9073 O   0  0  0  0  0  0  0  0  0  0  0  0
   14.3979    6.0729   18.7784 C   0  0  0  0  0  0  0  0  0  0  0  0
    8.6811    9.5354   16.9998 C   0  0  0  0  0  0  0  0  0  0  0  0
    9.2512    4.2713   13.7653 O   0  0  0  0  0  0  0  0  0  0  0  0
    9.6495    8.6317   16.8332 N   0  0  0  0  0  0  0  0  0  0  0  0
    6.2934    8.6988   23.1988 O   0  0  0  0  0  0  0  0  0  0  0  0
    7.9806    8.6543   20.5437 C   0  0  0  0  0  0  0  0  0  0  0  0
   13.7270    5.7144   19.8610 O   0  0  0  0  0  0  0  0  0  0  0  0
    8.3351    5.5235   15.4478 C   0  0  0  0  0  0  0  0  0  0  0  0
    8.7700    7.8434   21.3915 C   0  0  0  0  0  0  0  0  0  0  0  0
   11.7856    6.8851   19.2401 C   0  0  0  0  0  0  0  0  0  0  0  0
   10.5281    7.4276   19.5649 C   0  0  0  0  0  0  0  0  0  0  0  0
   10.0256    7.2907   20.8484 C   0  0  0  0  0  0  0  0  0  0  0  0
    9.3113    5.3049   14.4911 C   0  0  0  0  0  0  0  0  0  0  0  0
    9.4607    7.5646   16.0139 C   0  0  0  0  0  0  0  0  0  0  0  0
   10.4192    7.3157   15.0955 C   0  0  0  0  0  0  0  0  0  0  0  0
   10.2489    6.4227   23.0218 N   0  0  0  0  0  0  0  0  0  0  0  0
    7.2472    8.0746   23.5050 C   0  0  0  0  0  0  0  0  0  0  0  0
    9.2051    6.9101   23.4604 C   0  0  0  0  0  0  0  0  0  0  0  0
   11.9646    6.0299   21.4251 C   0  0  0  0  0  0  0  0  0  0  0  0
  1  5  1  0
  1 13  1  0
  2 20  2  0
  2 28  1  0
  2 29  1  0
  3 19  4  0
  3 25  4  0
  4 23  4  0
  4 27  1  0
  4 30  4  0
  5 17  1  0
  6  8  1  0
  6 29  1  0
  7 24  4  0
  7 26  4  0
  8 28  1  0
  9 13  2  0
 10 18  1  0
 10 21  4  0
 10 30  4  0
 11 17  2  0
 12 18  1  0
 13 15  1  0
 14 24  1  0
 15 25  1  0
 16 28  2  0
 17 20  1  0
 19 24  4  0
 20 23  1  0
 21 22  4  0
 22 23  4  0
 25 26  4  0
 27 29  2  0
M  END
$$$$

 Created by Python create_sdf_string function

 30 33  0  0  0  0  0  0  0  0999 V2000
    8.3036    9.8571   18.4133 C   0  0  0  0  0  0  0  0  0  0  0  0
    8.3694    7.6612   22.6703 C   0  0  0  0  0  0  0  0  0  0  0  0
    8.4143    6.6863   16.2273 C   0  0  0  0  0  0  0  0  0  0  0  0
   10.7581    6.5674   21.7636 C   0  0  0  0  0  0  0  0  0  0  0  0
    8.4452    8.7960   19.2958 O   0  0  0  0  0  0  0  0  0  0  0  0
    8.7122    6.7842   24.8569 C   0  0  0  0  0  0  0  0  0  0  0  0
   10.3400    6.1726   14.3081 C   0  0  0  0  0  0  0  0  0  0  0  0
    7.4297    7.5873   24.8962 C   0  0  0  0  0  0  0  0  0  0  0  0
    8.1566   10.0536   16.0516 O   0  0  0  0  0  0  0  0  0  0  0  0
   12.4989    6.2074   20.1776 C   0  0  0  0  0  0  0  0  0  0  0  0
    6.9192    9.1053   20.9073 O   0  0  0  0  0  0  0  0  0  0  0  0
   14.3979    6.0729   18.7784 C   0  0  0  0  0  0  0  0  0  0  0  0
    8.6811    9.5354   16.9998 C   0  0  0  0  0  0  0  0  0  0  0  0
    9.2512    4.2713   13.7653 O   0  0  0  0  0  0  0  0  0  0  0  0
    9.6495    8.6317   16.8332 N   0  0  0  0  0  0  0  0  0  0  0  0
    6.2934    8.6988   23.1988 O   0  0  0  0  0  0  0  0  0  0  0  0
    7.9806    8.6543   20.5437 C   0  0  0  0  0  0  0  0  0  0  0  0
   13.7270    5.7144   19.8610 O   0  0  0  0  0  0  0  0  0  0  0  0
    8.3351    5.5235   15.4478 C   0  0  0  0  0  0  0  0  0  0  0  0
    8.7700    7.8434   21.3915 C   0  0  0  0  0  0  0  0  0  0  0  0
   11.7856    6.8851   19.2401 C   0  0  0  0  0  0  0  0  0  0  0  0
   10.5281    7.4276   19.5649 C   0  0  0  0  0  0  0  0  0  0  0  0
   10.0256    7.2907   20.8484 C   0  0  0  0  0  0  0  0  0  0  0  0
    9.3113    5.3049   14.4911 C   0  0  0  0  0  0  0  0  0  0  0  0
    9.4607    7.5646   16.0139 C   0  0  0  0  0  0  0  0  0  0  0  0
   10.4192    7.3157   15.0955 C   0  0  0  0  0  0  0  0  0  0  0  0
   10.2489    6.4227   23.0218 N   0  0  0  0  0  0  0  0  0  0  0  0
    7.2472    8.0746   23.5050 C   0  0  0  0  0  0  0  0  0  0  0  0
    9.2051    6.9101   23.4604 C   0  0  0  0  0  0  0  0  0  0  0  0
   11.9646    6.0299   21.4251 C   0  0  0  0  0  0  0  0  0  0  0  0
  1  5  1  0
  1 13  1  0
  2 20  2  0
  2 28  1  0
  2 29  1  0
  3 19  4  0
  3 25  4  0
  4 23  4  0
  4 27  1  0
  4 30  4  0
  5 17  1  0
  6  8  1  0
  6 29  1  0
  7 24  4  0
  7 26  4  0
  8 28  1  0
  9 13  2  0
 10 18  1  0
 10 21  4  0
 10 30  4  0
 11 17  2  0
 12 18  1  0
 13 15  1  0
 14 24  1  0
 15 25  1  0
 16 28  2  0
 17 20  1  0
 19 24  4  0
 20 23  1  0
 21 22  4  0
 22 23  4  0
 25 26  4  0
 27 29  2  0
M  END
$$$$

 Created by Python create_sdf_string function

 30 33  0  0  0  0  0  0  0  0999 V2000
    8.3036    9.8571   18.4133 C   0  0  0  0  0  0  0  0  0  0  0  0
    8.3694    7.6612   22.6703 C   0  0  0  0  0  0  0  0  0  0  0  0
    8.4143    6.6863   16.2273 C   0  0  0  0  0  0  0  0  0  0  0  0
   10.7581    6.5674   21.7636 C   0  0  0  0  0  0  0  0  0  0  0  0
    8.4452    8.7960   19.2958 O   0  0  0  0  0  0  0  0  0  0  0  0
    8.7122    6.7842   24.8569 C   0  0  0  0  0  0  0  0  0  0  0  0
   10.3400    6.1726   14.3081 C   0  0  0  0  0  0  0  0  0  0  0  0
    7.4297    7.5873   24.8962 C   0  0  0  0  0  0  0  0  0  0  0  0
    8.1566   10.0536   16.0516 O   0  0  0  0  0  0  0  0  0  0  0  0
   12.4989    6.2074   20.1776 C   0  0  0  0  0  0  0  0  0  0  0  0
    6.9192    9.1053   20.9073 O   0  0  0  0  0  0  0  0  0  0  0  0
   14.3979    6.0729   18.7784 C   0  0  0  0  0  0  0  0  0  0  0  0
    8.6811    9.5354   16.9998 C   0  0  0  0  0  0  0  0  0  0  0  0
    9.2512    4.2713   13.7653 O   0  0  0  0  0  0  0  0  0  0  0  0
    9.6495    8.6317   16.8332 N   0  0  0  0  0  0  0  0  0  0  0  0
    6.2934    8.6988   23.1988 O   0  0  0  0  0  0  0  0  0  0  0  0
    7.9806    8.6543   20.5437 C   0  0  0  0  0  0  0  0  0  0  0  0
   13.7270    5.7144   19.8610 O   0  0  0  0  0  0  0  0  0  0  0  0
    8.3351    5.5235   15.4478 C   0  0  0  0  0  0  0  0  0  0  0  0
    8.7700    7.8434   21.3915 C   0  0  0  0  0  0  0  0  0  0  0  0
   11.7856    6.8851   19.2401 C   0  0  0  0  0  0  0  0  0  0  0  0
   10.5281    7.4276   19.5649 C   0  0  0  0  0  0  0  0  0  0  0  0
   10.0256    7.2907   20.8484 C   0  0  0  0  0  0  0  0  0  0  0  0
    9.3113    5.3049   14.4911 C   0  0  0  0  0  0  0  0  0  0  0  0
    9.4607    7.5646   16.0139 C   0  0  0  0  0  0  0  0  0  0  0  0
   10.4192    7.3157   15.0955 C   0  0  0  0  0  0  0  0  0  0  0  0
   10.2489    6.4227   23.0218 N   0  0  0  0  0  0  0  0  0  0  0  0
    7.2472    8.0746   23.5050 C   0  0  0  0  0  0  0  0  0  0  0  0
    9.2051    6.9101   23.4604 C   0  0  0  0  0  0  0  0  0  0  0  0
   11.9646    6.0299   21.4251 C   0  0  0  0  0  0  0  0  0  0  0  0
  1  5  1  0
  1 13  1  0
  2 20  2  0
  2 28  1  0
  2 29  1  0
  3 19  4  0
  3 25  4  0
  4 23  4  0
  4 27  1  0
  4 30  4  0
  5 17  1  0
  6  8  1  0
  6 29  1  0
  7 24  4  0
  7 26  4  0
  8 28  1  0
  9 13  2  0
 10 18  1  0
 10 21  4  0
 10 30  4  0
 11 17  2  0
 12 18  1  0
 13 15  1  0
 14 24  1  0
 15 25  1  0
 16 28  2  0
 17 20  1  0
 19 24  4  0
 20 23  1  0
 21 22  4  0
 22 23  4  0
 25 26  4  0
 27 29  2  0
M  END
$$$$

 Created by Python create_sdf_string function

 30 33  0  0  0  0  0  0  0  0999 V2000
    8.3036    9.8571   18.4133 C   0  0  0  0  0  0  0  0  0  0  0  0
    8.3694    7.6612   22.6703 C   0  0  0  0  0  0  0  0  0  0  0  0
    8.4143    6.6863   16.2273 C   0  0  0  0  0  0  0  0  0  0  0  0
   10.7581    6.5674   21.7636 C   0  0  0  0  0  0  0  0  0  0  0  0
    8.4452    8.7960   19.2958 O   0  0  0  0  0  0  0  0  0  0  0  0
    8.7122    6.7842   24.8569 C   0  0  0  0  0  0  0  0  0  0  0  0
   10.3400    6.1726   14.3081 C   0  0  0  0  0  0  0  0  0  0  0  0
    7.4297    7.5873   24.8962 C   0  0  0  0  0  0  0  0  0  0  0  0
    8.1566   10.0536   16.0516 O   0  0  0  0  0  0  0  0  0  0  0  0
   12.4989    6.2074   20.1776 C   0  0  0  0  0  0  0  0  0  0  0  0
    6.9192    9.1053   20.9073 O   0  0  0  0  0  0  0  0  0  0  0  0
   14.3979    6.0729   18.7784 C   0  0  0  0  0  0  0  0  0  0  0  0
    8.6811    9.5354   16.9998 C   0  0  0  0  0  0  0  0  0  0  0  0
    9.2512    4.2713   13.7653 O   0  0  0  0  0  0  0  0  0  0  0  0
    9.6495    8.6317   16.8332 N   0  0  0  0  0  0  0  0  0  0  0  0
    6.2934    8.6988   23.1988 O   0  0  0  0  0  0  0  0  0  0  0  0
    7.9806    8.6543   20.5437 C   0  0  0  0  0  0  0  0  0  0  0  0
   13.7270    5.7144   19.8610 O   0  0  0  0  0  0  0  0  0  0  0  0
    8.3351    5.5235   15.4478 C   0  0  0  0  0  0  0  0  0  0  0  0
    8.7700    7.8434   21.3915 C   0  0  0  0  0  0  0  0  0  0  0  0
   11.7856    6.8851   19.2401 C   0  0  0  0  0  0  0  0  0  0  0  0
   10.5281    7.4276   19.5649 C   0  0  0  0  0  0  0  0  0  0  0  0
   10.0256    7.2907   20.8484 C   0  0  0  0  0  0  0  0  0  0  0  0
    9.3113    5.3049   14.4911 C   0  0  0  0  0  0  0  0  0  0  0  0
    9.4607    7.5646   16.0139 C   0  0  0  0  0  0  0  0  0  0  0  0
   10.4192    7.3157   15.0955 C   0  0  0  0  0  0  0  0  0  0  0  0
   10.2489    6.4227   23.0218 N   0  0  0  0  0  0  0  0  0  0  0  0
    7.2472    8.0746   23.5050 C   0  0  0  0  0  0  0  0  0  0  0  0
    9.2051    6.9101   23.4604 C   0  0  0  0  0  0  0  0  0  0  0  0
   11.9646    6.0299   21.4251 C   0  0  0  0  0  0  0  0  0  0  0  0
  1  5  1  0
  1 13  1  0
  2 20  2  0
  2 28  1  0
  2 29  1  0
  3 19  4  0
  3 25  4  0
  4 23  4  0
  4 27  1  0
  4 30  4  0
  5 17  1  0
  6  8  1  0
  6 29  1  0
  7 24  4  0
  7 26  4  0
  8 28  1  0
  9 13  2  0
 10 18  1  0
 10 21  4  0
 10 30  4  0
 11 17  2  0
 12 18  1  0
 13 15  1  0
 14 24  1  0
 15 25  1  0
 16 28  2  0
 17 20  1  0
 19 24  4  0
 20 23  1  0
 21 22  4  0
 22 23  4  0
 25 26  4  0
 27 29  2  0
M  END
$$$$

 Created by Python create_sdf_string function

 30 33  0  0  0  0  0  0  0  0999 V2000
    8.3036    9.8571   18.4133 C   0  0  0  0  0  0  0  0  0  0  0  0
    8.3694    7.6612   22.6703 C   0  0  0  0  0  0  0  0  0  0  0  0
    8.4143    6.6863   16.2273 C   0  0  0  0  0  0  0  0  0  0  0  0
   10.7581    6.5674   21.7636 C   0  0  0  0  0  0  0  0  0  0  0  0
    8.4452    8.7960   19.2958 O   0  0  0  0  0  0  0  0  0  0  0  0
    8.7122    6.7842   24.8569 C   0  0  0  0  0  0  0  0  0  0  0  0
   10.3400    6.1726   14.3081 C   0  0  0  0  0  0  0  0  0  0  0  0
    7.4297    7.5873   24.8962 C   0  0  0  0  0  0  0  0  0  0  0  0
    8.1566   10.0536   16.0516 O   0  0  0  0  0  0  0  0  0  0  0  0
   12.4989    6.2074   20.1776 C   0  0  0  0  0  0  0  0  0  0  0  0
    6.9192    9.1053   20.9073 O   0  0  0  0  0  0  0  0  0  0  0  0
   14.3979    6.0729   18.7784 C   0  0  0  0  0  0  0  0  0  0  0  0
    8.6811    9.5354   16.9998 C   0  0  0  0  0  0  0  0  0  0  0  0
    9.2512    4.2713   13.7653 O   0  0  0  0  0  0  0  0  0  0  0  0
    9.6495    8.6317   16.8332 N   0  0  0  0  0  0  0  0  0  0  0  0
    6.2934    8.6988   23.1988 O   0  0  0  0  0  0  0  0  0  0  0  0
    7.9806    8.6543   20.5437 C   0  0  0  0  0  0  0  0  0  0  0  0
   13.7270    5.7144   19.8610 O   0  0  0  0  0  0  0  0  0  0  0  0
    8.3351    5.5235   15.4478 C   0  0  0  0  0  0  0  0  0  0  0  0
    8.7700    7.8434   21.3915 C   0  0  0  0  0  0  0  0  0  0  0  0
   11.7856    6.8851   19.2401 C   0  0  0  0  0  0  0  0  0  0  0  0
   10.5281    7.4276   19.5649 C   0  0  0  0  0  0  0  0  0  0  0  0
   10.0256    7.2907   20.8484 C   0  0  0  0  0  0  0  0  0  0  0  0
    9.3113    5.3049   14.4911 C   0  0  0  0  0  0  0  0  0  0  0  0
    9.4607    7.5646   16.0139 C   0  0  0  0  0  0  0  0  0  0  0  0
   10.4192    7.3157   15.0955 C   0  0  0  0  0  0  0  0  0  0  0  0
   10.2489    6.4227   23.0218 N   0  0  0  0  0  0  0  0  0  0  0  0
    7.2472    8.0746   23.5050 C   0  0  0  0  0  0  0  0  0  0  0  0
    9.2051    6.9101   23.4604 C   0  0  0  0  0  0  0  0  0  0  0  0
   11.9646    6.0299   21.4251 C   0  0  0  0  0  0  0  0  0  0  0  0
  1  5  1  0
  1 13  1  0
  2 20  2  0
  2 28  1  0
  2 29  1  0
  3 19  4  0
  3 25  4  0
  4 23  4  0
  4 27  1  0
  4 30  4  0
  5 17  1  0
  6  8  1  0
  6 29  1  0
  7 24  4  0
  7 26  4  0
  8 28  1  0
  9 13  2  0
 10 18  1  0
 10 21  4  0
 10 30  4  0
 11 17  2  0
 12 18  1  0
 13 15  1  0
 14 24  1  0
 15 25  1  0
 16 28  2  0
 17 20  1  0
 19 24  4  0
 20 23  1  0
 21 22  4  0
 22 23  4  0
 25 26  4  0
 27 29  2  0
M  END
$$$$

 Created by Python create_sdf_string function

 30 33  0  0  0  0  0  0  0  0999 V2000
    8.3036    9.8571   18.4133 C   0  0  0  0  0  0  0  0  0  0  0  0
    8.3694    7.6612   22.6703 C   0  0  0  0  0  0  0  0  0  0  0  0
    8.4143    6.6863   16.2273 C   0  0  0  0  0  0  0  0  0  0  0  0
   10.7581    6.5674   21.7636 C   0  0  0  0  0  0  0  0  0  0  0  0
    8.4452    8.7960   19.2958 O   0  0  0  0  0  0  0  0  0  0  0  0
    8.7122    6.7842   24.8569 C   0  0  0  0  0  0  0  0  0  0  0  0
   10.3400    6.1726   14.3081 C   0  0  0  0  0  0  0  0  0  0  0  0
    7.4297    7.5873   24.8962 C   0  0  0  0  0  0  0  0  0  0  0  0
    8.1566   10.0536   16.0516 O   0  0  0  0  0  0  0  0  0  0  0  0
   12.4989    6.2074   20.1776 C   0  0  0  0  0  0  0  0  0  0  0  0
    6.9192    9.1053   20.9073 O   0  0  0  0  0  0  0  0  0  0  0  0
   14.3979    6.0729   18.7784 C   0  0  0  0  0  0  0  0  0  0  0  0
    8.6811    9.5354   16.9998 C   0  0  0  0  0  0  0  0  0  0  0  0
    9.2512    4.2713   13.7653 O   0  0  0  0  0  0  0  0  0  0  0  0
    9.6495    8.6317   16.8332 N   0  0  0  0  0  0  0  0  0  0  0  0
    6.2934    8.6988   23.1988 O   0  0  0  0  0  0  0  0  0  0  0  0
    7.9806    8.6543   20.5437 C   0  0  0  0  0  0  0  0  0  0  0  0
   13.7270    5.7144   19.8610 O   0  0  0  0  0  0  0  0  0  0  0  0
    8.3351    5.5235   15.4478 C   0  0  0  0  0  0  0  0  0  0  0  0
    8.7700    7.8434   21.3915 C   0  0  0  0  0  0  0  0  0  0  0  0
   11.7856    6.8851   19.2401 C   0  0  0  0  0  0  0  0  0  0  0  0
   10.5281    7.4276   19.5649 C   0  0  0  0  0  0  0  0  0  0  0  0
   10.0256    7.2907   20.8484 C   0  0  0  0  0  0  0  0  0  0  0  0
    9.3113    5.3049   14.4911 C   0  0  0  0  0  0  0  0  0  0  0  0
    9.4607    7.5646   16.0139 C   0  0  0  0  0  0  0  0  0  0  0  0
   10.4192    7.3157   15.0955 C   0  0  0  0  0  0  0  0  0  0  0  0
   10.2489    6.4227   23.0218 N   0  0  0  0  0  0  0  0  0  0  0  0
    7.2472    8.0746   23.5050 C   0  0  0  0  0  0  0  0  0  0  0  0
    9.2051    6.9101   23.4604 C   0  0  0  0  0  0  0  0  0  0  0  0
   11.9646    6.0299   21.4251 C   0  0  0  0  0  0  0  0  0  0  0  0
  1  5  1  0
  1 13  1  0
  2 20  2  0
  2 28  1  0
  2 29  1  0
  3 19  4  0
  3 25  4  0
  4 23  4  0
  4 27  1  0
  4 30  4  0
  5 17  1  0
  6  8  1  0
  6 29  1  0
  7 24  4  0
  7 26  4  0
  8 28  1  0
  9 13  2  0
 10 18  1  0
 10 21  4  0
 10 30  4  0
 11 17  2  0
 12 18  1  0
 13 15  1  0
 14 24  1  0
 15 25  1  0
 16 28  2  0
 17 20  1  0
 19 24  4  0
 20 23  1  0
 21 22  4  0
 22 23  4  0
 25 26  4  0
 27 29  2  0
M  END
$$$$

 Created by Python create_sdf_string function

 30 33  0  0  0  0  0  0  0  0999 V2000
    8.3036    9.8571   18.4133 C   0  0  0  0  0  0  0  0  0  0  0  0
    8.3694    7.6612   22.6703 C   0  0  0  0  0  0  0  0  0  0  0  0
    8.4143    6.6863   16.2273 C   0  0  0  0  0  0  0  0  0  0  0  0
   10.7581    6.5674   21.7636 C   0  0  0  0  0  0  0  0  0  0  0  0
    8.4452    8.7960   19.2958 O   0  0  0  0  0  0  0  0  0  0  0  0
    8.7122    6.7842   24.8569 C   0  0  0  0  0  0  0  0  0  0  0  0
   10.3400    6.1726   14.3081 C   0  0  0  0  0  0  0  0  0  0  0  0
    7.4297    7.5873   24.8962 C   0  0  0  0  0  0  0  0  0  0  0  0
    8.1566   10.0536   16.0516 O   0  0  0  0  0  0  0  0  0  0  0  0
   12.4989    6.2074   20.1776 C   0  0  0  0  0  0  0  0  0  0  0  0
    6.9192    9.1053   20.9073 O   0  0  0  0  0  0  0  0  0  0  0  0
   14.3979    6.0729   18.7784 C   0  0  0  0  0  0  0  0  0  0  0  0
    8.6811    9.5354   16.9998 C   0  0  0  0  0  0  0  0  0  0  0  0
    9.2512    4.2713   13.7653 O   0  0  0  0  0  0  0  0  0  0  0  0
    9.6495    8.6317   16.8332 N   0  0  0  0  0  0  0  0  0  0  0  0
    6.2934    8.6988   23.1988 O   0  0  0  0  0  0  0  0  0  0  0  0
    7.9806    8.6543   20.5437 C   0  0  0  0  0  0  0  0  0  0  0  0
   13.7270    5.7144   19.8610 O   0  0  0  0  0  0  0  0  0  0  0  0
    8.3351    5.5235   15.4478 C   0  0  0  0  0  0  0  0  0  0  0  0
    8.7700    7.8434   21.3915 C   0  0  0  0  0  0  0  0  0  0  0  0
   11.7856    6.8851   19.2401 C   0  0  0  0  0  0  0  0  0  0  0  0
   10.5281    7.4276   19.5649 C   0  0  0  0  0  0  0  0  0  0  0  0
   10.0256    7.2907   20.8484 C   0  0  0  0  0  0  0  0  0  0  0  0
    9.3113    5.3049   14.4911 C   0  0  0  0  0  0  0  0  0  0  0  0
    9.4607    7.5646   16.0139 C   0  0  0  0  0  0  0  0  0  0  0  0
   10.4192    7.3157   15.0955 C   0  0  0  0  0  0  0  0  0  0  0  0
   10.2489    6.4227   23.0218 N   0  0  0  0  0  0  0  0  0  0  0  0
    7.2472    8.0746   23.5050 C   0  0  0  0  0  0  0  0  0  0  0  0
    9.2051    6.9101   23.4604 C   0  0  0  0  0  0  0  0  0  0  0  0
   11.9646    6.0299   21.4251 C   0  0  0  0  0  0  0  0  0  0  0  0
  1  5  1  0
  1 13  1  0
  2 20  2  0
  2 28  1  0
  2 29  1  0
  3 19  4  0
  3 25  4  0
  4 23  4  0
  4 27  1  0
  4 30  4  0
  5 17  1  0
  6  8  1  0
  6 29  1  0
  7 24  4  0
  7 26  4  0
  8 28  1  0
  9 13  2  0
 10 18  1  0
 10 21  4  0
 10 30  4  0
 11 17  2  0
 12 18  1  0
 13 15  1  0
 14 24  1  0
 15 25  1  0
 16 28  2  0
 17 20  1  0
 19 24  4  0
 20 23  1  0
 21 22  4  0
 22 23  4  0
 25 26  4  0
 27 29  2  0
M  END
$$$$

 Created by Python create_sdf_string function

 30 33  0  0  0  0  0  0  0  0999 V2000
    8.3036    9.8571   18.4133 C   0  0  0  0  0  0  0  0  0  0  0  0
    8.3694    7.6612   22.6703 C   0  0  0  0  0  0  0  0  0  0  0  0
    8.4143    6.6863   16.2273 C   0  0  0  0  0  0  0  0  0  0  0  0
   10.7581    6.5674   21.7636 C   0  0  0  0  0  0  0  0  0  0  0  0
    8.4452    8.7960   19.2958 O   0  0  0  0  0  0  0  0  0  0  0  0
    8.7122    6.7842   24.8569 C   0  0  0  0  0  0  0  0  0  0  0  0
   10.3400    6.1726   14.3081 C   0  0  0  0  0  0  0  0  0  0  0  0
    7.4297    7.5873   24.8962 C   0  0  0  0  0  0  0  0  0  0  0  0
    8.1566   10.0536   16.0516 O   0  0  0  0  0  0  0  0  0  0  0  0
   12.4989    6.2074   20.1776 C   0  0  0  0  0  0  0  0  0  0  0  0
    6.9192    9.1053   20.9073 O   0  0  0  0  0  0  0  0  0  0  0  0
   14.3979    6.0729   18.7784 C   0  0  0  0  0  0  0  0  0  0  0  0
    8.6811    9.5354   16.9998 C   0  0  0  0  0  0  0  0  0  0  0  0
    9.2512    4.2713   13.7653 O   0  0  0  0  0  0  0  0  0  0  0  0
    9.6495    8.6317   16.8332 N   0  0  0  0  0  0  0  0  0  0  0  0
    6.2934    8.6988   23.1988 O   0  0  0  0  0  0  0  0  0  0  0  0
    7.9806    8.6543   20.5437 C   0  0  0  0  0  0  0  0  0  0  0  0
   13.7270    5.7144   19.8610 O   0  0  0  0  0  0  0  0  0  0  0  0
    8.3351    5.5235   15.4478 C   0  0  0  0  0  0  0  0  0  0  0  0
    8.7700    7.8434   21.3915 C   0  0  0  0  0  0  0  0  0  0  0  0
   11.7856    6.8851   19.2401 C   0  0  0  0  0  0  0  0  0  0  0  0
   10.5281    7.4276   19.5649 C   0  0  0  0  0  0  0  0  0  0  0  0
   10.0256    7.2907   20.8484 C   0  0  0  0  0  0  0  0  0  0  0  0
    9.3113    5.3049   14.4911 C   0  0  0  0  0  0  0  0  0  0  0  0
    9.4607    7.5646   16.0139 C   0  0  0  0  0  0  0  0  0  0  0  0
   10.4192    7.3157   15.0955 C   0  0  0  0  0  0  0  0  0  0  0  0
   10.2489    6.4227   23.0218 N   0  0  0  0  0  0  0  0  0  0  0  0
    7.2472    8.0746   23.5050 C   0  0  0  0  0  0  0  0  0  0  0  0
    9.2051    6.9101   23.4604 C   0  0  0  0  0  0  0  0  0  0  0  0
   11.9646    6.0299   21.4251 C   0  0  0  0  0  0  0  0  0  0  0  0
  1  5  1  0
  1 13  1  0
  2 20  2  0
  2 28  1  0
  2 29  1  0
  3 19  4  0
  3 25  4  0
  4 23  4  0
  4 27  1  0
  4 30  4  0
  5 17  1  0
  6  8  1  0
  6 29  1  0
  7 24  4  0
  7 26  4  0
  8 28  1  0
  9 13  2  0
 10 18  1  0
 10 21  4  0
 10 30  4  0
 11 17  2  0
 12 18  1  0
 13 15  1  0
 14 24  1  0
 15 25  1  0
 16 28  2  0
 17 20  1  0
 19 24  4  0
 20 23  1  0
 21 22  4  0
 22 23  4  0
 25 26  4  0
 27 29  2  0
M  END
$$$$

 Created by Python create_sdf_string function

 30 33  0  0  0  0  0  0  0  0999 V2000
    8.3036    9.8571   18.4133 C   0  0  0  0  0  0  0  0  0  0  0  0
    8.3694    7.6612   22.6703 C   0  0  0  0  0  0  0  0  0  0  0  0
    8.4143    6.6863   16.2273 C   0  0  0  0  0  0  0  0  0  0  0  0
   10.7581    6.5674   21.7636 C   0  0  0  0  0  0  0  0  0  0  0  0
    8.4452    8.7960   19.2958 O   0  0  0  0  0  0  0  0  0  0  0  0
    8.7122    6.7842   24.8569 C   0  0  0  0  0  0  0  0  0  0  0  0
   10.3400    6.1726   14.3081 C   0  0  0  0  0  0  0  0  0  0  0  0
    7.4297    7.5873   24.8962 C   0  0  0  0  0  0  0  0  0  0  0  0
    8.1566   10.0536   16.0516 O   0  0  0  0  0  0  0  0  0  0  0  0
   12.4989    6.2074   20.1776 C   0  0  0  0  0  0  0  0  0  0  0  0
    6.9192    9.1053   20.9073 O   0  0  0  0  0  0  0  0  0  0  0  0
   14.3979    6.0729   18.7784 C   0  0  0  0  0  0  0  0  0  0  0  0
    8.6811    9.5354   16.9998 C   0  0  0  0  0  0  0  0  0  0  0  0
    9.2512    4.2713   13.7653 O   0  0  0  0  0  0  0  0  0  0  0  0
    9.6495    8.6317   16.8332 N   0  0  0  0  0  0  0  0  0  0  0  0
    6.2934    8.6988   23.1988 O   0  0  0  0  0  0  0  0  0  0  0  0
    7.9806    8.6543   20.5437 C   0  0  0  0  0  0  0  0  0  0  0  0
   13.7270    5.7144   19.8610 O   0  0  0  0  0  0  0  0  0  0  0  0
    8.3351    5.5235   15.4478 C   0  0  0  0  0  0  0  0  0  0  0  0
    8.7700    7.8434   21.3915 C   0  0  0  0  0  0  0  0  0  0  0  0
   11.7856    6.8851   19.2401 C   0  0  0  0  0  0  0  0  0  0  0  0
   10.5281    7.4276   19.5649 C   0  0  0  0  0  0  0  0  0  0  0  0
   10.0256    7.2907   20.8484 C   0  0  0  0  0  0  0  0  0  0  0  0
    9.3113    5.3049   14.4911 C   0  0  0  0  0  0  0  0  0  0  0  0
    9.4607    7.5646   16.0139 C   0  0  0  0  0  0  0  0  0  0  0  0
   10.4192    7.3157   15.0955 C   0  0  0  0  0  0  0  0  0  0  0  0
   10.2489    6.4227   23.0218 N   0  0  0  0  0  0  0  0  0  0  0  0
    7.2472    8.0746   23.5050 C   0  0  0  0  0  0  0  0  0  0  0  0
    9.2051    6.9101   23.4604 C   0  0  0  0  0  0  0  0  0  0  0  0
   11.9646    6.0299   21.4251 C   0  0  0  0  0  0  0  0  0  0  0  0
  1  5  1  0
  1 13  1  0
  2 20  2  0
  2 28  1  0
  2 29  1  0
  3 19  4  0
  3 25  4  0
  4 23  4  0
  4 27  1  0
  4 30  4  0
  5 17  1  0
  6  8  1  0
  6 29  1  0
  7 24  4  0
  7 26  4  0
  8 28  1  0
  9 13  2  0
 10 18  1  0
 10 21  4  0
 10 30  4  0
 11 17  2  0
 12 18  1  0
 13 15  1  0
 14 24  1  0
 15 25  1  0
 16 28  2  0
 17 20  1  0
 19 24  4  0
 20 23  1  0
 21 22  4  0
 22 23  4  0
 25 26  4  0
 27 29  2  0
M  END
$$$$

 Created by Python create_sdf_string function

 30 33  0  0  0  0  0  0  0  0999 V2000
    8.3036    9.8571   18.4133 C   0  0  0  0  0  0  0  0  0  0  0  0
    8.3694    7.6612   22.6703 C   0  0  0  0  0  0  0  0  0  0  0  0
    8.4143    6.6863   16.2273 C   0  0  0  0  0  0  0  0  0  0  0  0
   10.7581    6.5674   21.7636 C   0  0  0  0  0  0  0  0  0  0  0  0
    8.4452    8.7960   19.2958 O   0  0  0  0  0  0  0  0  0  0  0  0
    8.7122    6.7842   24.8569 C   0  0  0  0  0  0  0  0  0  0  0  0
   10.3400    6.1726   14.3081 C   0  0  0  0  0  0  0  0  0  0  0  0
    7.4297    7.5873   24.8962 C   0  0  0  0  0  0  0  0  0  0  0  0
    8.1566   10.0536   16.0516 O   0  0  0  0  0  0  0  0  0  0  0  0
   12.4989    6.2074   20.1776 C   0  0  0  0  0  0  0  0  0  0  0  0
    6.9192    9.1053   20.9073 O   0  0  0  0  0  0  0  0  0  0  0  0
   14.3979    6.0729   18.7784 C   0  0  0  0  0  0  0  0  0  0  0  0
    8.6811    9.5354   16.9998 C   0  0  0  0  0  0  0  0  0  0  0  0
    9.2512    4.2713   13.7653 O   0  0  0  0  0  0  0  0  0  0  0  0
    9.6495    8.6317   16.8332 N   0  0  0  0  0  0  0  0  0  0  0  0
    6.2934    8.6988   23.1988 O   0  0  0  0  0  0  0  0  0  0  0  0
    7.9806    8.6543   20.5437 C   0  0  0  0  0  0  0  0  0  0  0  0
   13.7270    5.7144   19.8610 O   0  0  0  0  0  0  0  0  0  0  0  0
    8.3351    5.5235   15.4478 C   0  0  0  0  0  0  0  0  0  0  0  0
    8.7700    7.8434   21.3915 C   0  0  0  0  0  0  0  0  0  0  0  0
   11.7856    6.8851   19.2401 C   0  0  0  0  0  0  0  0  0  0  0  0
   10.5281    7.4276   19.5649 C   0  0  0  0  0  0  0  0  0  0  0  0
   10.0256    7.2907   20.8484 C   0  0  0  0  0  0  0  0  0  0  0  0
    9.3113    5.3049   14.4911 C   0  0  0  0  0  0  0  0  0  0  0  0
    9.4607    7.5646   16.0139 C   0  0  0  0  0  0  0  0  0  0  0  0
   10.4192    7.3157   15.0955 C   0  0  0  0  0  0  0  0  0  0  0  0
   10.2489    6.4227   23.0218 N   0  0  0  0  0  0  0  0  0  0  0  0
    7.2472    8.0746   23.5050 C   0  0  0  0  0  0  0  0  0  0  0  0
    9.2051    6.9101   23.4604 C   0  0  0  0  0  0  0  0  0  0  0  0
   11.9646    6.0299   21.4251 C   0  0  0  0  0  0  0  0  0  0  0  0
  1  5  1  0
  1 13  1  0
  2 20  2  0
  2 28  1  0
  2 29  1  0
  3 19  4  0
  3 25  4  0
  4 23  4  0
  4 27  1  0
  4 30  4  0
  5 17  1  0
  6  8  1  0
  6 29  1  0
  7 24  4  0
  7 26  4  0
  8 28  1  0
  9 13  2  0
 10 18  1  0
 10 21  4  0
 10 30  4  0
 11 17  2  0
 12 18  1  0
 13 15  1  0
 14 24  1  0
 15 25  1  0
 16 28  2  0
 17 20  1  0
 19 24  4  0
 20 23  1  0
 21 22  4  0
 22 23  4  0
 25 26  4  0
 27 29  2  0
M  END
$$$$

 Created by Python create_sdf_string function

 30 33  0  0  0  0  0  0  0  0999 V2000
    8.3036    9.8571   18.4133 C   0  0  0  0  0  0  0  0  0  0  0  0
    8.3694    7.6612   22.6703 C   0  0  0  0  0  0  0  0  0  0  0  0
    8.4143    6.6863   16.2273 C   0  0  0  0  0  0  0  0  0  0  0  0
   10.7581    6.5674   21.7636 C   0  0  0  0  0  0  0  0  0  0  0  0
    8.4452    8.7960   19.2958 O   0  0  0  0  0  0  0  0  0  0  0  0
    8.7122    6.7842   24.8569 C   0  0  0  0  0  0  0  0  0  0  0  0
   10.3400    6.1726   14.3081 C   0  0  0  0  0  0  0  0  0  0  0  0
    7.4297    7.5873   24.8962 C   0  0  0  0  0  0  0  0  0  0  0  0
    8.1566   10.0536   16.0516 O   0  0  0  0  0  0  0  0  0  0  0  0
   12.4989    6.2074   20.1776 C   0  0  0  0  0  0  0  0  0  0  0  0
    6.9192    9.1053   20.9073 O   0  0  0  0  0  0  0  0  0  0  0  0
   14.3979    6.0729   18.7784 C   0  0  0  0  0  0  0  0  0  0  0  0
    8.6811    9.5354   16.9998 C   0  0  0  0  0  0  0  0  0  0  0  0
    9.2512    4.2713   13.7653 O   0  0  0  0  0  0  0  0  0  0  0  0
    9.6495    8.6317   16.8332 N   0  0  0  0  0  0  0  0  0  0  0  0
    6.2934    8.6988   23.1988 O   0  0  0  0  0  0  0  0  0  0  0  0
    7.9806    8.6543   20.5437 C   0  0  0  0  0  0  0  0  0  0  0  0
   13.7270    5.7144   19.8610 O   0  0  0  0  0  0  0  0  0  0  0  0
    8.3351    5.5235   15.4478 C   0  0  0  0  0  0  0  0  0  0  0  0
    8.7700    7.8434   21.3915 C   0  0  0  0  0  0  0  0  0  0  0  0
   11.7856    6.8851   19.2401 C   0  0  0  0  0  0  0  0  0  0  0  0
   10.5281    7.4276   19.5649 C   0  0  0  0  0  0  0  0  0  0  0  0
   10.0256    7.2907   20.8484 C   0  0  0  0  0  0  0  0  0  0  0  0
    9.3113    5.3049   14.4911 C   0  0  0  0  0  0  0  0  0  0  0  0
    9.4607    7.5646   16.0139 C   0  0  0  0  0  0  0  0  0  0  0  0
   10.4192    7.3157   15.0955 C   0  0  0  0  0  0  0  0  0  0  0  0
   10.2489    6.4227   23.0218 N   0  0  0  0  0  0  0  0  0  0  0  0
    7.2472    8.0746   23.5050 C   0  0  0  0  0  0  0  0  0  0  0  0
    9.2051    6.9101   23.4604 C   0  0  0  0  0  0  0  0  0  0  0  0
   11.9646    6.0299   21.4251 C   0  0  0  0  0  0  0  0  0  0  0  0
  1  5  1  0
  1 13  1  0
  2 20  2  0
  2 28  1  0
  2 29  1  0
  3 19  4  0
  3 25  4  0
  4 23  4  0
  4 27  1  0
  4 30  4  0
  5 17  1  0
  6  8  1  0
  6 29  1  0
  7 24  4  0
  7 26  4  0
  8 28  1  0
  9 13  2  0
 10 18  1  0
 10 21  4  0
 10 30  4  0
 11 17  2  0
 12 18  1  0
 13 15  1  0
 14 24  1  0
 15 25  1  0
 16 28  2  0
 17 20  1  0
 19 24  4  0
 20 23  1  0
 21 22  4  0
 22 23  4  0
 25 26  4  0
 27 29  2  0
M  END
$$$$

 Created by Python create_sdf_string function

 30 33  0  0  0  0  0  0  0  0999 V2000
    8.3036    9.8571   18.4133 C   0  0  0  0  0  0  0  0  0  0  0  0
    8.3694    7.6612   22.6703 C   0  0  0  0  0  0  0  0  0  0  0  0
    8.4143    6.6863   16.2273 C   0  0  0  0  0  0  0  0  0  0  0  0
   10.7581    6.5674   21.7636 C   0  0  0  0  0  0  0  0  0  0  0  0
    8.4452    8.7960   19.2958 O   0  0  0  0  0  0  0  0  0  0  0  0
    8.7122    6.7842   24.8569 C   0  0  0  0  0  0  0  0  0  0  0  0
   10.3400    6.1726   14.3081 C   0  0  0  0  0  0  0  0  0  0  0  0
    7.4297    7.5873   24.8962 C   0  0  0  0  0  0  0  0  0  0  0  0
    8.1566   10.0536   16.0516 O   0  0  0  0  0  0  0  0  0  0  0  0
   12.4989    6.2074   20.1776 C   0  0  0  0  0  0  0  0  0  0  0  0
    6.9192    9.1053   20.9073 O   0  0  0  0  0  0  0  0  0  0  0  0
   14.3979    6.0729   18.7784 C   0  0  0  0  0  0  0  0  0  0  0  0
    8.6811    9.5354   16.9998 C   0  0  0  0  0  0  0  0  0  0  0  0
    9.2512    4.2713   13.7653 O   0  0  0  0  0  0  0  0  0  0  0  0
    9.6495    8.6317   16.8332 N   0  0  0  0  0  0  0  0  0  0  0  0
    6.2934    8.6988   23.1988 O   0  0  0  0  0  0  0  0  0  0  0  0
    7.9806    8.6543   20.5437 C   0  0  0  0  0  0  0  0  0  0  0  0
   13.7270    5.7144   19.8610 O   0  0  0  0  0  0  0  0  0  0  0  0
    8.3351    5.5235   15.4478 C   0  0  0  0  0  0  0  0  0  0  0  0
    8.7700    7.8434   21.3915 C   0  0  0  0  0  0  0  0  0  0  0  0
   11.7856    6.8851   19.2401 C   0  0  0  0  0  0  0  0  0  0  0  0
   10.5281    7.4276   19.5649 C   0  0  0  0  0  0  0  0  0  0  0  0
   10.0256    7.2907   20.8484 C   0  0  0  0  0  0  0  0  0  0  0  0
    9.3113    5.3049   14.4911 C   0  0  0  0  0  0  0  0  0  0  0  0
    9.4607    7.5646   16.0139 C   0  0  0  0  0  0  0  0  0  0  0  0
   10.4192    7.3157   15.0955 C   0  0  0  0  0  0  0  0  0  0  0  0
   10.2489    6.4227   23.0218 N   0  0  0  0  0  0  0  0  0  0  0  0
    7.2472    8.0746   23.5050 C   0  0  0  0  0  0  0  0  0  0  0  0
    9.2051    6.9101   23.4604 C   0  0  0  0  0  0  0  0  0  0  0  0
   11.9646    6.0299   21.4251 C   0  0  0  0  0  0  0  0  0  0  0  0
  1  5  1  0
  1 13  1  0
  2 20  2  0
  2 28  1  0
  2 29  1  0
  3 19  4  0
  3 25  4  0
  4 23  4  0
  4 27  1  0
  4 30  4  0
  5 17  1  0
  6  8  1  0
  6 29  1  0
  7 24  4  0
  7 26  4  0
  8 28  1  0
  9 13  2  0
 10 18  1  0
 10 21  4  0
 10 30  4  0
 11 17  2  0
 12 18  1  0
 13 15  1  0
 14 24  1  0
 15 25  1  0
 16 28  2  0
 17 20  1  0
 19 24  4  0
 20 23  1  0
 21 22  4  0
 22 23  4  0
 25 26  4  0
 27 29  2  0
M  END
$$$$

 Created by Python create_sdf_string function

 30 33  0  0  0  0  0  0  0  0999 V2000
    8.3036    9.8571   18.4133 C   0  0  0  0  0  0  0  0  0  0  0  0
    8.3694    7.6612   22.6703 C   0  0  0  0  0  0  0  0  0  0  0  0
    8.4143    6.6863   16.2273 C   0  0  0  0  0  0  0  0  0  0  0  0
   10.7581    6.5674   21.7636 C   0  0  0  0  0  0  0  0  0  0  0  0
    8.4452    8.7960   19.2958 O   0  0  0  0  0  0  0  0  0  0  0  0
    8.7122    6.7842   24.8569 C   0  0  0  0  0  0  0  0  0  0  0  0
   10.3400    6.1726   14.3081 C   0  0  0  0  0  0  0  0  0  0  0  0
    7.4297    7.5873   24.8962 C   0  0  0  0  0  0  0  0  0  0  0  0
    8.1566   10.0536   16.0516 O   0  0  0  0  0  0  0  0  0  0  0  0
   12.4989    6.2074   20.1776 C   0  0  0  0  0  0  0  0  0  0  0  0
    6.9192    9.1053   20.9073 O   0  0  0  0  0  0  0  0  0  0  0  0
   14.3979    6.0729   18.7784 C   0  0  0  0  0  0  0  0  0  0  0  0
    8.6811    9.5354   16.9998 C   0  0  0  0  0  0  0  0  0  0  0  0
    9.2512    4.2713   13.7653 O   0  0  0  0  0  0  0  0  0  0  0  0
    9.6495    8.6317   16.8332 N   0  0  0  0  0  0  0  0  0  0  0  0
    6.2934    8.6988   23.1988 O   0  0  0  0  0  0  0  0  0  0  0  0
    7.9806    8.6543   20.5437 C   0  0  0  0  0  0  0  0  0  0  0  0
   13.7270    5.7144   19.8610 O   0  0  0  0  0  0  0  0  0  0  0  0
    8.3351    5.5235   15.4478 C   0  0  0  0  0  0  0  0  0  0  0  0
    8.7700    7.8434   21.3915 C   0  0  0  0  0  0  0  0  0  0  0  0
   11.7856    6.8851   19.2401 C   0  0  0  0  0  0  0  0  0  0  0  0
   10.5281    7.4276   19.5649 C   0  0  0  0  0  0  0  0  0  0  0  0
   10.0256    7.2907   20.8484 C   0  0  0  0  0  0  0  0  0  0  0  0
    9.3113    5.3049   14.4911 C   0  0  0  0  0  0  0  0  0  0  0  0
    9.4607    7.5646   16.0139 C   0  0  0  0  0  0  0  0  0  0  0  0
   10.4192    7.3157   15.0955 C   0  0  0  0  0  0  0  0  0  0  0  0
   10.2489    6.4227   23.0218 N   0  0  0  0  0  0  0  0  0  0  0  0
    7.2472    8.0746   23.5050 C   0  0  0  0  0  0  0  0  0  0  0  0
    9.2051    6.9101   23.4604 C   0  0  0  0  0  0  0  0  0  0  0  0
   11.9646    6.0299   21.4251 C   0  0  0  0  0  0  0  0  0  0  0  0
  1  5  1  0
  1 13  1  0
  2 20  2  0
  2 28  1  0
  2 29  1  0
  3 19  4  0
  3 25  4  0
  4 23  4  0
  4 27  1  0
  4 30  4  0
  5 17  1  0
  6  8  1  0
  6 29  1  0
  7 24  4  0
  7 26  4  0
  8 28  1  0
  9 13  2  0
 10 18  1  0
 10 21  4  0
 10 30  4  0
 11 17  2  0
 12 18  1  0
 13 15  1  0
 14 24  1  0
 15 25  1  0
 16 28  2  0
 17 20  1  0
 19 24  4  0
 20 23  1  0
 21 22  4  0
 22 23  4  0
 25 26  4  0
 27 29  2  0
M  END
$$$$

 Created by Python create_sdf_string function

 30 33  0  0  0  0  0  0  0  0999 V2000
    8.3036    9.8571   18.4133 C   0  0  0  0  0  0  0  0  0  0  0  0
    8.3694    7.6612   22.6703 C   0  0  0  0  0  0  0  0  0  0  0  0
    8.4143    6.6863   16.2273 C   0  0  0  0  0  0  0  0  0  0  0  0
   10.7581    6.5674   21.7636 C   0  0  0  0  0  0  0  0  0  0  0  0
    8.4452    8.7960   19.2958 O   0  0  0  0  0  0  0  0  0  0  0  0
    8.7122    6.7842   24.8569 C   0  0  0  0  0  0  0  0  0  0  0  0
   10.3400    6.1726   14.3081 C   0  0  0  0  0  0  0  0  0  0  0  0
    7.4297    7.5873   24.8962 C   0  0  0  0  0  0  0  0  0  0  0  0
    8.1566   10.0536   16.0516 O   0  0  0  0  0  0  0  0  0  0  0  0
   12.4989    6.2074   20.1776 C   0  0  0  0  0  0  0  0  0  0  0  0
    6.9192    9.1053   20.9073 O   0  0  0  0  0  0  0  0  0  0  0  0
   14.3979    6.0729   18.7784 C   0  0  0  0  0  0  0  0  0  0  0  0
    8.6811    9.5354   16.9998 C   0  0  0  0  0  0  0  0  0  0  0  0
    9.2512    4.2713   13.7653 O   0  0  0  0  0  0  0  0  0  0  0  0
    9.6495    8.6317   16.8332 N   0  0  0  0  0  0  0  0  0  0  0  0
    6.2934    8.6988   23.1988 O   0  0  0  0  0  0  0  0  0  0  0  0
    7.9806    8.6543   20.5437 C   0  0  0  0  0  0  0  0  0  0  0  0
   13.7270    5.7144   19.8610 O   0  0  0  0  0  0  0  0  0  0  0  0
    8.3351    5.5235   15.4478 C   0  0  0  0  0  0  0  0  0  0  0  0
    8.7700    7.8434   21.3915 C   0  0  0  0  0  0  0  0  0  0  0  0
   11.7856    6.8851   19.2401 C   0  0  0  0  0  0  0  0  0  0  0  0
   10.5281    7.4276   19.5649 C   0  0  0  0  0  0  0  0  0  0  0  0
   10.0256    7.2907   20.8484 C   0  0  0  0  0  0  0  0  0  0  0  0
    9.3113    5.3049   14.4911 C   0  0  0  0  0  0  0  0  0  0  0  0
    9.4607    7.5646   16.0139 C   0  0  0  0  0  0  0  0  0  0  0  0
   10.4192    7.3157   15.0955 C   0  0  0  0  0  0  0  0  0  0  0  0
   10.2489    6.4227   23.0218 N   0  0  0  0  0  0  0  0  0  0  0  0
    7.2472    8.0746   23.5050 C   0  0  0  0  0  0  0  0  0  0  0  0
    9.2051    6.9101   23.4604 C   0  0  0  0  0  0  0  0  0  0  0  0
   11.9646    6.0299   21.4251 C   0  0  0  0  0  0  0  0  0  0  0  0
  1  5  1  0
  1 13  1  0
  2 20  2  0
  2 28  1  0
  2 29  1  0
  3 19  4  0
  3 25  4  0
  4 23  4  0
  4 27  1  0
  4 30  4  0
  5 17  1  0
  6  8  1  0
  6 29  1  0
  7 24  4  0
  7 26  4  0
  8 28  1  0
  9 13  2  0
 10 18  1  0
 10 21  4  0
 10 30  4  0
 11 17  2  0
 12 18  1  0
 13 15  1  0
 14 24  1  0
 15 25  1  0
 16 28  2  0
 17 20  1  0
 19 24  4  0
 20 23  1  0
 21 22  4  0
 22 23  4  0
 25 26  4  0
 27 29  2  0
M  END
$$$$

 Created by Python create_sdf_string function

 30 33  0  0  0  0  0  0  0  0999 V2000
    8.3036    9.8571   18.4133 C   0  0  0  0  0  0  0  0  0  0  0  0
    8.3694    7.6612   22.6703 C   0  0  0  0  0  0  0  0  0  0  0  0
    8.4143    6.6863   16.2273 C   0  0  0  0  0  0  0  0  0  0  0  0
   10.7581    6.5674   21.7636 C   0  0  0  0  0  0  0  0  0  0  0  0
    8.4452    8.7960   19.2958 O   0  0  0  0  0  0  0  0  0  0  0  0
    8.7122    6.7842   24.8569 C   0  0  0  0  0  0  0  0  0  0  0  0
   10.3400    6.1726   14.3081 C   0  0  0  0  0  0  0  0  0  0  0  0
    7.4297    7.5873   24.8962 C   0  0  0  0  0  0  0  0  0  0  0  0
    8.1566   10.0536   16.0516 O   0  0  0  0  0  0  0  0  0  0  0  0
   12.4989    6.2074   20.1776 C   0  0  0  0  0  0  0  0  0  0  0  0
    6.9192    9.1053   20.9073 O   0  0  0  0  0  0  0  0  0  0  0  0
   14.3979    6.0729   18.7784 C   0  0  0  0  0  0  0  0  0  0  0  0
    8.6811    9.5354   16.9998 C   0  0  0  0  0  0  0  0  0  0  0  0
    9.2512    4.2713   13.7653 O   0  0  0  0  0  0  0  0  0  0  0  0
    9.6495    8.6317   16.8332 N   0  0  0  0  0  0  0  0  0  0  0  0
    6.2934    8.6988   23.1988 O   0  0  0  0  0  0  0  0  0  0  0  0
    7.9806    8.6543   20.5437 C   0  0  0  0  0  0  0  0  0  0  0  0
   13.7270    5.7144   19.8610 O   0  0  0  0  0  0  0  0  0  0  0  0
    8.3351    5.5235   15.4478 C   0  0  0  0  0  0  0  0  0  0  0  0
    8.7700    7.8434   21.3915 C   0  0  0  0  0  0  0  0  0  0  0  0
   11.7856    6.8851   19.2401 C   0  0  0  0  0  0  0  0  0  0  0  0
   10.5281    7.4276   19.5649 C   0  0  0  0  0  0  0  0  0  0  0  0
   10.0256    7.2907   20.8484 C   0  0  0  0  0  0  0  0  0  0  0  0
    9.3113    5.3049   14.4911 C   0  0  0  0  0  0  0  0  0  0  0  0
    9.4607    7.5646   16.0139 C   0  0  0  0  0  0  0  0  0  0  0  0
   10.4192    7.3157   15.0955 C   0  0  0  0  0  0  0  0  0  0  0  0
   10.2489    6.4227   23.0218 N   0  0  0  0  0  0  0  0  0  0  0  0
    7.2472    8.0746   23.5050 C   0  0  0  0  0  0  0  0  0  0  0  0
    9.2051    6.9101   23.4604 C   0  0  0  0  0  0  0  0  0  0  0  0
   11.9646    6.0299   21.4251 C   0  0  0  0  0  0  0  0  0  0  0  0
  1  5  1  0
  1 13  1  0
  2 20  2  0
  2 28  1  0
  2 29  1  0
  3 19  4  0
  3 25  4  0
  4 23  4  0
  4 27  1  0
  4 30  4  0
  5 17  1  0
  6  8  1  0
  6 29  1  0
  7 24  4  0
  7 26  4  0
  8 28  1  0
  9 13  2  0
 10 18  1  0
 10 21  4  0
 10 30  4  0
 11 17  2  0
 12 18  1  0
 13 15  1  0
 14 24  1  0
 15 25  1  0
 16 28  2  0
 17 20  1  0
 19 24  4  0
 20 23  1  0
 21 22  4  0
 22 23  4  0
 25 26  4  0
 27 29  2  0
M  END
$$$$

 Created by Python create_sdf_string function

 30 33  0  0  0  0  0  0  0  0999 V2000
    8.3036    9.8571   18.4133 C   0  0  0  0  0  0  0  0  0  0  0  0
    8.3694    7.6612   22.6703 C   0  0  0  0  0  0  0  0  0  0  0  0
    8.4143    6.6863   16.2273 C   0  0  0  0  0  0  0  0  0  0  0  0
   10.7581    6.5674   21.7636 C   0  0  0  0  0  0  0  0  0  0  0  0
    8.4452    8.7960   19.2958 O   0  0  0  0  0  0  0  0  0  0  0  0
    8.7122    6.7842   24.8569 C   0  0  0  0  0  0  0  0  0  0  0  0
   10.3400    6.1726   14.3081 C   0  0  0  0  0  0  0  0  0  0  0  0
    7.4297    7.5873   24.8962 C   0  0  0  0  0  0  0  0  0  0  0  0
    8.1566   10.0536   16.0516 O   0  0  0  0  0  0  0  0  0  0  0  0
   12.4989    6.2074   20.1776 C   0  0  0  0  0  0  0  0  0  0  0  0
    6.9192    9.1053   20.9073 O   0  0  0  0  0  0  0  0  0  0  0  0
   14.3979    6.0729   18.7784 C   0  0  0  0  0  0  0  0  0  0  0  0
    8.6811    9.5354   16.9998 C   0  0  0  0  0  0  0  0  0  0  0  0
    9.2512    4.2713   13.7653 O   0  0  0  0  0  0  0  0  0  0  0  0
    9.6495    8.6317   16.8332 N   0  0  0  0  0  0  0  0  0  0  0  0
    6.2934    8.6988   23.1988 O   0  0  0  0  0  0  0  0  0  0  0  0
    7.9806    8.6543   20.5437 C   0  0  0  0  0  0  0  0  0  0  0  0
   13.7270    5.7144   19.8610 O   0  0  0  0  0  0  0  0  0  0  0  0
    8.3351    5.5235   15.4478 C   0  0  0  0  0  0  0  0  0  0  0  0
    8.7700    7.8434   21.3915 C   0  0  0  0  0  0  0  0  0  0  0  0
   11.7856    6.8851   19.2401 C   0  0  0  0  0  0  0  0  0  0  0  0
   10.5281    7.4276   19.5649 C   0  0  0  0  0  0  0  0  0  0  0  0
   10.0256    7.2907   20.8484 C   0  0  0  0  0  0  0  0  0  0  0  0
    9.3113    5.3049   14.4911 C   0  0  0  0  0  0  0  0  0  0  0  0
    9.4607    7.5646   16.0139 C   0  0  0  0  0  0  0  0  0  0  0  0
   10.4192    7.3157   15.0955 C   0  0  0  0  0  0  0  0  0  0  0  0
   10.2489    6.4227   23.0218 N   0  0  0  0  0  0  0  0  0  0  0  0
    7.2472    8.0746   23.5050 C   0  0  0  0  0  0  0  0  0  0  0  0
    9.2051    6.9101   23.4604 C   0  0  0  0  0  0  0  0  0  0  0  0
   11.9646    6.0299   21.4251 C   0  0  0  0  0  0  0  0  0  0  0  0
  1  5  1  0
  1 13  1  0
  2 20  2  0
  2 28  1  0
  2 29  1  0
  3 19  4  0
  3 25  4  0
  4 23  4  0
  4 27  1  0
  4 30  4  0
  5 17  1  0
  6  8  1  0
  6 29  1  0
  7 24  4  0
  7 26  4  0
  8 28  1  0
  9 13  2  0
 10 18  1  0
 10 21  4  0
 10 30  4  0
 11 17  2  0
 12 18  1  0
 13 15  1  0
 14 24  1  0
 15 25  1  0
 16 28  2  0
 17 20  1  0
 19 24  4  0
 20 23  1  0
 21 22  4  0
 22 23  4  0
 25 26  4  0
 27 29  2  0
M  END
$$$$

 Created by Python create_sdf_string function

 30 33  0  0  0  0  0  0  0  0999 V2000
    8.3036    9.8571   18.4133 C   0  0  0  0  0  0  0  0  0  0  0  0
    8.3694    7.6612   22.6703 C   0  0  0  0  0  0  0  0  0  0  0  0
    8.4143    6.6863   16.2273 C   0  0  0  0  0  0  0  0  0  0  0  0
   10.7581    6.5674   21.7636 C   0  0  0  0  0  0  0  0  0  0  0  0
    8.4452    8.7960   19.2958 O   0  0  0  0  0  0  0  0  0  0  0  0
    8.7122    6.7842   24.8569 C   0  0  0  0  0  0  0  0  0  0  0  0
   10.3400    6.1726   14.3081 C   0  0  0  0  0  0  0  0  0  0  0  0
    7.4297    7.5873   24.8962 C   0  0  0  0  0  0  0  0  0  0  0  0
    8.1566   10.0536   16.0516 O   0  0  0  0  0  0  0  0  0  0  0  0
   12.4989    6.2074   20.1776 C   0  0  0  0  0  0  0  0  0  0  0  0
    6.9192    9.1053   20.9073 O   0  0  0  0  0  0  0  0  0  0  0  0
   14.3979    6.0729   18.7784 C   0  0  0  0  0  0  0  0  0  0  0  0
    8.6811    9.5354   16.9998 C   0  0  0  0  0  0  0  0  0  0  0  0
    9.2512    4.2713   13.7653 O   0  0  0  0  0  0  0  0  0  0  0  0
    9.6495    8.6317   16.8332 N   0  0  0  0  0  0  0  0  0  0  0  0
    6.2934    8.6988   23.1988 O   0  0  0  0  0  0  0  0  0  0  0  0
    7.9806    8.6543   20.5437 C   0  0  0  0  0  0  0  0  0  0  0  0
   13.7270    5.7144   19.8610 O   0  0  0  0  0  0  0  0  0  0  0  0
    8.3351    5.5235   15.4478 C   0  0  0  0  0  0  0  0  0  0  0  0
    8.7700    7.8434   21.3915 C   0  0  0  0  0  0  0  0  0  0  0  0
   11.7856    6.8851   19.2401 C   0  0  0  0  0  0  0  0  0  0  0  0
   10.5281    7.4276   19.5649 C   0  0  0  0  0  0  0  0  0  0  0  0
   10.0256    7.2907   20.8484 C   0  0  0  0  0  0  0  0  0  0  0  0
    9.3113    5.3049   14.4911 C   0  0  0  0  0  0  0  0  0  0  0  0
    9.4607    7.5646   16.0139 C   0  0  0  0  0  0  0  0  0  0  0  0
   10.4192    7.3157   15.0955 C   0  0  0  0  0  0  0  0  0  0  0  0
   10.2489    6.4227   23.0218 N   0  0  0  0  0  0  0  0  0  0  0  0
    7.2472    8.0746   23.5050 C   0  0  0  0  0  0  0  0  0  0  0  0
    9.2051    6.9101   23.4604 C   0  0  0  0  0  0  0  0  0  0  0  0
   11.9646    6.0299   21.4251 C   0  0  0  0  0  0  0  0  0  0  0  0
  1  5  1  0
  1 13  1  0
  2 20  2  0
  2 28  1  0
  2 29  1  0
  3 19  4  0
  3 25  4  0
  4 23  4  0
  4 27  1  0
  4 30  4  0
  5 17  1  0
  6  8  1  0
  6 29  1  0
  7 24  4  0
  7 26  4  0
  8 28  1  0
  9 13  2  0
 10 18  1  0
 10 21  4  0
 10 30  4  0
 11 17  2  0
 12 18  1  0
 13 15  1  0
 14 24  1  0
 15 25  1  0
 16 28  2  0
 17 20  1  0
 19 24  4  0
 20 23  1  0
 21 22  4  0
 22 23  4  0
 25 26  4  0
 27 29  2  0
M  END
$$$$

 Created by Python create_sdf_string function

 30 33  0  0  0  0  0  0  0  0999 V2000
    8.3036    9.8571   18.4133 C   0  0  0  0  0  0  0  0  0  0  0  0
    8.3694    7.6612   22.6703 C   0  0  0  0  0  0  0  0  0  0  0  0
    8.4143    6.6863   16.2273 C   0  0  0  0  0  0  0  0  0  0  0  0
   10.7581    6.5674   21.7636 C   0  0  0  0  0  0  0  0  0  0  0  0
    8.4452    8.7960   19.2958 O   0  0  0  0  0  0  0  0  0  0  0  0
    8.7122    6.7842   24.8569 C   0  0  0  0  0  0  0  0  0  0  0  0
   10.3400    6.1726   14.3081 C   0  0  0  0  0  0  0  0  0  0  0  0
    7.4297    7.5873   24.8962 C   0  0  0  0  0  0  0  0  0  0  0  0
    8.1566   10.0536   16.0516 O   0  0  0  0  0  0  0  0  0  0  0  0
   12.4989    6.2074   20.1776 C   0  0  0  0  0  0  0  0  0  0  0  0
    6.9192    9.1053   20.9073 O   0  0  0  0  0  0  0  0  0  0  0  0
   14.3979    6.0729   18.7784 C   0  0  0  0  0  0  0  0  0  0  0  0
    8.6811    9.5354   16.9998 C   0  0  0  0  0  0  0  0  0  0  0  0
    9.2512    4.2713   13.7653 O   0  0  0  0  0  0  0  0  0  0  0  0
    9.6495    8.6317   16.8332 N   0  0  0  0  0  0  0  0  0  0  0  0
    6.2934    8.6988   23.1988 O   0  0  0  0  0  0  0  0  0  0  0  0
    7.9806    8.6543   20.5437 C   0  0  0  0  0  0  0  0  0  0  0  0
   13.7270    5.7144   19.8610 O   0  0  0  0  0  0  0  0  0  0  0  0
    8.3351    5.5235   15.4478 C   0  0  0  0  0  0  0  0  0  0  0  0
    8.7700    7.8434   21.3915 C   0  0  0  0  0  0  0  0  0  0  0  0
   11.7856    6.8851   19.2401 C   0  0  0  0  0  0  0  0  0  0  0  0
   10.5281    7.4276   19.5649 C   0  0  0  0  0  0  0  0  0  0  0  0
   10.0256    7.2907   20.8484 C   0  0  0  0  0  0  0  0  0  0  0  0
    9.3113    5.3049   14.4911 C   0  0  0  0  0  0  0  0  0  0  0  0
    9.4607    7.5646   16.0139 C   0  0  0  0  0  0  0  0  0  0  0  0
   10.4192    7.3157   15.0955 C   0  0  0  0  0  0  0  0  0  0  0  0
   10.2489    6.4227   23.0218 N   0  0  0  0  0  0  0  0  0  0  0  0
    7.2472    8.0746   23.5050 C   0  0  0  0  0  0  0  0  0  0  0  0
    9.2051    6.9101   23.4604 C   0  0  0  0  0  0  0  0  0  0  0  0
   11.9646    6.0299   21.4251 C   0  0  0  0  0  0  0  0  0  0  0  0
  1  5  1  0
  1 13  1  0
  2 20  2  0
  2 28  1  0
  2 29  1  0
  3 19  4  0
  3 25  4  0
  4 23  4  0
  4 27  1  0
  4 30  4  0
  5 17  1  0
  6  8  1  0
  6 29  1  0
  7 24  4  0
  7 26  4  0
  8 28  1  0
  9 13  2  0
 10 18  1  0
 10 21  4  0
 10 30  4  0
 11 17  2  0
 12 18  1  0
 13 15  1  0
 14 24  1  0
 15 25  1  0
 16 28  2  0
 17 20  1  0
 19 24  4  0
 20 23  1  0
 21 22  4  0
 22 23  4  0
 25 26  4  0
 27 29  2  0
M  END
$$$$

 Created by Python create_sdf_string function

 30 33  0  0  0  0  0  0  0  0999 V2000
    8.3036    9.8571   18.4133 C   0  0  0  0  0  0  0  0  0  0  0  0
    8.3694    7.6612   22.6703 C   0  0  0  0  0  0  0  0  0  0  0  0
    8.4143    6.6863   16.2273 C   0  0  0  0  0  0  0  0  0  0  0  0
   10.7581    6.5674   21.7636 C   0  0  0  0  0  0  0  0  0  0  0  0
    8.4452    8.7960   19.2958 O   0  0  0  0  0  0  0  0  0  0  0  0
    8.7122    6.7842   24.8569 C   0  0  0  0  0  0  0  0  0  0  0  0
   10.3400    6.1726   14.3081 C   0  0  0  0  0  0  0  0  0  0  0  0
    7.4297    7.5873   24.8962 C   0  0  0  0  0  0  0  0  0  0  0  0
    8.1566   10.0536   16.0516 O   0  0  0  0  0  0  0  0  0  0  0  0
   12.4989    6.2074   20.1776 C   0  0  0  0  0  0  0  0  0  0  0  0
    6.9192    9.1053   20.9073 O   0  0  0  0  0  0  0  0  0  0  0  0
   14.3979    6.0729   18.7784 C   0  0  0  0  0  0  0  0  0  0  0  0
    8.6811    9.5354   16.9998 C   0  0  0  0  0  0  0  0  0  0  0  0
    9.2512    4.2713   13.7653 O   0  0  0  0  0  0  0  0  0  0  0  0
    9.6495    8.6317   16.8332 N   0  0  0  0  0  0  0  0  0  0  0  0
    6.2934    8.6988   23.1988 O   0  0  0  0  0  0  0  0  0  0  0  0
    7.9806    8.6543   20.5437 C   0  0  0  0  0  0  0  0  0  0  0  0
   13.7270    5.7144   19.8610 O   0  0  0  0  0  0  0  0  0  0  0  0
    8.3351    5.5235   15.4478 C   0  0  0  0  0  0  0  0  0  0  0  0
    8.7700    7.8434   21.3915 C   0  0  0  0  0  0  0  0  0  0  0  0
   11.7856    6.8851   19.2401 C   0  0  0  0  0  0  0  0  0  0  0  0
   10.5281    7.4276   19.5649 C   0  0  0  0  0  0  0  0  0  0  0  0
   10.0256    7.2907   20.8484 C   0  0  0  0  0  0  0  0  0  0  0  0
    9.3113    5.3049   14.4911 C   0  0  0  0  0  0  0  0  0  0  0  0
    9.4607    7.5646   16.0139 C   0  0  0  0  0  0  0  0  0  0  0  0
   10.4192    7.3157   15.0955 C   0  0  0  0  0  0  0  0  0  0  0  0
   10.2489    6.4227   23.0218 N   0  0  0  0  0  0  0  0  0  0  0  0
    7.2472    8.0746   23.5050 C   0  0  0  0  0  0  0  0  0  0  0  0
    9.2051    6.9101   23.4604 C   0  0  0  0  0  0  0  0  0  0  0  0
   11.9646    6.0299   21.4251 C   0  0  0  0  0  0  0  0  0  0  0  0
  1  5  1  0
  1 13  1  0
  2 20  2  0
  2 28  1  0
  2 29  1  0
  3 19  4  0
  3 25  4  0
  4 23  4  0
  4 27  1  0
  4 30  4  0
  5 17  1  0
  6  8  1  0
  6 29  1  0
  7 24  4  0
  7 26  4  0
  8 28  1  0
  9 13  2  0
 10 18  1  0
 10 21  4  0
 10 30  4  0
 11 17  2  0
 12 18  1  0
 13 15  1  0
 14 24  1  0
 15 25  1  0
 16 28  2  0
 17 20  1  0
 19 24  4  0
 20 23  1  0
 21 22  4  0
 22 23  4  0
 25 26  4  0
 27 29  2  0
M  END
$$$$

 Created by Python create_sdf_string function

 30 33  0  0  0  0  0  0  0  0999 V2000
    8.3036    9.8571   18.4133 C   0  0  0  0  0  0  0  0  0  0  0  0
    8.3694    7.6612   22.6703 C   0  0  0  0  0  0  0  0  0  0  0  0
    8.4143    6.6863   16.2273 C   0  0  0  0  0  0  0  0  0  0  0  0
   10.7581    6.5674   21.7636 C   0  0  0  0  0  0  0  0  0  0  0  0
    8.4452    8.7960   19.2958 O   0  0  0  0  0  0  0  0  0  0  0  0
    8.7122    6.7842   24.8569 C   0  0  0  0  0  0  0  0  0  0  0  0
   10.3400    6.1726   14.3081 C   0  0  0  0  0  0  0  0  0  0  0  0
    7.4297    7.5873   24.8962 C   0  0  0  0  0  0  0  0  0  0  0  0
    8.1566   10.0536   16.0516 O   0  0  0  0  0  0  0  0  0  0  0  0
   12.4989    6.2074   20.1776 C   0  0  0  0  0  0  0  0  0  0  0  0
    6.9192    9.1053   20.9073 O   0  0  0  0  0  0  0  0  0  0  0  0
   14.3979    6.0729   18.7784 C   0  0  0  0  0  0  0  0  0  0  0  0
    8.6811    9.5354   16.9998 C   0  0  0  0  0  0  0  0  0  0  0  0
    9.2512    4.2713   13.7653 O   0  0  0  0  0  0  0  0  0  0  0  0
    9.6495    8.6317   16.8332 N   0  0  0  0  0  0  0  0  0  0  0  0
    6.2934    8.6988   23.1988 O   0  0  0  0  0  0  0  0  0  0  0  0
    7.9806    8.6543   20.5437 C   0  0  0  0  0  0  0  0  0  0  0  0
   13.7270    5.7144   19.8610 O   0  0  0  0  0  0  0  0  0  0  0  0
    8.3351    5.5235   15.4478 C   0  0  0  0  0  0  0  0  0  0  0  0
    8.7700    7.8434   21.3915 C   0  0  0  0  0  0  0  0  0  0  0  0
   11.7856    6.8851   19.2401 C   0  0  0  0  0  0  0  0  0  0  0  0
   10.5281    7.4276   19.5649 C   0  0  0  0  0  0  0  0  0  0  0  0
   10.0256    7.2907   20.8484 C   0  0  0  0  0  0  0  0  0  0  0  0
    9.3113    5.3049   14.4911 C   0  0  0  0  0  0  0  0  0  0  0  0
    9.4607    7.5646   16.0139 C   0  0  0  0  0  0  0  0  0  0  0  0
   10.4192    7.3157   15.0955 C   0  0  0  0  0  0  0  0  0  0  0  0
   10.2489    6.4227   23.0218 N   0  0  0  0  0  0  0  0  0  0  0  0
    7.2472    8.0746   23.5050 C   0  0  0  0  0  0  0  0  0  0  0  0
    9.2051    6.9101   23.4604 C   0  0  0  0  0  0  0  0  0  0  0  0
   11.9646    6.0299   21.4251 C   0  0  0  0  0  0  0  0  0  0  0  0
  1  5  1  0
  1 13  1  0
  2 20  2  0
  2 28  1  0
  2 29  1  0
  3 19  4  0
  3 25  4  0
  4 23  4  0
  4 27  1  0
  4 30  4  0
  5 17  1  0
  6  8  1  0
  6 29  1  0
  7 24  4  0
  7 26  4  0
  8 28  1  0
  9 13  2  0
 10 18  1  0
 10 21  4  0
 10 30  4  0
 11 17  2  0
 12 18  1  0
 13 15  1  0
 14 24  1  0
 15 25  1  0
 16 28  2  0
 17 20  1  0
 19 24  4  0
 20 23  1  0
 21 22  4  0
 22 23  4  0
 25 26  4  0
 27 29  2  0
M  END
$$$$

 Created by Python create_sdf_string function

 30 33  0  0  0  0  0  0  0  0999 V2000
    8.3036    9.8571   18.4133 C   0  0  0  0  0  0  0  0  0  0  0  0
    8.3694    7.6612   22.6703 C   0  0  0  0  0  0  0  0  0  0  0  0
    8.4143    6.6863   16.2273 C   0  0  0  0  0  0  0  0  0  0  0  0
   10.7581    6.5674   21.7636 C   0  0  0  0  0  0  0  0  0  0  0  0
    8.4452    8.7960   19.2958 O   0  0  0  0  0  0  0  0  0  0  0  0
    8.7122    6.7842   24.8569 C   0  0  0  0  0  0  0  0  0  0  0  0
   10.3400    6.1726   14.3081 C   0  0  0  0  0  0  0  0  0  0  0  0
    7.4297    7.5873   24.8962 C   0  0  0  0  0  0  0  0  0  0  0  0
    8.1566   10.0536   16.0516 O   0  0  0  0  0  0  0  0  0  0  0  0
   12.4989    6.2074   20.1776 C   0  0  0  0  0  0  0  0  0  0  0  0
    6.9192    9.1053   20.9073 O   0  0  0  0  0  0  0  0  0  0  0  0
   14.3979    6.0729   18.7784 C   0  0  0  0  0  0  0  0  0  0  0  0
    8.6811    9.5354   16.9998 C   0  0  0  0  0  0  0  0  0  0  0  0
    9.2512    4.2713   13.7653 O   0  0  0  0  0  0  0  0  0  0  0  0
    9.6495    8.6317   16.8332 N   0  0  0  0  0  0  0  0  0  0  0  0
    6.2934    8.6988   23.1988 O   0  0  0  0  0  0  0  0  0  0  0  0
    7.9806    8.6543   20.5437 C   0  0  0  0  0  0  0  0  0  0  0  0
   13.7270    5.7144   19.8610 O   0  0  0  0  0  0  0  0  0  0  0  0
    8.3351    5.5235   15.4478 C   0  0  0  0  0  0  0  0  0  0  0  0
    8.7700    7.8434   21.3915 C   0  0  0  0  0  0  0  0  0  0  0  0
   11.7856    6.8851   19.2401 C   0  0  0  0  0  0  0  0  0  0  0  0
   10.5281    7.4276   19.5649 C   0  0  0  0  0  0  0  0  0  0  0  0
   10.0256    7.2907   20.8484 C   0  0  0  0  0  0  0  0  0  0  0  0
    9.3113    5.3049   14.4911 C   0  0  0  0  0  0  0  0  0  0  0  0
    9.4607    7.5646   16.0139 C   0  0  0  0  0  0  0  0  0  0  0  0
   10.4192    7.3157   15.0955 C   0  0  0  0  0  0  0  0  0  0  0  0
   10.2489    6.4227   23.0218 N   0  0  0  0  0  0  0  0  0  0  0  0
    7.2472    8.0746   23.5050 C   0  0  0  0  0  0  0  0  0  0  0  0
    9.2051    6.9101   23.4604 C   0  0  0  0  0  0  0  0  0  0  0  0
   11.9646    6.0299   21.4251 C   0  0  0  0  0  0  0  0  0  0  0  0
  1  5  1  0
  1 13  1  0
  2 20  2  0
  2 28  1  0
  2 29  1  0
  3 19  4  0
  3 25  4  0
  4 23  4  0
  4 27  1  0
  4 30  4  0
  5 17  1  0
  6  8  1  0
  6 29  1  0
  7 24  4  0
  7 26  4  0
  8 28  1  0
  9 13  2  0
 10 18  1  0
 10 21  4  0
 10 30  4  0
 11 17  2  0
 12 18  1  0
 13 15  1  0
 14 24  1  0
 15 25  1  0
 16 28  2  0
 17 20  1  0
 19 24  4  0
 20 23  1  0
 21 22  4  0
 22 23  4  0
 25 26  4  0
 27 29  2  0
M  END
$$$$

 Created by Python create_sdf_string function

 30 33  0  0  0  0  0  0  0  0999 V2000
    8.3036    9.8571   18.4133 C   0  0  0  0  0  0  0  0  0  0  0  0
    8.3694    7.6612   22.6703 C   0  0  0  0  0  0  0  0  0  0  0  0
    8.4143    6.6863   16.2273 C   0  0  0  0  0  0  0  0  0  0  0  0
   10.7581    6.5674   21.7636 C   0  0  0  0  0  0  0  0  0  0  0  0
    8.4452    8.7960   19.2958 O   0  0  0  0  0  0  0  0  0  0  0  0
    8.7122    6.7842   24.8569 C   0  0  0  0  0  0  0  0  0  0  0  0
   10.3400    6.1726   14.3081 C   0  0  0  0  0  0  0  0  0  0  0  0
    7.4297    7.5873   24.8962 C   0  0  0  0  0  0  0  0  0  0  0  0
    8.1566   10.0536   16.0516 O   0  0  0  0  0  0  0  0  0  0  0  0
   12.4989    6.2074   20.1776 C   0  0  0  0  0  0  0  0  0  0  0  0
    6.9192    9.1053   20.9073 O   0  0  0  0  0  0  0  0  0  0  0  0
   14.3979    6.0729   18.7784 C   0  0  0  0  0  0  0  0  0  0  0  0
    8.6811    9.5354   16.9998 C   0  0  0  0  0  0  0  0  0  0  0  0
    9.2512    4.2713   13.7653 O   0  0  0  0  0  0  0  0  0  0  0  0
    9.6495    8.6317   16.8332 N   0  0  0  0  0  0  0  0  0  0  0  0
    6.2934    8.6988   23.1988 O   0  0  0  0  0  0  0  0  0  0  0  0
    7.9806    8.6543   20.5437 C   0  0  0  0  0  0  0  0  0  0  0  0
   13.7270    5.7144   19.8610 O   0  0  0  0  0  0  0  0  0  0  0  0
    8.3351    5.5235   15.4478 C   0  0  0  0  0  0  0  0  0  0  0  0
    8.7700    7.8434   21.3915 C   0  0  0  0  0  0  0  0  0  0  0  0
   11.7856    6.8851   19.2401 C   0  0  0  0  0  0  0  0  0  0  0  0
   10.5281    7.4276   19.5649 C   0  0  0  0  0  0  0  0  0  0  0  0
   10.0256    7.2907   20.8484 C   0  0  0  0  0  0  0  0  0  0  0  0
    9.3113    5.3049   14.4911 C   0  0  0  0  0  0  0  0  0  0  0  0
    9.4607    7.5646   16.0139 C   0  0  0  0  0  0  0  0  0  0  0  0
   10.4192    7.3157   15.0955 C   0  0  0  0  0  0  0  0  0  0  0  0
   10.2489    6.4227   23.0218 N   0  0  0  0  0  0  0  0  0  0  0  0
    7.2472    8.0746   23.5050 C   0  0  0  0  0  0  0  0  0  0  0  0
    9.2051    6.9101   23.4604 C   0  0  0  0  0  0  0  0  0  0  0  0
   11.9646    6.0299   21.4251 C   0  0  0  0  0  0  0  0  0  0  0  0
  1  5  1  0
  1 13  1  0
  2 20  2  0
  2 28  1  0
  2 29  1  0
  3 19  4  0
  3 25  4  0
  4 23  4  0
  4 27  1  0
  4 30  4  0
  5 17  1  0
  6  8  1  0
  6 29  1  0
  7 24  4  0
  7 26  4  0
  8 28  1  0
  9 13  2  0
 10 18  1  0
 10 21  4  0
 10 30  4  0
 11 17  2  0
 12 18  1  0
 13 15  1  0
 14 24  1  0
 15 25  1  0
 16 28  2  0
 17 20  1  0
 19 24  4  0
 20 23  1  0
 21 22  4  0
 22 23  4  0
 25 26  4  0
 27 29  2  0
M  END
$$$$

 Created by Python create_sdf_string function

 30 33  0  0  0  0  0  0  0  0999 V2000
    8.3036    9.8571   18.4133 C   0  0  0  0  0  0  0  0  0  0  0  0
    8.3694    7.6612   22.6703 C   0  0  0  0  0  0  0  0  0  0  0  0
    8.4143    6.6863   16.2273 C   0  0  0  0  0  0  0  0  0  0  0  0
   10.7581    6.5674   21.7636 C   0  0  0  0  0  0  0  0  0  0  0  0
    8.4452    8.7960   19.2958 O   0  0  0  0  0  0  0  0  0  0  0  0
    8.7122    6.7842   24.8569 C   0  0  0  0  0  0  0  0  0  0  0  0
   10.3400    6.1726   14.3081 C   0  0  0  0  0  0  0  0  0  0  0  0
    7.4297    7.5873   24.8962 C   0  0  0  0  0  0  0  0  0  0  0  0
    8.1566   10.0536   16.0516 O   0  0  0  0  0  0  0  0  0  0  0  0
   12.4989    6.2074   20.1776 C   0  0  0  0  0  0  0  0  0  0  0  0
    6.9192    9.1053   20.9073 O   0  0  0  0  0  0  0  0  0  0  0  0
   14.3979    6.0729   18.7784 C   0  0  0  0  0  0  0  0  0  0  0  0
    8.6811    9.5354   16.9998 C   0  0  0  0  0  0  0  0  0  0  0  0
    9.2512    4.2713   13.7653 O   0  0  0  0  0  0  0  0  0  0  0  0
    9.6495    8.6317   16.8332 N   0  0  0  0  0  0  0  0  0  0  0  0
    6.2934    8.6988   23.1988 O   0  0  0  0  0  0  0  0  0  0  0  0
    7.9806    8.6543   20.5437 C   0  0  0  0  0  0  0  0  0  0  0  0
   13.7270    5.7144   19.8610 O   0  0  0  0  0  0  0  0  0  0  0  0
    8.3351    5.5235   15.4478 C   0  0  0  0  0  0  0  0  0  0  0  0
    8.7700    7.8434   21.3915 C   0  0  0  0  0  0  0  0  0  0  0  0
   11.7856    6.8851   19.2401 C   0  0  0  0  0  0  0  0  0  0  0  0
   10.5281    7.4276   19.5649 C   0  0  0  0  0  0  0  0  0  0  0  0
   10.0256    7.2907   20.8484 C   0  0  0  0  0  0  0  0  0  0  0  0
    9.3113    5.3049   14.4911 C   0  0  0  0  0  0  0  0  0  0  0  0
    9.4607    7.5646   16.0139 C   0  0  0  0  0  0  0  0  0  0  0  0
   10.4192    7.3157   15.0955 C   0  0  0  0  0  0  0  0  0  0  0  0
   10.2489    6.4227   23.0218 N   0  0  0  0  0  0  0  0  0  0  0  0
    7.2472    8.0746   23.5050 C   0  0  0  0  0  0  0  0  0  0  0  0
    9.2051    6.9101   23.4604 C   0  0  0  0  0  0  0  0  0  0  0  0
   11.9646    6.0299   21.4251 C   0  0  0  0  0  0  0  0  0  0  0  0
  1  5  1  0
  1 13  1  0
  2 20  2  0
  2 28  1  0
  2 29  1  0
  3 19  4  0
  3 25  4  0
  4 23  4  0
  4 27  1  0
  4 30  4  0
  5 17  1  0
  6  8  1  0
  6 29  1  0
  7 24  4  0
  7 26  4  0
  8 28  1  0
  9 13  2  0
 10 18  1  0
 10 21  4  0
 10 30  4  0
 11 17  2  0
 12 18  1  0
 13 15  1  0
 14 24  1  0
 15 25  1  0
 16 28  2  0
 17 20  1  0
 19 24  4  0
 20 23  1  0
 21 22  4  0
 22 23  4  0
 25 26  4  0
 27 29  2  0
M  END
$$$$

 Created by Python create_sdf_string function

 30 33  0  0  0  0  0  0  0  0999 V2000
    8.3036    9.8571   18.4133 C   0  0  0  0  0  0  0  0  0  0  0  0
    8.3694    7.6612   22.6703 C   0  0  0  0  0  0  0  0  0  0  0  0
    8.4143    6.6863   16.2273 C   0  0  0  0  0  0  0  0  0  0  0  0
   10.7581    6.5674   21.7636 C   0  0  0  0  0  0  0  0  0  0  0  0
    8.4452    8.7960   19.2958 O   0  0  0  0  0  0  0  0  0  0  0  0
    8.7122    6.7842   24.8569 C   0  0  0  0  0  0  0  0  0  0  0  0
   10.3400    6.1726   14.3081 C   0  0  0  0  0  0  0  0  0  0  0  0
    7.4297    7.5873   24.8962 C   0  0  0  0  0  0  0  0  0  0  0  0
    8.1566   10.0536   16.0516 O   0  0  0  0  0  0  0  0  0  0  0  0
   12.4989    6.2074   20.1776 C   0  0  0  0  0  0  0  0  0  0  0  0
    6.9192    9.1053   20.9073 O   0  0  0  0  0  0  0  0  0  0  0  0
   14.3979    6.0729   18.7784 C   0  0  0  0  0  0  0  0  0  0  0  0
    8.6811    9.5354   16.9998 C   0  0  0  0  0  0  0  0  0  0  0  0
    9.2512    4.2713   13.7653 O   0  0  0  0  0  0  0  0  0  0  0  0
    9.6495    8.6317   16.8332 N   0  0  0  0  0  0  0  0  0  0  0  0
    6.2934    8.6988   23.1988 O   0  0  0  0  0  0  0  0  0  0  0  0
    7.9806    8.6543   20.5437 C   0  0  0  0  0  0  0  0  0  0  0  0
   13.7270    5.7144   19.8610 O   0  0  0  0  0  0  0  0  0  0  0  0
    8.3351    5.5235   15.4478 C   0  0  0  0  0  0  0  0  0  0  0  0
    8.7700    7.8434   21.3915 C   0  0  0  0  0  0  0  0  0  0  0  0
   11.7856    6.8851   19.2401 C   0  0  0  0  0  0  0  0  0  0  0  0
   10.5281    7.4276   19.5649 C   0  0  0  0  0  0  0  0  0  0  0  0
   10.0256    7.2907   20.8484 C   0  0  0  0  0  0  0  0  0  0  0  0
    9.3113    5.3049   14.4911 C   0  0  0  0  0  0  0  0  0  0  0  0
    9.4607    7.5646   16.0139 C   0  0  0  0  0  0  0  0  0  0  0  0
   10.4192    7.3157   15.0955 C   0  0  0  0  0  0  0  0  0  0  0  0
   10.2489    6.4227   23.0218 N   0  0  0  0  0  0  0  0  0  0  0  0
    7.2472    8.0746   23.5050 C   0  0  0  0  0  0  0  0  0  0  0  0
    9.2051    6.9101   23.4604 C   0  0  0  0  0  0  0  0  0  0  0  0
   11.9646    6.0299   21.4251 C   0  0  0  0  0  0  0  0  0  0  0  0
  1  5  1  0
  1 13  1  0
  2 20  2  0
  2 28  1  0
  2 29  1  0
  3 19  4  0
  3 25  4  0
  4 23  4  0
  4 27  1  0
  4 30  4  0
  5 17  1  0
  6  8  1  0
  6 29  1  0
  7 24  4  0
  7 26  4  0
  8 28  1  0
  9 13  2  0
 10 18  1  0
 10 21  4  0
 10 30  4  0
 11 17  2  0
 12 18  1  0
 13 15  1  0
 14 24  1  0
 15 25  1  0
 16 28  2  0
 17 20  1  0
 19 24  4  0
 20 23  1  0
 21 22  4  0
 22 23  4  0
 25 26  4  0
 27 29  2  0
M  END
$$$$

 Created by Python create_sdf_string function

 30 33  0  0  0  0  0  0  0  0999 V2000
    8.3036    9.8571   18.4133 C   0  0  0  0  0  0  0  0  0  0  0  0
    8.3694    7.6612   22.6703 C   0  0  0  0  0  0  0  0  0  0  0  0
    8.4143    6.6863   16.2273 C   0  0  0  0  0  0  0  0  0  0  0  0
   10.7581    6.5674   21.7636 C   0  0  0  0  0  0  0  0  0  0  0  0
    8.4452    8.7960   19.2958 O   0  0  0  0  0  0  0  0  0  0  0  0
    8.7122    6.7842   24.8569 C   0  0  0  0  0  0  0  0  0  0  0  0
   10.3400    6.1726   14.3081 C   0  0  0  0  0  0  0  0  0  0  0  0
    7.4297    7.5873   24.8962 C   0  0  0  0  0  0  0  0  0  0  0  0
    8.1566   10.0536   16.0516 O   0  0  0  0  0  0  0  0  0  0  0  0
   12.4989    6.2074   20.1776 C   0  0  0  0  0  0  0  0  0  0  0  0
    6.9192    9.1053   20.9073 O   0  0  0  0  0  0  0  0  0  0  0  0
   14.3979    6.0729   18.7784 C   0  0  0  0  0  0  0  0  0  0  0  0
    8.6811    9.5354   16.9998 C   0  0  0  0  0  0  0  0  0  0  0  0
    9.2512    4.2713   13.7653 O   0  0  0  0  0  0  0  0  0  0  0  0
    9.6495    8.6317   16.8332 N   0  0  0  0  0  0  0  0  0  0  0  0
    6.2934    8.6988   23.1988 O   0  0  0  0  0  0  0  0  0  0  0  0
    7.9806    8.6543   20.5437 C   0  0  0  0  0  0  0  0  0  0  0  0
   13.7270    5.7144   19.8610 O   0  0  0  0  0  0  0  0  0  0  0  0
    8.3351    5.5235   15.4478 C   0  0  0  0  0  0  0  0  0  0  0  0
    8.7700    7.8434   21.3915 C   0  0  0  0  0  0  0  0  0  0  0  0
   11.7856    6.8851   19.2401 C   0  0  0  0  0  0  0  0  0  0  0  0
   10.5281    7.4276   19.5649 C   0  0  0  0  0  0  0  0  0  0  0  0
   10.0256    7.2907   20.8484 C   0  0  0  0  0  0  0  0  0  0  0  0
    9.3113    5.3049   14.4911 C   0  0  0  0  0  0  0  0  0  0  0  0
    9.4607    7.5646   16.0139 C   0  0  0  0  0  0  0  0  0  0  0  0
   10.4192    7.3157   15.0955 C   0  0  0  0  0  0  0  0  0  0  0  0
   10.2489    6.4227   23.0218 N   0  0  0  0  0  0  0  0  0  0  0  0
    7.2472    8.0746   23.5050 C   0  0  0  0  0  0  0  0  0  0  0  0
    9.2051    6.9101   23.4604 C   0  0  0  0  0  0  0  0  0  0  0  0
   11.9646    6.0299   21.4251 C   0  0  0  0  0  0  0  0  0  0  0  0
  1  5  1  0
  1 13  1  0
  2 20  2  0
  2 28  1  0
  2 29  1  0
  3 19  4  0
  3 25  4  0
  4 23  4  0
  4 27  1  0
  4 30  4  0
  5 17  1  0
  6  8  1  0
  6 29  1  0
  7 24  4  0
  7 26  4  0
  8 28  1  0
  9 13  2  0
 10 18  1  0
 10 21  4  0
 10 30  4  0
 11 17  2  0
 12 18  1  0
 13 15  1  0
 14 24  1  0
 15 25  1  0
 16 28  2  0
 17 20  1  0
 19 24  4  0
 20 23  1  0
 21 22  4  0
 22 23  4  0
 25 26  4  0
 27 29  2  0
M  END
$$$$

 Created by Python create_sdf_string function

 30 33  0  0  0  0  0  0  0  0999 V2000
    8.3036    9.8571   18.4133 C   0  0  0  0  0  0  0  0  0  0  0  0
    8.3694    7.6612   22.6703 C   0  0  0  0  0  0  0  0  0  0  0  0
    8.4143    6.6863   16.2273 C   0  0  0  0  0  0  0  0  0  0  0  0
   10.7581    6.5674   21.7636 C   0  0  0  0  0  0  0  0  0  0  0  0
    8.4452    8.7960   19.2958 O   0  0  0  0  0  0  0  0  0  0  0  0
    8.7122    6.7842   24.8569 C   0  0  0  0  0  0  0  0  0  0  0  0
   10.3400    6.1726   14.3081 C   0  0  0  0  0  0  0  0  0  0  0  0
    7.4297    7.5873   24.8962 C   0  0  0  0  0  0  0  0  0  0  0  0
    8.1566   10.0536   16.0516 O   0  0  0  0  0  0  0  0  0  0  0  0
   12.4989    6.2074   20.1776 C   0  0  0  0  0  0  0  0  0  0  0  0
    6.9192    9.1053   20.9073 O   0  0  0  0  0  0  0  0  0  0  0  0
   14.3979    6.0729   18.7784 C   0  0  0  0  0  0  0  0  0  0  0  0
    8.6811    9.5354   16.9998 C   0  0  0  0  0  0  0  0  0  0  0  0
    9.2512    4.2713   13.7653 O   0  0  0  0  0  0  0  0  0  0  0  0
    9.6495    8.6317   16.8332 N   0  0  0  0  0  0  0  0  0  0  0  0
    6.2934    8.6988   23.1988 O   0  0  0  0  0  0  0  0  0  0  0  0
    7.9806    8.6543   20.5437 C   0  0  0  0  0  0  0  0  0  0  0  0
   13.7270    5.7144   19.8610 O   0  0  0  0  0  0  0  0  0  0  0  0
    8.3351    5.5235   15.4478 C   0  0  0  0  0  0  0  0  0  0  0  0
    8.7700    7.8434   21.3915 C   0  0  0  0  0  0  0  0  0  0  0  0
   11.7856    6.8851   19.2401 C   0  0  0  0  0  0  0  0  0  0  0  0
   10.5281    7.4276   19.5649 C   0  0  0  0  0  0  0  0  0  0  0  0
   10.0256    7.2907   20.8484 C   0  0  0  0  0  0  0  0  0  0  0  0
    9.3113    5.3049   14.4911 C   0  0  0  0  0  0  0  0  0  0  0  0
    9.4607    7.5646   16.0139 C   0  0  0  0  0  0  0  0  0  0  0  0
   10.4192    7.3157   15.0955 C   0  0  0  0  0  0  0  0  0  0  0  0
   10.2489    6.4227   23.0218 N   0  0  0  0  0  0  0  0  0  0  0  0
    7.2472    8.0746   23.5050 C   0  0  0  0  0  0  0  0  0  0  0  0
    9.2051    6.9101   23.4604 C   0  0  0  0  0  0  0  0  0  0  0  0
   11.9646    6.0299   21.4251 C   0  0  0  0  0  0  0  0  0  0  0  0
  1  5  1  0
  1 13  1  0
  2 20  2  0
  2 28  1  0
  2 29  1  0
  3 19  4  0
  3 25  4  0
  4 23  4  0
  4 27  1  0
  4 30  4  0
  5 17  1  0
  6  8  1  0
  6 29  1  0
  7 24  4  0
  7 26  4  0
  8 28  1  0
  9 13  2  0
 10 18  1  0
 10 21  4  0
 10 30  4  0
 11 17  2  0
 12 18  1  0
 13 15  1  0
 14 24  1  0
 15 25  1  0
 16 28  2  0
 17 20  1  0
 19 24  4  0
 20 23  1  0
 21 22  4  0
 22 23  4  0
 25 26  4  0
 27 29  2  0
M  END
$$$$

 Created by Python create_sdf_string function

 30 33  0  0  0  0  0  0  0  0999 V2000
    8.3036    9.8571   18.4133 C   0  0  0  0  0  0  0  0  0  0  0  0
    8.3694    7.6612   22.6703 C   0  0  0  0  0  0  0  0  0  0  0  0
    8.4143    6.6863   16.2273 C   0  0  0  0  0  0  0  0  0  0  0  0
   10.7581    6.5674   21.7636 C   0  0  0  0  0  0  0  0  0  0  0  0
    8.4452    8.7960   19.2958 O   0  0  0  0  0  0  0  0  0  0  0  0
    8.7122    6.7842   24.8569 C   0  0  0  0  0  0  0  0  0  0  0  0
   10.3400    6.1726   14.3081 C   0  0  0  0  0  0  0  0  0  0  0  0
    7.4297    7.5873   24.8962 C   0  0  0  0  0  0  0  0  0  0  0  0
    8.1566   10.0536   16.0516 O   0  0  0  0  0  0  0  0  0  0  0  0
   12.4989    6.2074   20.1776 C   0  0  0  0  0  0  0  0  0  0  0  0
    6.9192    9.1053   20.9073 O   0  0  0  0  0  0  0  0  0  0  0  0
   14.3979    6.0729   18.7784 C   0  0  0  0  0  0  0  0  0  0  0  0
    8.6811    9.5354   16.9998 C   0  0  0  0  0  0  0  0  0  0  0  0
    9.2512    4.2713   13.7653 O   0  0  0  0  0  0  0  0  0  0  0  0
    9.6495    8.6317   16.8332 N   0  0  0  0  0  0  0  0  0  0  0  0
    6.2934    8.6988   23.1988 O   0  0  0  0  0  0  0  0  0  0  0  0
    7.9806    8.6543   20.5437 C   0  0  0  0  0  0  0  0  0  0  0  0
   13.7270    5.7144   19.8610 O   0  0  0  0  0  0  0  0  0  0  0  0
    8.3351    5.5235   15.4478 C   0  0  0  0  0  0  0  0  0  0  0  0
    8.7700    7.8434   21.3915 C   0  0  0  0  0  0  0  0  0  0  0  0
   11.7856    6.8851   19.2401 C   0  0  0  0  0  0  0  0  0  0  0  0
   10.5281    7.4276   19.5649 C   0  0  0  0  0  0  0  0  0  0  0  0
   10.0256    7.2907   20.8484 C   0  0  0  0  0  0  0  0  0  0  0  0
    9.3113    5.3049   14.4911 C   0  0  0  0  0  0  0  0  0  0  0  0
    9.4607    7.5646   16.0139 C   0  0  0  0  0  0  0  0  0  0  0  0
   10.4192    7.3157   15.0955 C   0  0  0  0  0  0  0  0  0  0  0  0
   10.2489    6.4227   23.0218 N   0  0  0  0  0  0  0  0  0  0  0  0
    7.2472    8.0746   23.5050 C   0  0  0  0  0  0  0  0  0  0  0  0
    9.2051    6.9101   23.4604 C   0  0  0  0  0  0  0  0  0  0  0  0
   11.9646    6.0299   21.4251 C   0  0  0  0  0  0  0  0  0  0  0  0
  1  5  1  0
  1 13  1  0
  2 20  2  0
  2 28  1  0
  2 29  1  0
  3 19  4  0
  3 25  4  0
  4 23  4  0
  4 27  1  0
  4 30  4  0
  5 17  1  0
  6  8  1  0
  6 29  1  0
  7 24  4  0
  7 26  4  0
  8 28  1  0
  9 13  2  0
 10 18  1  0
 10 21  4  0
 10 30  4  0
 11 17  2  0
 12 18  1  0
 13 15  1  0
 14 24  1  0
 15 25  1  0
 16 28  2  0
 17 20  1  0
 19 24  4  0
 20 23  1  0
 21 22  4  0
 22 23  4  0
 25 26  4  0
 27 29  2  0
M  END
$$$$

 Created by Python create_sdf_string function

 30 33  0  0  0  0  0  0  0  0999 V2000
    8.3036    9.8571   18.4133 C   0  0  0  0  0  0  0  0  0  0  0  0
    8.3694    7.6612   22.6703 C   0  0  0  0  0  0  0  0  0  0  0  0
    8.4143    6.6863   16.2273 C   0  0  0  0  0  0  0  0  0  0  0  0
   10.7581    6.5674   21.7636 C   0  0  0  0  0  0  0  0  0  0  0  0
    8.4452    8.7960   19.2958 O   0  0  0  0  0  0  0  0  0  0  0  0
    8.7122    6.7842   24.8569 C   0  0  0  0  0  0  0  0  0  0  0  0
   10.3400    6.1726   14.3081 C   0  0  0  0  0  0  0  0  0  0  0  0
    7.4297    7.5873   24.8962 C   0  0  0  0  0  0  0  0  0  0  0  0
    8.1566   10.0536   16.0516 O   0  0  0  0  0  0  0  0  0  0  0  0
   12.4989    6.2074   20.1776 C   0  0  0  0  0  0  0  0  0  0  0  0
    6.9192    9.1053   20.9073 O   0  0  0  0  0  0  0  0  0  0  0  0
   14.3979    6.0729   18.7784 C   0  0  0  0  0  0  0  0  0  0  0  0
    8.6811    9.5354   16.9998 C   0  0  0  0  0  0  0  0  0  0  0  0
    9.2512    4.2713   13.7653 O   0  0  0  0  0  0  0  0  0  0  0  0
    9.6495    8.6317   16.8332 N   0  0  0  0  0  0  0  0  0  0  0  0
    6.2934    8.6988   23.1988 O   0  0  0  0  0  0  0  0  0  0  0  0
    7.9806    8.6543   20.5437 C   0  0  0  0  0  0  0  0  0  0  0  0
   13.7270    5.7144   19.8610 O   0  0  0  0  0  0  0  0  0  0  0  0
    8.3351    5.5235   15.4478 C   0  0  0  0  0  0  0  0  0  0  0  0
    8.7700    7.8434   21.3915 C   0  0  0  0  0  0  0  0  0  0  0  0
   11.7856    6.8851   19.2401 C   0  0  0  0  0  0  0  0  0  0  0  0
   10.5281    7.4276   19.5649 C   0  0  0  0  0  0  0  0  0  0  0  0
   10.0256    7.2907   20.8484 C   0  0  0  0  0  0  0  0  0  0  0  0
    9.3113    5.3049   14.4911 C   0  0  0  0  0  0  0  0  0  0  0  0
    9.4607    7.5646   16.0139 C   0  0  0  0  0  0  0  0  0  0  0  0
   10.4192    7.3157   15.0955 C   0  0  0  0  0  0  0  0  0  0  0  0
   10.2489    6.4227   23.0218 N   0  0  0  0  0  0  0  0  0  0  0  0
    7.2472    8.0746   23.5050 C   0  0  0  0  0  0  0  0  0  0  0  0
    9.2051    6.9101   23.4604 C   0  0  0  0  0  0  0  0  0  0  0  0
   11.9646    6.0299   21.4251 C   0  0  0  0  0  0  0  0  0  0  0  0
  1  5  1  0
  1 13  1  0
  2 20  2  0
  2 28  1  0
  2 29  1  0
  3 19  4  0
  3 25  4  0
  4 23  4  0
  4 27  1  0
  4 30  4  0
  5 17  1  0
  6  8  1  0
  6 29  1  0
  7 24  4  0
  7 26  4  0
  8 28  1  0
  9 13  2  0
 10 18  1  0
 10 21  4  0
 10 30  4  0
 11 17  2  0
 12 18  1  0
 13 15  1  0
 14 24  1  0
 15 25  1  0
 16 28  2  0
 17 20  1  0
 19 24  4  0
 20 23  1  0
 21 22  4  0
 22 23  4  0
 25 26  4  0
 27 29  2  0
M  END
$$$$

 Created by Python create_sdf_string function

 30 33  0  0  0  0  0  0  0  0999 V2000
    8.3036    9.8571   18.4133 C   0  0  0  0  0  0  0  0  0  0  0  0
    8.3694    7.6612   22.6703 C   0  0  0  0  0  0  0  0  0  0  0  0
    8.4143    6.6863   16.2273 C   0  0  0  0  0  0  0  0  0  0  0  0
   10.7581    6.5674   21.7636 C   0  0  0  0  0  0  0  0  0  0  0  0
    8.4452    8.7960   19.2958 O   0  0  0  0  0  0  0  0  0  0  0  0
    8.7122    6.7842   24.8569 C   0  0  0  0  0  0  0  0  0  0  0  0
   10.3400    6.1726   14.3081 C   0  0  0  0  0  0  0  0  0  0  0  0
    7.4297    7.5873   24.8962 C   0  0  0  0  0  0  0  0  0  0  0  0
    8.1566   10.0536   16.0516 O   0  0  0  0  0  0  0  0  0  0  0  0
   12.4989    6.2074   20.1776 C   0  0  0  0  0  0  0  0  0  0  0  0
    6.9192    9.1053   20.9073 O   0  0  0  0  0  0  0  0  0  0  0  0
   14.3979    6.0729   18.7784 C   0  0  0  0  0  0  0  0  0  0  0  0
    8.6811    9.5354   16.9998 C   0  0  0  0  0  0  0  0  0  0  0  0
    9.2512    4.2713   13.7653 O   0  0  0  0  0  0  0  0  0  0  0  0
    9.6495    8.6317   16.8332 N   0  0  0  0  0  0  0  0  0  0  0  0
    6.2934    8.6988   23.1988 O   0  0  0  0  0  0  0  0  0  0  0  0
    7.9806    8.6543   20.5437 C   0  0  0  0  0  0  0  0  0  0  0  0
   13.7270    5.7144   19.8610 O   0  0  0  0  0  0  0  0  0  0  0  0
    8.3351    5.5235   15.4478 C   0  0  0  0  0  0  0  0  0  0  0  0
    8.7700    7.8434   21.3915 C   0  0  0  0  0  0  0  0  0  0  0  0
   11.7856    6.8851   19.2401 C   0  0  0  0  0  0  0  0  0  0  0  0
   10.5281    7.4276   19.5649 C   0  0  0  0  0  0  0  0  0  0  0  0
   10.0256    7.2907   20.8484 C   0  0  0  0  0  0  0  0  0  0  0  0
    9.3113    5.3049   14.4911 C   0  0  0  0  0  0  0  0  0  0  0  0
    9.4607    7.5646   16.0139 C   0  0  0  0  0  0  0  0  0  0  0  0
   10.4192    7.3157   15.0955 C   0  0  0  0  0  0  0  0  0  0  0  0
   10.2489    6.4227   23.0218 N   0  0  0  0  0  0  0  0  0  0  0  0
    7.2472    8.0746   23.5050 C   0  0  0  0  0  0  0  0  0  0  0  0
    9.2051    6.9101   23.4604 C   0  0  0  0  0  0  0  0  0  0  0  0
   11.9646    6.0299   21.4251 C   0  0  0  0  0  0  0  0  0  0  0  0
  1  5  1  0
  1 13  1  0
  2 20  2  0
  2 28  1  0
  2 29  1  0
  3 19  4  0
  3 25  4  0
  4 23  4  0
  4 27  1  0
  4 30  4  0
  5 17  1  0
  6  8  1  0
  6 29  1  0
  7 24  4  0
  7 26  4  0
  8 28  1  0
  9 13  2  0
 10 18  1  0
 10 21  4  0
 10 30  4  0
 11 17  2  0
 12 18  1  0
 13 15  1  0
 14 24  1  0
 15 25  1  0
 16 28  2  0
 17 20  1  0
 19 24  4  0
 20 23  1  0
 21 22  4  0
 22 23  4  0
 25 26  4  0
 27 29  2  0
M  END
$$$$

 Created by Python create_sdf_string function

 30 33  0  0  0  0  0  0  0  0999 V2000
    8.3036    9.8571   18.4133 C   0  0  0  0  0  0  0  0  0  0  0  0
    8.3694    7.6612   22.6703 C   0  0  0  0  0  0  0  0  0  0  0  0
    8.4143    6.6863   16.2273 C   0  0  0  0  0  0  0  0  0  0  0  0
   10.7581    6.5674   21.7636 C   0  0  0  0  0  0  0  0  0  0  0  0
    8.4452    8.7960   19.2958 O   0  0  0  0  0  0  0  0  0  0  0  0
    8.7122    6.7842   24.8569 C   0  0  0  0  0  0  0  0  0  0  0  0
   10.3400    6.1726   14.3081 C   0  0  0  0  0  0  0  0  0  0  0  0
    7.4297    7.5873   24.8962 C   0  0  0  0  0  0  0  0  0  0  0  0
    8.1566   10.0536   16.0516 O   0  0  0  0  0  0  0  0  0  0  0  0
   12.4989    6.2074   20.1776 C   0  0  0  0  0  0  0  0  0  0  0  0
    6.9192    9.1053   20.9073 O   0  0  0  0  0  0  0  0  0  0  0  0
   14.3979    6.0729   18.7784 C   0  0  0  0  0  0  0  0  0  0  0  0
    8.6811    9.5354   16.9998 C   0  0  0  0  0  0  0  0  0  0  0  0
    9.2512    4.2713   13.7653 O   0  0  0  0  0  0  0  0  0  0  0  0
    9.6495    8.6317   16.8332 N   0  0  0  0  0  0  0  0  0  0  0  0
    6.2934    8.6988   23.1988 O   0  0  0  0  0  0  0  0  0  0  0  0
    7.9806    8.6543   20.5437 C   0  0  0  0  0  0  0  0  0  0  0  0
   13.7270    5.7144   19.8610 O   0  0  0  0  0  0  0  0  0  0  0  0
    8.3351    5.5235   15.4478 C   0  0  0  0  0  0  0  0  0  0  0  0
    8.7700    7.8434   21.3915 C   0  0  0  0  0  0  0  0  0  0  0  0
   11.7856    6.8851   19.2401 C   0  0  0  0  0  0  0  0  0  0  0  0
   10.5281    7.4276   19.5649 C   0  0  0  0  0  0  0  0  0  0  0  0
   10.0256    7.2907   20.8484 C   0  0  0  0  0  0  0  0  0  0  0  0
    9.3113    5.3049   14.4911 C   0  0  0  0  0  0  0  0  0  0  0  0
    9.4607    7.5646   16.0139 C   0  0  0  0  0  0  0  0  0  0  0  0
   10.4192    7.3157   15.0955 C   0  0  0  0  0  0  0  0  0  0  0  0
   10.2489    6.4227   23.0218 N   0  0  0  0  0  0  0  0  0  0  0  0
    7.2472    8.0746   23.5050 C   0  0  0  0  0  0  0  0  0  0  0  0
    9.2051    6.9101   23.4604 C   0  0  0  0  0  0  0  0  0  0  0  0
   11.9646    6.0299   21.4251 C   0  0  0  0  0  0  0  0  0  0  0  0
  1  5  1  0
  1 13  1  0
  2 20  2  0
  2 28  1  0
  2 29  1  0
  3 19  4  0
  3 25  4  0
  4 23  4  0
  4 27  1  0
  4 30  4  0
  5 17  1  0
  6  8  1  0
  6 29  1  0
  7 24  4  0
  7 26  4  0
  8 28  1  0
  9 13  2  0
 10 18  1  0
 10 21  4  0
 10 30  4  0
 11 17  2  0
 12 18  1  0
 13 15  1  0
 14 24  1  0
 15 25  1  0
 16 28  2  0
 17 20  1  0
 19 24  4  0
 20 23  1  0
 21 22  4  0
 22 23  4  0
 25 26  4  0
 27 29  2  0
M  END
$$$$

 Created by Python create_sdf_string function

 30 33  0  0  0  0  0  0  0  0999 V2000
    8.3036    9.8571   18.4133 C   0  0  0  0  0  0  0  0  0  0  0  0
    8.3694    7.6612   22.6703 C   0  0  0  0  0  0  0  0  0  0  0  0
    8.4143    6.6863   16.2273 C   0  0  0  0  0  0  0  0  0  0  0  0
   10.7581    6.5674   21.7636 C   0  0  0  0  0  0  0  0  0  0  0  0
    8.4452    8.7960   19.2958 O   0  0  0  0  0  0  0  0  0  0  0  0
    8.7122    6.7842   24.8569 C   0  0  0  0  0  0  0  0  0  0  0  0
   10.3400    6.1726   14.3081 C   0  0  0  0  0  0  0  0  0  0  0  0
    7.4297    7.5873   24.8962 C   0  0  0  0  0  0  0  0  0  0  0  0
    8.1566   10.0536   16.0516 O   0  0  0  0  0  0  0  0  0  0  0  0
   12.4989    6.2074   20.1776 C   0  0  0  0  0  0  0  0  0  0  0  0
    6.9192    9.1053   20.9073 O   0  0  0  0  0  0  0  0  0  0  0  0
   14.3979    6.0729   18.7784 C   0  0  0  0  0  0  0  0  0  0  0  0
    8.6811    9.5354   16.9998 C   0  0  0  0  0  0  0  0  0  0  0  0
    9.2512    4.2713   13.7653 O   0  0  0  0  0  0  0  0  0  0  0  0
    9.6495    8.6317   16.8332 N   0  0  0  0  0  0  0  0  0  0  0  0
    6.2934    8.6988   23.1988 O   0  0  0  0  0  0  0  0  0  0  0  0
    7.9806    8.6543   20.5437 C   0  0  0  0  0  0  0  0  0  0  0  0
   13.7270    5.7144   19.8610 O   0  0  0  0  0  0  0  0  0  0  0  0
    8.3351    5.5235   15.4478 C   0  0  0  0  0  0  0  0  0  0  0  0
    8.7700    7.8434   21.3915 C   0  0  0  0  0  0  0  0  0  0  0  0
   11.7856    6.8851   19.2401 C   0  0  0  0  0  0  0  0  0  0  0  0
   10.5281    7.4276   19.5649 C   0  0  0  0  0  0  0  0  0  0  0  0
   10.0256    7.2907   20.8484 C   0  0  0  0  0  0  0  0  0  0  0  0
    9.3113    5.3049   14.4911 C   0  0  0  0  0  0  0  0  0  0  0  0
    9.4607    7.5646   16.0139 C   0  0  0  0  0  0  0  0  0  0  0  0
   10.4192    7.3157   15.0955 C   0  0  0  0  0  0  0  0  0  0  0  0
   10.2489    6.4227   23.0218 N   0  0  0  0  0  0  0  0  0  0  0  0
    7.2472    8.0746   23.5050 C   0  0  0  0  0  0  0  0  0  0  0  0
    9.2051    6.9101   23.4604 C   0  0  0  0  0  0  0  0  0  0  0  0
   11.9646    6.0299   21.4251 C   0  0  0  0  0  0  0  0  0  0  0  0
  1  5  1  0
  1 13  1  0
  2 20  2  0
  2 28  1  0
  2 29  1  0
  3 19  4  0
  3 25  4  0
  4 23  4  0
  4 27  1  0
  4 30  4  0
  5 17  1  0
  6  8  1  0
  6 29  1  0
  7 24  4  0
  7 26  4  0
  8 28  1  0
  9 13  2  0
 10 18  1  0
 10 21  4  0
 10 30  4  0
 11 17  2  0
 12 18  1  0
 13 15  1  0
 14 24  1  0
 15 25  1  0
 16 28  2  0
 17 20  1  0
 19 24  4  0
 20 23  1  0
 21 22  4  0
 22 23  4  0
 25 26  4  0
 27 29  2  0
M  END
$$$$

 Created by Python create_sdf_string function

 30 33  0  0  0  0  0  0  0  0999 V2000
    8.3036    9.8571   18.4133 C   0  0  0  0  0  0  0  0  0  0  0  0
    8.3694    7.6612   22.6703 C   0  0  0  0  0  0  0  0  0  0  0  0
    8.4143    6.6863   16.2273 C   0  0  0  0  0  0  0  0  0  0  0  0
   10.7581    6.5674   21.7636 C   0  0  0  0  0  0  0  0  0  0  0  0
    8.4452    8.7960   19.2958 O   0  0  0  0  0  0  0  0  0  0  0  0
    8.7122    6.7842   24.8569 C   0  0  0  0  0  0  0  0  0  0  0  0
   10.3400    6.1726   14.3081 C   0  0  0  0  0  0  0  0  0  0  0  0
    7.4297    7.5873   24.8962 C   0  0  0  0  0  0  0  0  0  0  0  0
    8.1566   10.0536   16.0516 O   0  0  0  0  0  0  0  0  0  0  0  0
   12.4989    6.2074   20.1776 C   0  0  0  0  0  0  0  0  0  0  0  0
    6.9192    9.1053   20.9073 O   0  0  0  0  0  0  0  0  0  0  0  0
   14.3979    6.0729   18.7784 C   0  0  0  0  0  0  0  0  0  0  0  0
    8.6811    9.5354   16.9998 C   0  0  0  0  0  0  0  0  0  0  0  0
    9.2512    4.2713   13.7653 O   0  0  0  0  0  0  0  0  0  0  0  0
    9.6495    8.6317   16.8332 N   0  0  0  0  0  0  0  0  0  0  0  0
    6.2934    8.6988   23.1988 O   0  0  0  0  0  0  0  0  0  0  0  0
    7.9806    8.6543   20.5437 C   0  0  0  0  0  0  0  0  0  0  0  0
   13.7270    5.7144   19.8610 O   0  0  0  0  0  0  0  0  0  0  0  0
    8.3351    5.5235   15.4478 C   0  0  0  0  0  0  0  0  0  0  0  0
    8.7700    7.8434   21.3915 C   0  0  0  0  0  0  0  0  0  0  0  0
   11.7856    6.8851   19.2401 C   0  0  0  0  0  0  0  0  0  0  0  0
   10.5281    7.4276   19.5649 C   0  0  0  0  0  0  0  0  0  0  0  0
   10.0256    7.2907   20.8484 C   0  0  0  0  0  0  0  0  0  0  0  0
    9.3113    5.3049   14.4911 C   0  0  0  0  0  0  0  0  0  0  0  0
    9.4607    7.5646   16.0139 C   0  0  0  0  0  0  0  0  0  0  0  0
   10.4192    7.3157   15.0955 C   0  0  0  0  0  0  0  0  0  0  0  0
   10.2489    6.4227   23.0218 N   0  0  0  0  0  0  0  0  0  0  0  0
    7.2472    8.0746   23.5050 C   0  0  0  0  0  0  0  0  0  0  0  0
    9.2051    6.9101   23.4604 C   0  0  0  0  0  0  0  0  0  0  0  0
   11.9646    6.0299   21.4251 C   0  0  0  0  0  0  0  0  0  0  0  0
  1  5  1  0
  1 13  1  0
  2 20  2  0
  2 28  1  0
  2 29  1  0
  3 19  4  0
  3 25  4  0
  4 23  4  0
  4 27  1  0
  4 30  4  0
  5 17  1  0
  6  8  1  0
  6 29  1  0
  7 24  4  0
  7 26  4  0
  8 28  1  0
  9 13  2  0
 10 18  1  0
 10 21  4  0
 10 30  4  0
 11 17  2  0
 12 18  1  0
 13 15  1  0
 14 24  1  0
 15 25  1  0
 16 28  2  0
 17 20  1  0
 19 24  4  0
 20 23  1  0
 21 22  4  0
 22 23  4  0
 25 26  4  0
 27 29  2  0
M  END
$$$$

 Created by Python create_sdf_string function

 30 33  0  0  0  0  0  0  0  0999 V2000
    8.3036    9.8571   18.4133 C   0  0  0  0  0  0  0  0  0  0  0  0
    8.3694    7.6612   22.6703 C   0  0  0  0  0  0  0  0  0  0  0  0
    8.4143    6.6863   16.2273 C   0  0  0  0  0  0  0  0  0  0  0  0
   10.7581    6.5674   21.7636 C   0  0  0  0  0  0  0  0  0  0  0  0
    8.4452    8.7960   19.2958 O   0  0  0  0  0  0  0  0  0  0  0  0
    8.7122    6.7842   24.8569 C   0  0  0  0  0  0  0  0  0  0  0  0
   10.3400    6.1726   14.3081 C   0  0  0  0  0  0  0  0  0  0  0  0
    7.4297    7.5873   24.8962 C   0  0  0  0  0  0  0  0  0  0  0  0
    8.1566   10.0536   16.0516 O   0  0  0  0  0  0  0  0  0  0  0  0
   12.4989    6.2074   20.1776 C   0  0  0  0  0  0  0  0  0  0  0  0
    6.9192    9.1053   20.9073 O   0  0  0  0  0  0  0  0  0  0  0  0
   14.3979    6.0729   18.7784 C   0  0  0  0  0  0  0  0  0  0  0  0
    8.6811    9.5354   16.9998 C   0  0  0  0  0  0  0  0  0  0  0  0
    9.2512    4.2713   13.7653 O   0  0  0  0  0  0  0  0  0  0  0  0
    9.6495    8.6317   16.8332 N   0  0  0  0  0  0  0  0  0  0  0  0
    6.2934    8.6988   23.1988 O   0  0  0  0  0  0  0  0  0  0  0  0
    7.9806    8.6543   20.5437 C   0  0  0  0  0  0  0  0  0  0  0  0
   13.7270    5.7144   19.8610 O   0  0  0  0  0  0  0  0  0  0  0  0
    8.3351    5.5235   15.4478 C   0  0  0  0  0  0  0  0  0  0  0  0
    8.7700    7.8434   21.3915 C   0  0  0  0  0  0  0  0  0  0  0  0
   11.7856    6.8851   19.2401 C   0  0  0  0  0  0  0  0  0  0  0  0
   10.5281    7.4276   19.5649 C   0  0  0  0  0  0  0  0  0  0  0  0
   10.0256    7.2907   20.8484 C   0  0  0  0  0  0  0  0  0  0  0  0
    9.3113    5.3049   14.4911 C   0  0  0  0  0  0  0  0  0  0  0  0
    9.4607    7.5646   16.0139 C   0  0  0  0  0  0  0  0  0  0  0  0
   10.4192    7.3157   15.0955 C   0  0  0  0  0  0  0  0  0  0  0  0
   10.2489    6.4227   23.0218 N   0  0  0  0  0  0  0  0  0  0  0  0
    7.2472    8.0746   23.5050 C   0  0  0  0  0  0  0  0  0  0  0  0
    9.2051    6.9101   23.4604 C   0  0  0  0  0  0  0  0  0  0  0  0
   11.9646    6.0299   21.4251 C   0  0  0  0  0  0  0  0  0  0  0  0
  1  5  1  0
  1 13  1  0
  2 20  2  0
  2 28  1  0
  2 29  1  0
  3 19  4  0
  3 25  4  0
  4 23  4  0
  4 27  1  0
  4 30  4  0
  5 17  1  0
  6  8  1  0
  6 29  1  0
  7 24  4  0
  7 26  4  0
  8 28  1  0
  9 13  2  0
 10 18  1  0
 10 21  4  0
 10 30  4  0
 11 17  2  0
 12 18  1  0
 13 15  1  0
 14 24  1  0
 15 25  1  0
 16 28  2  0
 17 20  1  0
 19 24  4  0
 20 23  1  0
 21 22  4  0
 22 23  4  0
 25 26  4  0
 27 29  2  0
M  END
$$$$

 Created by Python create_sdf_string function

 30 33  0  0  0  0  0  0  0  0999 V2000
    8.3036    9.8571   18.4133 C   0  0  0  0  0  0  0  0  0  0  0  0
    8.3694    7.6612   22.6703 C   0  0  0  0  0  0  0  0  0  0  0  0
    8.4143    6.6863   16.2273 C   0  0  0  0  0  0  0  0  0  0  0  0
   10.7581    6.5674   21.7636 C   0  0  0  0  0  0  0  0  0  0  0  0
    8.4452    8.7960   19.2958 O   0  0  0  0  0  0  0  0  0  0  0  0
    8.7122    6.7842   24.8569 C   0  0  0  0  0  0  0  0  0  0  0  0
   10.3400    6.1726   14.3081 C   0  0  0  0  0  0  0  0  0  0  0  0
    7.4297    7.5873   24.8962 C   0  0  0  0  0  0  0  0  0  0  0  0
    8.1566   10.0536   16.0516 O   0  0  0  0  0  0  0  0  0  0  0  0
   12.4989    6.2074   20.1776 C   0  0  0  0  0  0  0  0  0  0  0  0
    6.9192    9.1053   20.9073 O   0  0  0  0  0  0  0  0  0  0  0  0
   14.3979    6.0729   18.7784 C   0  0  0  0  0  0  0  0  0  0  0  0
    8.6811    9.5354   16.9998 C   0  0  0  0  0  0  0  0  0  0  0  0
    9.2512    4.2713   13.7653 O   0  0  0  0  0  0  0  0  0  0  0  0
    9.6495    8.6317   16.8332 N   0  0  0  0  0  0  0  0  0  0  0  0
    6.2934    8.6988   23.1988 O   0  0  0  0  0  0  0  0  0  0  0  0
    7.9806    8.6543   20.5437 C   0  0  0  0  0  0  0  0  0  0  0  0
   13.7270    5.7144   19.8610 O   0  0  0  0  0  0  0  0  0  0  0  0
    8.3351    5.5235   15.4478 C   0  0  0  0  0  0  0  0  0  0  0  0
    8.7700    7.8434   21.3915 C   0  0  0  0  0  0  0  0  0  0  0  0
   11.7856    6.8851   19.2401 C   0  0  0  0  0  0  0  0  0  0  0  0
   10.5281    7.4276   19.5649 C   0  0  0  0  0  0  0  0  0  0  0  0
   10.0256    7.2907   20.8484 C   0  0  0  0  0  0  0  0  0  0  0  0
    9.3113    5.3049   14.4911 C   0  0  0  0  0  0  0  0  0  0  0  0
    9.4607    7.5646   16.0139 C   0  0  0  0  0  0  0  0  0  0  0  0
   10.4192    7.3157   15.0955 C   0  0  0  0  0  0  0  0  0  0  0  0
   10.2489    6.4227   23.0218 N   0  0  0  0  0  0  0  0  0  0  0  0
    7.2472    8.0746   23.5050 C   0  0  0  0  0  0  0  0  0  0  0  0
    9.2051    6.9101   23.4604 C   0  0  0  0  0  0  0  0  0  0  0  0
   11.9646    6.0299   21.4251 C   0  0  0  0  0  0  0  0  0  0  0  0
  1  5  1  0
  1 13  1  0
  2 20  2  0
  2 28  1  0
  2 29  1  0
  3 19  4  0
  3 25  4  0
  4 23  4  0
  4 27  1  0
  4 30  4  0
  5 17  1  0
  6  8  1  0
  6 29  1  0
  7 24  4  0
  7 26  4  0
  8 28  1  0
  9 13  2  0
 10 18  1  0
 10 21  4  0
 10 30  4  0
 11 17  2  0
 12 18  1  0
 13 15  1  0
 14 24  1  0
 15 25  1  0
 16 28  2  0
 17 20  1  0
 19 24  4  0
 20 23  1  0
 21 22  4  0
 22 23  4  0
 25 26  4  0
 27 29  2  0
M  END
$$$$

 Created by Python create_sdf_string function

 30 33  0  0  0  0  0  0  0  0999 V2000
    8.3036    9.8571   18.4133 C   0  0  0  0  0  0  0  0  0  0  0  0
    8.3694    7.6612   22.6703 C   0  0  0  0  0  0  0  0  0  0  0  0
    8.4143    6.6863   16.2273 C   0  0  0  0  0  0  0  0  0  0  0  0
   10.7581    6.5674   21.7636 C   0  0  0  0  0  0  0  0  0  0  0  0
    8.4452    8.7960   19.2958 O   0  0  0  0  0  0  0  0  0  0  0  0
    8.7122    6.7842   24.8569 C   0  0  0  0  0  0  0  0  0  0  0  0
   10.3400    6.1726   14.3081 C   0  0  0  0  0  0  0  0  0  0  0  0
    7.4297    7.5873   24.8962 C   0  0  0  0  0  0  0  0  0  0  0  0
    8.1566   10.0536   16.0516 O   0  0  0  0  0  0  0  0  0  0  0  0
   12.4989    6.2074   20.1776 C   0  0  0  0  0  0  0  0  0  0  0  0
    6.9192    9.1053   20.9073 O   0  0  0  0  0  0  0  0  0  0  0  0
   14.3979    6.0729   18.7784 C   0  0  0  0  0  0  0  0  0  0  0  0
    8.6811    9.5354   16.9998 C   0  0  0  0  0  0  0  0  0  0  0  0
    9.2512    4.2713   13.7653 O   0  0  0  0  0  0  0  0  0  0  0  0
    9.6495    8.6317   16.8332 N   0  0  0  0  0  0  0  0  0  0  0  0
    6.2934    8.6988   23.1988 O   0  0  0  0  0  0  0  0  0  0  0  0
    7.9806    8.6543   20.5437 C   0  0  0  0  0  0  0  0  0  0  0  0
   13.7270    5.7144   19.8610 O   0  0  0  0  0  0  0  0  0  0  0  0
    8.3351    5.5235   15.4478 C   0  0  0  0  0  0  0  0  0  0  0  0
    8.7700    7.8434   21.3915 C   0  0  0  0  0  0  0  0  0  0  0  0
   11.7856    6.8851   19.2401 C   0  0  0  0  0  0  0  0  0  0  0  0
   10.5281    7.4276   19.5649 C   0  0  0  0  0  0  0  0  0  0  0  0
   10.0256    7.2907   20.8484 C   0  0  0  0  0  0  0  0  0  0  0  0
    9.3113    5.3049   14.4911 C   0  0  0  0  0  0  0  0  0  0  0  0
    9.4607    7.5646   16.0139 C   0  0  0  0  0  0  0  0  0  0  0  0
   10.4192    7.3157   15.0955 C   0  0  0  0  0  0  0  0  0  0  0  0
   10.2489    6.4227   23.0218 N   0  0  0  0  0  0  0  0  0  0  0  0
    7.2472    8.0746   23.5050 C   0  0  0  0  0  0  0  0  0  0  0  0
    9.2051    6.9101   23.4604 C   0  0  0  0  0  0  0  0  0  0  0  0
   11.9646    6.0299   21.4251 C   0  0  0  0  0  0  0  0  0  0  0  0
  1  5  1  0
  1 13  1  0
  2 20  2  0
  2 28  1  0
  2 29  1  0
  3 19  4  0
  3 25  4  0
  4 23  4  0
  4 27  1  0
  4 30  4  0
  5 17  1  0
  6  8  1  0
  6 29  1  0
  7 24  4  0
  7 26  4  0
  8 28  1  0
  9 13  2  0
 10 18  1  0
 10 21  4  0
 10 30  4  0
 11 17  2  0
 12 18  1  0
 13 15  1  0
 14 24  1  0
 15 25  1  0
 16 28  2  0
 17 20  1  0
 19 24  4  0
 20 23  1  0
 21 22  4  0
 22 23  4  0
 25 26  4  0
 27 29  2  0
M  END
$$$$

 Created by Python create_sdf_string function

 30 33  0  0  0  0  0  0  0  0999 V2000
    8.3036    9.8571   18.4133 C   0  0  0  0  0  0  0  0  0  0  0  0
    8.3694    7.6612   22.6703 C   0  0  0  0  0  0  0  0  0  0  0  0
    8.4143    6.6863   16.2273 C   0  0  0  0  0  0  0  0  0  0  0  0
   10.7581    6.5674   21.7636 C   0  0  0  0  0  0  0  0  0  0  0  0
    8.4452    8.7960   19.2958 O   0  0  0  0  0  0  0  0  0  0  0  0
    8.7122    6.7842   24.8569 C   0  0  0  0  0  0  0  0  0  0  0  0
   10.3400    6.1726   14.3081 C   0  0  0  0  0  0  0  0  0  0  0  0
    7.4297    7.5873   24.8962 C   0  0  0  0  0  0  0  0  0  0  0  0
    8.1566   10.0536   16.0516 O   0  0  0  0  0  0  0  0  0  0  0  0
   12.4989    6.2074   20.1776 C   0  0  0  0  0  0  0  0  0  0  0  0
    6.9192    9.1053   20.9073 O   0  0  0  0  0  0  0  0  0  0  0  0
   14.3979    6.0729   18.7784 C   0  0  0  0  0  0  0  0  0  0  0  0
    8.6811    9.5354   16.9998 C   0  0  0  0  0  0  0  0  0  0  0  0
    9.2512    4.2713   13.7653 O   0  0  0  0  0  0  0  0  0  0  0  0
    9.6495    8.6317   16.8332 N   0  0  0  0  0  0  0  0  0  0  0  0
    6.2934    8.6988   23.1988 O   0  0  0  0  0  0  0  0  0  0  0  0
    7.9806    8.6543   20.5437 C   0  0  0  0  0  0  0  0  0  0  0  0
   13.7270    5.7144   19.8610 O   0  0  0  0  0  0  0  0  0  0  0  0
    8.3351    5.5235   15.4478 C   0  0  0  0  0  0  0  0  0  0  0  0
    8.7700    7.8434   21.3915 C   0  0  0  0  0  0  0  0  0  0  0  0
   11.7856    6.8851   19.2401 C   0  0  0  0  0  0  0  0  0  0  0  0
   10.5281    7.4276   19.5649 C   0  0  0  0  0  0  0  0  0  0  0  0
   10.0256    7.2907   20.8484 C   0  0  0  0  0  0  0  0  0  0  0  0
    9.3113    5.3049   14.4911 C   0  0  0  0  0  0  0  0  0  0  0  0
    9.4607    7.5646   16.0139 C   0  0  0  0  0  0  0  0  0  0  0  0
   10.4192    7.3157   15.0955 C   0  0  0  0  0  0  0  0  0  0  0  0
   10.2489    6.4227   23.0218 N   0  0  0  0  0  0  0  0  0  0  0  0
    7.2472    8.0746   23.5050 C   0  0  0  0  0  0  0  0  0  0  0  0
    9.2051    6.9101   23.4604 C   0  0  0  0  0  0  0  0  0  0  0  0
   11.9646    6.0299   21.4251 C   0  0  0  0  0  0  0  0  0  0  0  0
  1  5  1  0
  1 13  1  0
  2 20  2  0
  2 28  1  0
  2 29  1  0
  3 19  4  0
  3 25  4  0
  4 23  4  0
  4 27  1  0
  4 30  4  0
  5 17  1  0
  6  8  1  0
  6 29  1  0
  7 24  4  0
  7 26  4  0
  8 28  1  0
  9 13  2  0
 10 18  1  0
 10 21  4  0
 10 30  4  0
 11 17  2  0
 12 18  1  0
 13 15  1  0
 14 24  1  0
 15 25  1  0
 16 28  2  0
 17 20  1  0
 19 24  4  0
 20 23  1  0
 21 22  4  0
 22 23  4  0
 25 26  4  0
 27 29  2  0
M  END
$$$$

 Created by Python create_sdf_string function

 30 33  0  0  0  0  0  0  0  0999 V2000
    8.3036    9.8571   18.4133 C   0  0  0  0  0  0  0  0  0  0  0  0
    8.3694    7.6612   22.6703 C   0  0  0  0  0  0  0  0  0  0  0  0
    8.4143    6.6863   16.2273 C   0  0  0  0  0  0  0  0  0  0  0  0
   10.7581    6.5674   21.7636 C   0  0  0  0  0  0  0  0  0  0  0  0
    8.4452    8.7960   19.2958 O   0  0  0  0  0  0  0  0  0  0  0  0
    8.7122    6.7842   24.8569 C   0  0  0  0  0  0  0  0  0  0  0  0
   10.3400    6.1726   14.3081 C   0  0  0  0  0  0  0  0  0  0  0  0
    7.4297    7.5873   24.8962 C   0  0  0  0  0  0  0  0  0  0  0  0
    8.1566   10.0536   16.0516 O   0  0  0  0  0  0  0  0  0  0  0  0
   12.4989    6.2074   20.1776 C   0  0  0  0  0  0  0  0  0  0  0  0
    6.9192    9.1053   20.9073 O   0  0  0  0  0  0  0  0  0  0  0  0
   14.3979    6.0729   18.7784 C   0  0  0  0  0  0  0  0  0  0  0  0
    8.6811    9.5354   16.9998 C   0  0  0  0  0  0  0  0  0  0  0  0
    9.2512    4.2713   13.7653 O   0  0  0  0  0  0  0  0  0  0  0  0
    9.6495    8.6317   16.8332 N   0  0  0  0  0  0  0  0  0  0  0  0
    6.2934    8.6988   23.1988 O   0  0  0  0  0  0  0  0  0  0  0  0
    7.9806    8.6543   20.5437 C   0  0  0  0  0  0  0  0  0  0  0  0
   13.7270    5.7144   19.8610 O   0  0  0  0  0  0  0  0  0  0  0  0
    8.3351    5.5235   15.4478 C   0  0  0  0  0  0  0  0  0  0  0  0
    8.7700    7.8434   21.3915 C   0  0  0  0  0  0  0  0  0  0  0  0
   11.7856    6.8851   19.2401 C   0  0  0  0  0  0  0  0  0  0  0  0
   10.5281    7.4276   19.5649 C   0  0  0  0  0  0  0  0  0  0  0  0
   10.0256    7.2907   20.8484 C   0  0  0  0  0  0  0  0  0  0  0  0
    9.3113    5.3049   14.4911 C   0  0  0  0  0  0  0  0  0  0  0  0
    9.4607    7.5646   16.0139 C   0  0  0  0  0  0  0  0  0  0  0  0
   10.4192    7.3157   15.0955 C   0  0  0  0  0  0  0  0  0  0  0  0
   10.2489    6.4227   23.0218 N   0  0  0  0  0  0  0  0  0  0  0  0
    7.2472    8.0746   23.5050 C   0  0  0  0  0  0  0  0  0  0  0  0
    9.2051    6.9101   23.4604 C   0  0  0  0  0  0  0  0  0  0  0  0
   11.9646    6.0299   21.4251 C   0  0  0  0  0  0  0  0  0  0  0  0
  1  5  1  0
  1 13  1  0
  2 20  2  0
  2 28  1  0
  2 29  1  0
  3 19  4  0
  3 25  4  0
  4 23  4  0
  4 27  1  0
  4 30  4  0
  5 17  1  0
  6  8  1  0
  6 29  1  0
  7 24  4  0
  7 26  4  0
  8 28  1  0
  9 13  2  0
 10 18  1  0
 10 21  4  0
 10 30  4  0
 11 17  2  0
 12 18  1  0
 13 15  1  0
 14 24  1  0
 15 25  1  0
 16 28  2  0
 17 20  1  0
 19 24  4  0
 20 23  1  0
 21 22  4  0
 22 23  4  0
 25 26  4  0
 27 29  2  0
M  END
$$$$

 Created by Python create_sdf_string function

 30 33  0  0  0  0  0  0  0  0999 V2000
    8.3036    9.8571   18.4133 C   0  0  0  0  0  0  0  0  0  0  0  0
    8.3694    7.6612   22.6703 C   0  0  0  0  0  0  0  0  0  0  0  0
    8.4143    6.6863   16.2273 C   0  0  0  0  0  0  0  0  0  0  0  0
   10.7581    6.5674   21.7636 C   0  0  0  0  0  0  0  0  0  0  0  0
    8.4452    8.7960   19.2958 O   0  0  0  0  0  0  0  0  0  0  0  0
    8.7122    6.7842   24.8569 C   0  0  0  0  0  0  0  0  0  0  0  0
   10.3400    6.1726   14.3081 C   0  0  0  0  0  0  0  0  0  0  0  0
    7.4297    7.5873   24.8962 C   0  0  0  0  0  0  0  0  0  0  0  0
    8.1566   10.0536   16.0516 O   0  0  0  0  0  0  0  0  0  0  0  0
   12.4989    6.2074   20.1776 C   0  0  0  0  0  0  0  0  0  0  0  0
    6.9192    9.1053   20.9073 O   0  0  0  0  0  0  0  0  0  0  0  0
   14.3979    6.0729   18.7784 C   0  0  0  0  0  0  0  0  0  0  0  0
    8.6811    9.5354   16.9998 C   0  0  0  0  0  0  0  0  0  0  0  0
    9.2512    4.2713   13.7653 O   0  0  0  0  0  0  0  0  0  0  0  0
    9.6495    8.6317   16.8332 N   0  0  0  0  0  0  0  0  0  0  0  0
    6.2934    8.6988   23.1988 O   0  0  0  0  0  0  0  0  0  0  0  0
    7.9806    8.6543   20.5437 C   0  0  0  0  0  0  0  0  0  0  0  0
   13.7270    5.7144   19.8610 O   0  0  0  0  0  0  0  0  0  0  0  0
    8.3351    5.5235   15.4478 C   0  0  0  0  0  0  0  0  0  0  0  0
    8.7700    7.8434   21.3915 C   0  0  0  0  0  0  0  0  0  0  0  0
   11.7856    6.8851   19.2401 C   0  0  0  0  0  0  0  0  0  0  0  0
   10.5281    7.4276   19.5649 C   0  0  0  0  0  0  0  0  0  0  0  0
   10.0256    7.2907   20.8484 C   0  0  0  0  0  0  0  0  0  0  0  0
    9.3113    5.3049   14.4911 C   0  0  0  0  0  0  0  0  0  0  0  0
    9.4607    7.5646   16.0139 C   0  0  0  0  0  0  0  0  0  0  0  0
   10.4192    7.3157   15.0955 C   0  0  0  0  0  0  0  0  0  0  0  0
   10.2489    6.4227   23.0218 N   0  0  0  0  0  0  0  0  0  0  0  0
    7.2472    8.0746   23.5050 C   0  0  0  0  0  0  0  0  0  0  0  0
    9.2051    6.9101   23.4604 C   0  0  0  0  0  0  0  0  0  0  0  0
   11.9646    6.0299   21.4251 C   0  0  0  0  0  0  0  0  0  0  0  0
  1  5  1  0
  1 13  1  0
  2 20  2  0
  2 28  1  0
  2 29  1  0
  3 19  4  0
  3 25  4  0
  4 23  4  0
  4 27  1  0
  4 30  4  0
  5 17  1  0
  6  8  1  0
  6 29  1  0
  7 24  4  0
  7 26  4  0
  8 28  1  0
  9 13  2  0
 10 18  1  0
 10 21  4  0
 10 30  4  0
 11 17  2  0
 12 18  1  0
 13 15  1  0
 14 24  1  0
 15 25  1  0
 16 28  2  0
 17 20  1  0
 19 24  4  0
 20 23  1  0
 21 22  4  0
 22 23  4  0
 25 26  4  0
 27 29  2  0
M  END
$$$$

 Created by Python create_sdf_string function

 30 33  0  0  0  0  0  0  0  0999 V2000
    8.3036    9.8571   18.4133 C   0  0  0  0  0  0  0  0  0  0  0  0
    8.3694    7.6612   22.6703 C   0  0  0  0  0  0  0  0  0  0  0  0
    8.4143    6.6863   16.2273 C   0  0  0  0  0  0  0  0  0  0  0  0
   10.7581    6.5674   21.7636 C   0  0  0  0  0  0  0  0  0  0  0  0
    8.4452    8.7960   19.2958 O   0  0  0  0  0  0  0  0  0  0  0  0
    8.7122    6.7842   24.8569 C   0  0  0  0  0  0  0  0  0  0  0  0
   10.3400    6.1726   14.3081 C   0  0  0  0  0  0  0  0  0  0  0  0
    7.4297    7.5873   24.8962 C   0  0  0  0  0  0  0  0  0  0  0  0
    8.1566   10.0536   16.0516 O   0  0  0  0  0  0  0  0  0  0  0  0
   12.4989    6.2074   20.1776 C   0  0  0  0  0  0  0  0  0  0  0  0
    6.9192    9.1053   20.9073 O   0  0  0  0  0  0  0  0  0  0  0  0
   14.3979    6.0729   18.7784 C   0  0  0  0  0  0  0  0  0  0  0  0
    8.6811    9.5354   16.9998 C   0  0  0  0  0  0  0  0  0  0  0  0
    9.2512    4.2713   13.7653 O   0  0  0  0  0  0  0  0  0  0  0  0
    9.6495    8.6317   16.8332 N   0  0  0  0  0  0  0  0  0  0  0  0
    6.2934    8.6988   23.1988 O   0  0  0  0  0  0  0  0  0  0  0  0
    7.9806    8.6543   20.5437 C   0  0  0  0  0  0  0  0  0  0  0  0
   13.7270    5.7144   19.8610 O   0  0  0  0  0  0  0  0  0  0  0  0
    8.3351    5.5235   15.4478 C   0  0  0  0  0  0  0  0  0  0  0  0
    8.7700    7.8434   21.3915 C   0  0  0  0  0  0  0  0  0  0  0  0
   11.7856    6.8851   19.2401 C   0  0  0  0  0  0  0  0  0  0  0  0
   10.5281    7.4276   19.5649 C   0  0  0  0  0  0  0  0  0  0  0  0
   10.0256    7.2907   20.8484 C   0  0  0  0  0  0  0  0  0  0  0  0
    9.3113    5.3049   14.4911 C   0  0  0  0  0  0  0  0  0  0  0  0
    9.4607    7.5646   16.0139 C   0  0  0  0  0  0  0  0  0  0  0  0
   10.4192    7.3157   15.0955 C   0  0  0  0  0  0  0  0  0  0  0  0
   10.2489    6.4227   23.0218 N   0  0  0  0  0  0  0  0  0  0  0  0
    7.2472    8.0746   23.5050 C   0  0  0  0  0  0  0  0  0  0  0  0
    9.2051    6.9101   23.4604 C   0  0  0  0  0  0  0  0  0  0  0  0
   11.9646    6.0299   21.4251 C   0  0  0  0  0  0  0  0  0  0  0  0
  1  5  1  0
  1 13  1  0
  2 20  2  0
  2 28  1  0
  2 29  1  0
  3 19  4  0
  3 25  4  0
  4 23  4  0
  4 27  1  0
  4 30  4  0
  5 17  1  0
  6  8  1  0
  6 29  1  0
  7 24  4  0
  7 26  4  0
  8 28  1  0
  9 13  2  0
 10 18  1  0
 10 21  4  0
 10 30  4  0
 11 17  2  0
 12 18  1  0
 13 15  1  0
 14 24  1  0
 15 25  1  0
 16 28  2  0
 17 20  1  0
 19 24  4  0
 20 23  1  0
 21 22  4  0
 22 23  4  0
 25 26  4  0
 27 29  2  0
M  END
$$$$

 Created by Python create_sdf_string function

 30 33  0  0  0  0  0  0  0  0999 V2000
    8.3036    9.8571   18.4133 C   0  0  0  0  0  0  0  0  0  0  0  0
    8.3694    7.6612   22.6703 C   0  0  0  0  0  0  0  0  0  0  0  0
    8.4143    6.6863   16.2273 C   0  0  0  0  0  0  0  0  0  0  0  0
   10.7581    6.5674   21.7636 C   0  0  0  0  0  0  0  0  0  0  0  0
    8.4452    8.7960   19.2958 O   0  0  0  0  0  0  0  0  0  0  0  0
    8.7122    6.7842   24.8569 C   0  0  0  0  0  0  0  0  0  0  0  0
   10.3400    6.1726   14.3081 C   0  0  0  0  0  0  0  0  0  0  0  0
    7.4297    7.5873   24.8962 C   0  0  0  0  0  0  0  0  0  0  0  0
    8.1566   10.0536   16.0516 O   0  0  0  0  0  0  0  0  0  0  0  0
   12.4989    6.2074   20.1776 C   0  0  0  0  0  0  0  0  0  0  0  0
    6.9192    9.1053   20.9073 O   0  0  0  0  0  0  0  0  0  0  0  0
   14.3979    6.0729   18.7784 C   0  0  0  0  0  0  0  0  0  0  0  0
    8.6811    9.5354   16.9998 C   0  0  0  0  0  0  0  0  0  0  0  0
    9.2512    4.2713   13.7653 O   0  0  0  0  0  0  0  0  0  0  0  0
    9.6495    8.6317   16.8332 N   0  0  0  0  0  0  0  0  0  0  0  0
    6.2934    8.6988   23.1988 O   0  0  0  0  0  0  0  0  0  0  0  0
    7.9806    8.6543   20.5437 C   0  0  0  0  0  0  0  0  0  0  0  0
   13.7270    5.7144   19.8610 O   0  0  0  0  0  0  0  0  0  0  0  0
    8.3351    5.5235   15.4478 C   0  0  0  0  0  0  0  0  0  0  0  0
    8.7700    7.8434   21.3915 C   0  0  0  0  0  0  0  0  0  0  0  0
   11.7856    6.8851   19.2401 C   0  0  0  0  0  0  0  0  0  0  0  0
   10.5281    7.4276   19.5649 C   0  0  0  0  0  0  0  0  0  0  0  0
   10.0256    7.2907   20.8484 C   0  0  0  0  0  0  0  0  0  0  0  0
    9.3113    5.3049   14.4911 C   0  0  0  0  0  0  0  0  0  0  0  0
    9.4607    7.5646   16.0139 C   0  0  0  0  0  0  0  0  0  0  0  0
   10.4192    7.3157   15.0955 C   0  0  0  0  0  0  0  0  0  0  0  0
   10.2489    6.4227   23.0218 N   0  0  0  0  0  0  0  0  0  0  0  0
    7.2472    8.0746   23.5050 C   0  0  0  0  0  0  0  0  0  0  0  0
    9.2051    6.9101   23.4604 C   0  0  0  0  0  0  0  0  0  0  0  0
   11.9646    6.0299   21.4251 C   0  0  0  0  0  0  0  0  0  0  0  0
  1  5  1  0
  1 13  1  0
  2 20  2  0
  2 28  1  0
  2 29  1  0
  3 19  4  0
  3 25  4  0
  4 23  4  0
  4 27  1  0
  4 30  4  0
  5 17  1  0
  6  8  1  0
  6 29  1  0
  7 24  4  0
  7 26  4  0
  8 28  1  0
  9 13  2  0
 10 18  1  0
 10 21  4  0
 10 30  4  0
 11 17  2  0
 12 18  1  0
 13 15  1  0
 14 24  1  0
 15 25  1  0
 16 28  2  0
 17 20  1  0
 19 24  4  0
 20 23  1  0
 21 22  4  0
 22 23  4  0
 25 26  4  0
 27 29  2  0
M  END
$$$$

 Created by Python create_sdf_string function

 30 33  0  0  0  0  0  0  0  0999 V2000
    8.3036    9.8571   18.4133 C   0  0  0  0  0  0  0  0  0  0  0  0
    8.3694    7.6612   22.6703 C   0  0  0  0  0  0  0  0  0  0  0  0
    8.4143    6.6863   16.2273 C   0  0  0  0  0  0  0  0  0  0  0  0
   10.7581    6.5674   21.7636 C   0  0  0  0  0  0  0  0  0  0  0  0
    8.4452    8.7960   19.2958 O   0  0  0  0  0  0  0  0  0  0  0  0
    8.7122    6.7842   24.8569 C   0  0  0  0  0  0  0  0  0  0  0  0
   10.3400    6.1726   14.3081 C   0  0  0  0  0  0  0  0  0  0  0  0
    7.4297    7.5873   24.8962 C   0  0  0  0  0  0  0  0  0  0  0  0
    8.1566   10.0536   16.0516 O   0  0  0  0  0  0  0  0  0  0  0  0
   12.4989    6.2074   20.1776 C   0  0  0  0  0  0  0  0  0  0  0  0
    6.9192    9.1053   20.9073 O   0  0  0  0  0  0  0  0  0  0  0  0
   14.3979    6.0729   18.7784 C   0  0  0  0  0  0  0  0  0  0  0  0
    8.6811    9.5354   16.9998 C   0  0  0  0  0  0  0  0  0  0  0  0
    9.2512    4.2713   13.7653 O   0  0  0  0  0  0  0  0  0  0  0  0
    9.6495    8.6317   16.8332 N   0  0  0  0  0  0  0  0  0  0  0  0
    6.2934    8.6988   23.1988 O   0  0  0  0  0  0  0  0  0  0  0  0
    7.9806    8.6543   20.5437 C   0  0  0  0  0  0  0  0  0  0  0  0
   13.7270    5.7144   19.8610 O   0  0  0  0  0  0  0  0  0  0  0  0
    8.3351    5.5235   15.4478 C   0  0  0  0  0  0  0  0  0  0  0  0
    8.7700    7.8434   21.3915 C   0  0  0  0  0  0  0  0  0  0  0  0
   11.7856    6.8851   19.2401 C   0  0  0  0  0  0  0  0  0  0  0  0
   10.5281    7.4276   19.5649 C   0  0  0  0  0  0  0  0  0  0  0  0
   10.0256    7.2907   20.8484 C   0  0  0  0  0  0  0  0  0  0  0  0
    9.3113    5.3049   14.4911 C   0  0  0  0  0  0  0  0  0  0  0  0
    9.4607    7.5646   16.0139 C   0  0  0  0  0  0  0  0  0  0  0  0
   10.4192    7.3157   15.0955 C   0  0  0  0  0  0  0  0  0  0  0  0
   10.2489    6.4227   23.0218 N   0  0  0  0  0  0  0  0  0  0  0  0
    7.2472    8.0746   23.5050 C   0  0  0  0  0  0  0  0  0  0  0  0
    9.2051    6.9101   23.4604 C   0  0  0  0  0  0  0  0  0  0  0  0
   11.9646    6.0299   21.4251 C   0  0  0  0  0  0  0  0  0  0  0  0
  1  5  1  0
  1 13  1  0
  2 20  2  0
  2 28  1  0
  2 29  1  0
  3 19  4  0
  3 25  4  0
  4 23  4  0
  4 27  1  0
  4 30  4  0
  5 17  1  0
  6  8  1  0
  6 29  1  0
  7 24  4  0
  7 26  4  0
  8 28  1  0
  9 13  2  0
 10 18  1  0
 10 21  4  0
 10 30  4  0
 11 17  2  0
 12 18  1  0
 13 15  1  0
 14 24  1  0
 15 25  1  0
 16 28  2  0
 17 20  1  0
 19 24  4  0
 20 23  1  0
 21 22  4  0
 22 23  4  0
 25 26  4  0
 27 29  2  0
M  END
$$$$

 Created by Python create_sdf_string function

 30 33  0  0  0  0  0  0  0  0999 V2000
    8.3036    9.8571   18.4133 C   0  0  0  0  0  0  0  0  0  0  0  0
    8.3694    7.6612   22.6703 C   0  0  0  0  0  0  0  0  0  0  0  0
    8.4143    6.6863   16.2273 C   0  0  0  0  0  0  0  0  0  0  0  0
   10.7581    6.5674   21.7636 C   0  0  0  0  0  0  0  0  0  0  0  0
    8.4452    8.7960   19.2958 O   0  0  0  0  0  0  0  0  0  0  0  0
    8.7122    6.7842   24.8569 C   0  0  0  0  0  0  0  0  0  0  0  0
   10.3400    6.1726   14.3081 C   0  0  0  0  0  0  0  0  0  0  0  0
    7.4297    7.5873   24.8962 C   0  0  0  0  0  0  0  0  0  0  0  0
    8.1566   10.0536   16.0516 O   0  0  0  0  0  0  0  0  0  0  0  0
   12.4989    6.2074   20.1776 C   0  0  0  0  0  0  0  0  0  0  0  0
    6.9192    9.1053   20.9073 O   0  0  0  0  0  0  0  0  0  0  0  0
   14.3979    6.0729   18.7784 C   0  0  0  0  0  0  0  0  0  0  0  0
    8.6811    9.5354   16.9998 C   0  0  0  0  0  0  0  0  0  0  0  0
    9.2512    4.2713   13.7653 O   0  0  0  0  0  0  0  0  0  0  0  0
    9.6495    8.6317   16.8332 N   0  0  0  0  0  0  0  0  0  0  0  0
    6.2934    8.6988   23.1988 O   0  0  0  0  0  0  0  0  0  0  0  0
    7.9806    8.6543   20.5437 C   0  0  0  0  0  0  0  0  0  0  0  0
   13.7270    5.7144   19.8610 O   0  0  0  0  0  0  0  0  0  0  0  0
    8.3351    5.5235   15.4478 C   0  0  0  0  0  0  0  0  0  0  0  0
    8.7700    7.8434   21.3915 C   0  0  0  0  0  0  0  0  0  0  0  0
   11.7856    6.8851   19.2401 C   0  0  0  0  0  0  0  0  0  0  0  0
   10.5281    7.4276   19.5649 C   0  0  0  0  0  0  0  0  0  0  0  0
   10.0256    7.2907   20.8484 C   0  0  0  0  0  0  0  0  0  0  0  0
    9.3113    5.3049   14.4911 C   0  0  0  0  0  0  0  0  0  0  0  0
    9.4607    7.5646   16.0139 C   0  0  0  0  0  0  0  0  0  0  0  0
   10.4192    7.3157   15.0955 C   0  0  0  0  0  0  0  0  0  0  0  0
   10.2489    6.4227   23.0218 N   0  0  0  0  0  0  0  0  0  0  0  0
    7.2472    8.0746   23.5050 C   0  0  0  0  0  0  0  0  0  0  0  0
    9.2051    6.9101   23.4604 C   0  0  0  0  0  0  0  0  0  0  0  0
   11.9646    6.0299   21.4251 C   0  0  0  0  0  0  0  0  0  0  0  0
  1  5  1  0
  1 13  1  0
  2 20  2  0
  2 28  1  0
  2 29  1  0
  3 19  4  0
  3 25  4  0
  4 23  4  0
  4 27  1  0
  4 30  4  0
  5 17  1  0
  6  8  1  0
  6 29  1  0
  7 24  4  0
  7 26  4  0
  8 28  1  0
  9 13  2  0
 10 18  1  0
 10 21  4  0
 10 30  4  0
 11 17  2  0
 12 18  1  0
 13 15  1  0
 14 24  1  0
 15 25  1  0
 16 28  2  0
 17 20  1  0
 19 24  4  0
 20 23  1  0
 21 22  4  0
 22 23  4  0
 25 26  4  0
 27 29  2  0
M  END
$$$$

 Created by Python create_sdf_string function

 30 33  0  0  0  0  0  0  0  0999 V2000
    8.3036    9.8571   18.4133 C   0  0  0  0  0  0  0  0  0  0  0  0
    8.3694    7.6612   22.6703 C   0  0  0  0  0  0  0  0  0  0  0  0
    8.4143    6.6863   16.2273 C   0  0  0  0  0  0  0  0  0  0  0  0
   10.7581    6.5674   21.7636 C   0  0  0  0  0  0  0  0  0  0  0  0
    8.4452    8.7960   19.2958 O   0  0  0  0  0  0  0  0  0  0  0  0
    8.7122    6.7842   24.8569 C   0  0  0  0  0  0  0  0  0  0  0  0
   10.3400    6.1726   14.3081 C   0  0  0  0  0  0  0  0  0  0  0  0
    7.4297    7.5873   24.8962 C   0  0  0  0  0  0  0  0  0  0  0  0
    8.1566   10.0536   16.0516 O   0  0  0  0  0  0  0  0  0  0  0  0
   12.4989    6.2074   20.1776 C   0  0  0  0  0  0  0  0  0  0  0  0
    6.9192    9.1053   20.9073 O   0  0  0  0  0  0  0  0  0  0  0  0
   14.3979    6.0729   18.7784 C   0  0  0  0  0  0  0  0  0  0  0  0
    8.6811    9.5354   16.9998 C   0  0  0  0  0  0  0  0  0  0  0  0
    9.2512    4.2713   13.7653 O   0  0  0  0  0  0  0  0  0  0  0  0
    9.6495    8.6317   16.8332 N   0  0  0  0  0  0  0  0  0  0  0  0
    6.2934    8.6988   23.1988 O   0  0  0  0  0  0  0  0  0  0  0  0
    7.9806    8.6543   20.5437 C   0  0  0  0  0  0  0  0  0  0  0  0
   13.7270    5.7144   19.8610 O   0  0  0  0  0  0  0  0  0  0  0  0
    8.3351    5.5235   15.4478 C   0  0  0  0  0  0  0  0  0  0  0  0
    8.7700    7.8434   21.3915 C   0  0  0  0  0  0  0  0  0  0  0  0
   11.7856    6.8851   19.2401 C   0  0  0  0  0  0  0  0  0  0  0  0
   10.5281    7.4276   19.5649 C   0  0  0  0  0  0  0  0  0  0  0  0
   10.0256    7.2907   20.8484 C   0  0  0  0  0  0  0  0  0  0  0  0
    9.3113    5.3049   14.4911 C   0  0  0  0  0  0  0  0  0  0  0  0
    9.4607    7.5646   16.0139 C   0  0  0  0  0  0  0  0  0  0  0  0
   10.4192    7.3157   15.0955 C   0  0  0  0  0  0  0  0  0  0  0  0
   10.2489    6.4227   23.0218 N   0  0  0  0  0  0  0  0  0  0  0  0
    7.2472    8.0746   23.5050 C   0  0  0  0  0  0  0  0  0  0  0  0
    9.2051    6.9101   23.4604 C   0  0  0  0  0  0  0  0  0  0  0  0
   11.9646    6.0299   21.4251 C   0  0  0  0  0  0  0  0  0  0  0  0
  1  5  1  0
  1 13  1  0
  2 20  2  0
  2 28  1  0
  2 29  1  0
  3 19  4  0
  3 25  4  0
  4 23  4  0
  4 27  1  0
  4 30  4  0
  5 17  1  0
  6  8  1  0
  6 29  1  0
  7 24  4  0
  7 26  4  0
  8 28  1  0
  9 13  2  0
 10 18  1  0
 10 21  4  0
 10 30  4  0
 11 17  2  0
 12 18  1  0
 13 15  1  0
 14 24  1  0
 15 25  1  0
 16 28  2  0
 17 20  1  0
 19 24  4  0
 20 23  1  0
 21 22  4  0
 22 23  4  0
 25 26  4  0
 27 29  2  0
M  END
$$$$

 Created by Python create_sdf_string function

 30 33  0  0  0  0  0  0  0  0999 V2000
    8.3036    9.8571   18.4133 C   0  0  0  0  0  0  0  0  0  0  0  0
    8.3694    7.6612   22.6703 C   0  0  0  0  0  0  0  0  0  0  0  0
    8.4143    6.6863   16.2273 C   0  0  0  0  0  0  0  0  0  0  0  0
   10.7581    6.5674   21.7636 C   0  0  0  0  0  0  0  0  0  0  0  0
    8.4452    8.7960   19.2958 O   0  0  0  0  0  0  0  0  0  0  0  0
    8.7122    6.7842   24.8569 C   0  0  0  0  0  0  0  0  0  0  0  0
   10.3400    6.1726   14.3081 C   0  0  0  0  0  0  0  0  0  0  0  0
    7.4297    7.5873   24.8962 C   0  0  0  0  0  0  0  0  0  0  0  0
    8.1566   10.0536   16.0516 O   0  0  0  0  0  0  0  0  0  0  0  0
   12.4989    6.2074   20.1776 C   0  0  0  0  0  0  0  0  0  0  0  0
    6.9192    9.1053   20.9073 O   0  0  0  0  0  0  0  0  0  0  0  0
   14.3979    6.0729   18.7784 C   0  0  0  0  0  0  0  0  0  0  0  0
    8.6811    9.5354   16.9998 C   0  0  0  0  0  0  0  0  0  0  0  0
    9.2512    4.2713   13.7653 O   0  0  0  0  0  0  0  0  0  0  0  0
    9.6495    8.6317   16.8332 N   0  0  0  0  0  0  0  0  0  0  0  0
    6.2934    8.6988   23.1988 O   0  0  0  0  0  0  0  0  0  0  0  0
    7.9806    8.6543   20.5437 C   0  0  0  0  0  0  0  0  0  0  0  0
   13.7270    5.7144   19.8610 O   0  0  0  0  0  0  0  0  0  0  0  0
    8.3351    5.5235   15.4478 C   0  0  0  0  0  0  0  0  0  0  0  0
    8.7700    7.8434   21.3915 C   0  0  0  0  0  0  0  0  0  0  0  0
   11.7856    6.8851   19.2401 C   0  0  0  0  0  0  0  0  0  0  0  0
   10.5281    7.4276   19.5649 C   0  0  0  0  0  0  0  0  0  0  0  0
   10.0256    7.2907   20.8484 C   0  0  0  0  0  0  0  0  0  0  0  0
    9.3113    5.3049   14.4911 C   0  0  0  0  0  0  0  0  0  0  0  0
    9.4607    7.5646   16.0139 C   0  0  0  0  0  0  0  0  0  0  0  0
   10.4192    7.3157   15.0955 C   0  0  0  0  0  0  0  0  0  0  0  0
   10.2489    6.4227   23.0218 N   0  0  0  0  0  0  0  0  0  0  0  0
    7.2472    8.0746   23.5050 C   0  0  0  0  0  0  0  0  0  0  0  0
    9.2051    6.9101   23.4604 C   0  0  0  0  0  0  0  0  0  0  0  0
   11.9646    6.0299   21.4251 C   0  0  0  0  0  0  0  0  0  0  0  0
  1  5  1  0
  1 13  1  0
  2 20  2  0
  2 28  1  0
  2 29  1  0
  3 19  4  0
  3 25  4  0
  4 23  4  0
  4 27  1  0
  4 30  4  0
  5 17  1  0
  6  8  1  0
  6 29  1  0
  7 24  4  0
  7 26  4  0
  8 28  1  0
  9 13  2  0
 10 18  1  0
 10 21  4  0
 10 30  4  0
 11 17  2  0
 12 18  1  0
 13 15  1  0
 14 24  1  0
 15 25  1  0
 16 28  2  0
 17 20  1  0
 19 24  4  0
 20 23  1  0
 21 22  4  0
 22 23  4  0
 25 26  4  0
 27 29  2  0
M  END
$$$$

 Created by Python create_sdf_string function

 30 33  0  0  0  0  0  0  0  0999 V2000
    8.3036    9.8571   18.4133 C   0  0  0  0  0  0  0  0  0  0  0  0
    8.3694    7.6612   22.6703 C   0  0  0  0  0  0  0  0  0  0  0  0
    8.4143    6.6863   16.2273 C   0  0  0  0  0  0  0  0  0  0  0  0
   10.7581    6.5674   21.7636 C   0  0  0  0  0  0  0  0  0  0  0  0
    8.4452    8.7960   19.2958 O   0  0  0  0  0  0  0  0  0  0  0  0
    8.7122    6.7842   24.8569 C   0  0  0  0  0  0  0  0  0  0  0  0
   10.3400    6.1726   14.3081 C   0  0  0  0  0  0  0  0  0  0  0  0
    7.4297    7.5873   24.8962 C   0  0  0  0  0  0  0  0  0  0  0  0
    8.1566   10.0536   16.0516 O   0  0  0  0  0  0  0  0  0  0  0  0
   12.4989    6.2074   20.1776 C   0  0  0  0  0  0  0  0  0  0  0  0
    6.9192    9.1053   20.9073 O   0  0  0  0  0  0  0  0  0  0  0  0
   14.3979    6.0729   18.7784 C   0  0  0  0  0  0  0  0  0  0  0  0
    8.6811    9.5354   16.9998 C   0  0  0  0  0  0  0  0  0  0  0  0
    9.2512    4.2713   13.7653 O   0  0  0  0  0  0  0  0  0  0  0  0
    9.6495    8.6317   16.8332 N   0  0  0  0  0  0  0  0  0  0  0  0
    6.2934    8.6988   23.1988 O   0  0  0  0  0  0  0  0  0  0  0  0
    7.9806    8.6543   20.5437 C   0  0  0  0  0  0  0  0  0  0  0  0
   13.7270    5.7144   19.8610 O   0  0  0  0  0  0  0  0  0  0  0  0
    8.3351    5.5235   15.4478 C   0  0  0  0  0  0  0  0  0  0  0  0
    8.7700    7.8434   21.3915 C   0  0  0  0  0  0  0  0  0  0  0  0
   11.7856    6.8851   19.2401 C   0  0  0  0  0  0  0  0  0  0  0  0
   10.5281    7.4276   19.5649 C   0  0  0  0  0  0  0  0  0  0  0  0
   10.0256    7.2907   20.8484 C   0  0  0  0  0  0  0  0  0  0  0  0
    9.3113    5.3049   14.4911 C   0  0  0  0  0  0  0  0  0  0  0  0
    9.4607    7.5646   16.0139 C   0  0  0  0  0  0  0  0  0  0  0  0
   10.4192    7.3157   15.0955 C   0  0  0  0  0  0  0  0  0  0  0  0
   10.2489    6.4227   23.0218 N   0  0  0  0  0  0  0  0  0  0  0  0
    7.2472    8.0746   23.5050 C   0  0  0  0  0  0  0  0  0  0  0  0
    9.2051    6.9101   23.4604 C   0  0  0  0  0  0  0  0  0  0  0  0
   11.9646    6.0299   21.4251 C   0  0  0  0  0  0  0  0  0  0  0  0
  1  5  1  0
  1 13  1  0
  2 20  2  0
  2 28  1  0
  2 29  1  0
  3 19  4  0
  3 25  4  0
  4 23  4  0
  4 27  1  0
  4 30  4  0
  5 17  1  0
  6  8  1  0
  6 29  1  0
  7 24  4  0
  7 26  4  0
  8 28  1  0
  9 13  2  0
 10 18  1  0
 10 21  4  0
 10 30  4  0
 11 17  2  0
 12 18  1  0
 13 15  1  0
 14 24  1  0
 15 25  1  0
 16 28  2  0
 17 20  1  0
 19 24  4  0
 20 23  1  0
 21 22  4  0
 22 23  4  0
 25 26  4  0
 27 29  2  0
M  END
$$$$

 Created by Python create_sdf_string function

 30 33  0  0  0  0  0  0  0  0999 V2000
    8.3036    9.8571   18.4133 C   0  0  0  0  0  0  0  0  0  0  0  0
    8.3694    7.6612   22.6703 C   0  0  0  0  0  0  0  0  0  0  0  0
    8.4143    6.6863   16.2273 C   0  0  0  0  0  0  0  0  0  0  0  0
   10.7581    6.5674   21.7636 C   0  0  0  0  0  0  0  0  0  0  0  0
    8.4452    8.7960   19.2958 O   0  0  0  0  0  0  0  0  0  0  0  0
    8.7122    6.7842   24.8569 C   0  0  0  0  0  0  0  0  0  0  0  0
   10.3400    6.1726   14.3081 C   0  0  0  0  0  0  0  0  0  0  0  0
    7.4297    7.5873   24.8962 C   0  0  0  0  0  0  0  0  0  0  0  0
    8.1566   10.0536   16.0516 O   0  0  0  0  0  0  0  0  0  0  0  0
   12.4989    6.2074   20.1776 C   0  0  0  0  0  0  0  0  0  0  0  0
    6.9192    9.1053   20.9073 O   0  0  0  0  0  0  0  0  0  0  0  0
   14.3979    6.0729   18.7784 C   0  0  0  0  0  0  0  0  0  0  0  0
    8.6811    9.5354   16.9998 C   0  0  0  0  0  0  0  0  0  0  0  0
    9.2512    4.2713   13.7653 O   0  0  0  0  0  0  0  0  0  0  0  0
    9.6495    8.6317   16.8332 N   0  0  0  0  0  0  0  0  0  0  0  0
    6.2934    8.6988   23.1988 O   0  0  0  0  0  0  0  0  0  0  0  0
    7.9806    8.6543   20.5437 C   0  0  0  0  0  0  0  0  0  0  0  0
   13.7270    5.7144   19.8610 O   0  0  0  0  0  0  0  0  0  0  0  0
    8.3351    5.5235   15.4478 C   0  0  0  0  0  0  0  0  0  0  0  0
    8.7700    7.8434   21.3915 C   0  0  0  0  0  0  0  0  0  0  0  0
   11.7856    6.8851   19.2401 C   0  0  0  0  0  0  0  0  0  0  0  0
   10.5281    7.4276   19.5649 C   0  0  0  0  0  0  0  0  0  0  0  0
   10.0256    7.2907   20.8484 C   0  0  0  0  0  0  0  0  0  0  0  0
    9.3113    5.3049   14.4911 C   0  0  0  0  0  0  0  0  0  0  0  0
    9.4607    7.5646   16.0139 C   0  0  0  0  0  0  0  0  0  0  0  0
   10.4192    7.3157   15.0955 C   0  0  0  0  0  0  0  0  0  0  0  0
   10.2489    6.4227   23.0218 N   0  0  0  0  0  0  0  0  0  0  0  0
    7.2472    8.0746   23.5050 C   0  0  0  0  0  0  0  0  0  0  0  0
    9.2051    6.9101   23.4604 C   0  0  0  0  0  0  0  0  0  0  0  0
   11.9646    6.0299   21.4251 C   0  0  0  0  0  0  0  0  0  0  0  0
  1  5  1  0
  1 13  1  0
  2 20  2  0
  2 28  1  0
  2 29  1  0
  3 19  4  0
  3 25  4  0
  4 23  4  0
  4 27  1  0
  4 30  4  0
  5 17  1  0
  6  8  1  0
  6 29  1  0
  7 24  4  0
  7 26  4  0
  8 28  1  0
  9 13  2  0
 10 18  1  0
 10 21  4  0
 10 30  4  0
 11 17  2  0
 12 18  1  0
 13 15  1  0
 14 24  1  0
 15 25  1  0
 16 28  2  0
 17 20  1  0
 19 24  4  0
 20 23  1  0
 21 22  4  0
 22 23  4  0
 25 26  4  0
 27 29  2  0
M  END
$$$$

 Created by Python create_sdf_string function

 30 33  0  0  0  0  0  0  0  0999 V2000
    8.3036    9.8571   18.4133 C   0  0  0  0  0  0  0  0  0  0  0  0
    8.3694    7.6612   22.6703 C   0  0  0  0  0  0  0  0  0  0  0  0
    8.4143    6.6863   16.2273 C   0  0  0  0  0  0  0  0  0  0  0  0
   10.7581    6.5674   21.7636 C   0  0  0  0  0  0  0  0  0  0  0  0
    8.4452    8.7960   19.2958 O   0  0  0  0  0  0  0  0  0  0  0  0
    8.7122    6.7842   24.8569 C   0  0  0  0  0  0  0  0  0  0  0  0
   10.3400    6.1726   14.3081 C   0  0  0  0  0  0  0  0  0  0  0  0
    7.4297    7.5873   24.8962 C   0  0  0  0  0  0  0  0  0  0  0  0
    8.1566   10.0536   16.0516 O   0  0  0  0  0  0  0  0  0  0  0  0
   12.4989    6.2074   20.1776 C   0  0  0  0  0  0  0  0  0  0  0  0
    6.9192    9.1053   20.9073 O   0  0  0  0  0  0  0  0  0  0  0  0
   14.3979    6.0729   18.7784 C   0  0  0  0  0  0  0  0  0  0  0  0
    8.6811    9.5354   16.9998 C   0  0  0  0  0  0  0  0  0  0  0  0
    9.2512    4.2713   13.7653 O   0  0  0  0  0  0  0  0  0  0  0  0
    9.6495    8.6317   16.8332 N   0  0  0  0  0  0  0  0  0  0  0  0
    6.2934    8.6988   23.1988 O   0  0  0  0  0  0  0  0  0  0  0  0
    7.9806    8.6543   20.5437 C   0  0  0  0  0  0  0  0  0  0  0  0
   13.7270    5.7144   19.8610 O   0  0  0  0  0  0  0  0  0  0  0  0
    8.3351    5.5235   15.4478 C   0  0  0  0  0  0  0  0  0  0  0  0
    8.7700    7.8434   21.3915 C   0  0  0  0  0  0  0  0  0  0  0  0
   11.7856    6.8851   19.2401 C   0  0  0  0  0  0  0  0  0  0  0  0
   10.5281    7.4276   19.5649 C   0  0  0  0  0  0  0  0  0  0  0  0
   10.0256    7.2907   20.8484 C   0  0  0  0  0  0  0  0  0  0  0  0
    9.3113    5.3049   14.4911 C   0  0  0  0  0  0  0  0  0  0  0  0
    9.4607    7.5646   16.0139 C   0  0  0  0  0  0  0  0  0  0  0  0
   10.4192    7.3157   15.0955 C   0  0  0  0  0  0  0  0  0  0  0  0
   10.2489    6.4227   23.0218 N   0  0  0  0  0  0  0  0  0  0  0  0
    7.2472    8.0746   23.5050 C   0  0  0  0  0  0  0  0  0  0  0  0
    9.2051    6.9101   23.4604 C   0  0  0  0  0  0  0  0  0  0  0  0
   11.9646    6.0299   21.4251 C   0  0  0  0  0  0  0  0  0  0  0  0
  1  5  1  0
  1 13  1  0
  2 20  2  0
  2 28  1  0
  2 29  1  0
  3 19  4  0
  3 25  4  0
  4 23  4  0
  4 27  1  0
  4 30  4  0
  5 17  1  0
  6  8  1  0
  6 29  1  0
  7 24  4  0
  7 26  4  0
  8 28  1  0
  9 13  2  0
 10 18  1  0
 10 21  4  0
 10 30  4  0
 11 17  2  0
 12 18  1  0
 13 15  1  0
 14 24  1  0
 15 25  1  0
 16 28  2  0
 17 20  1  0
 19 24  4  0
 20 23  1  0
 21 22  4  0
 22 23  4  0
 25 26  4  0
 27 29  2  0
M  END
$$$$

 Created by Python create_sdf_string function

 30 33  0  0  0  0  0  0  0  0999 V2000
    8.3036    9.8571   18.4133 C   0  0  0  0  0  0  0  0  0  0  0  0
    8.3694    7.6612   22.6703 C   0  0  0  0  0  0  0  0  0  0  0  0
    8.4143    6.6863   16.2273 C   0  0  0  0  0  0  0  0  0  0  0  0
   10.7581    6.5674   21.7636 C   0  0  0  0  0  0  0  0  0  0  0  0
    8.4452    8.7960   19.2958 O   0  0  0  0  0  0  0  0  0  0  0  0
    8.7122    6.7842   24.8569 C   0  0  0  0  0  0  0  0  0  0  0  0
   10.3400    6.1726   14.3081 C   0  0  0  0  0  0  0  0  0  0  0  0
    7.4297    7.5873   24.8962 C   0  0  0  0  0  0  0  0  0  0  0  0
    8.1566   10.0536   16.0516 O   0  0  0  0  0  0  0  0  0  0  0  0
   12.4989    6.2074   20.1776 C   0  0  0  0  0  0  0  0  0  0  0  0
    6.9192    9.1053   20.9073 O   0  0  0  0  0  0  0  0  0  0  0  0
   14.3979    6.0729   18.7784 C   0  0  0  0  0  0  0  0  0  0  0  0
    8.6811    9.5354   16.9998 C   0  0  0  0  0  0  0  0  0  0  0  0
    9.2512    4.2713   13.7653 O   0  0  0  0  0  0  0  0  0  0  0  0
    9.6495    8.6317   16.8332 N   0  0  0  0  0  0  0  0  0  0  0  0
    6.2934    8.6988   23.1988 O   0  0  0  0  0  0  0  0  0  0  0  0
    7.9806    8.6543   20.5437 C   0  0  0  0  0  0  0  0  0  0  0  0
   13.7270    5.7144   19.8610 O   0  0  0  0  0  0  0  0  0  0  0  0
    8.3351    5.5235   15.4478 C   0  0  0  0  0  0  0  0  0  0  0  0
    8.7700    7.8434   21.3915 C   0  0  0  0  0  0  0  0  0  0  0  0
   11.7856    6.8851   19.2401 C   0  0  0  0  0  0  0  0  0  0  0  0
   10.5281    7.4276   19.5649 C   0  0  0  0  0  0  0  0  0  0  0  0
   10.0256    7.2907   20.8484 C   0  0  0  0  0  0  0  0  0  0  0  0
    9.3113    5.3049   14.4911 C   0  0  0  0  0  0  0  0  0  0  0  0
    9.4607    7.5646   16.0139 C   0  0  0  0  0  0  0  0  0  0  0  0
   10.4192    7.3157   15.0955 C   0  0  0  0  0  0  0  0  0  0  0  0
   10.2489    6.4227   23.0218 N   0  0  0  0  0  0  0  0  0  0  0  0
    7.2472    8.0746   23.5050 C   0  0  0  0  0  0  0  0  0  0  0  0
    9.2051    6.9101   23.4604 C   0  0  0  0  0  0  0  0  0  0  0  0
   11.9646    6.0299   21.4251 C   0  0  0  0  0  0  0  0  0  0  0  0
  1  5  1  0
  1 13  1  0
  2 20  2  0
  2 28  1  0
  2 29  1  0
  3 19  4  0
  3 25  4  0
  4 23  4  0
  4 27  1  0
  4 30  4  0
  5 17  1  0
  6  8  1  0
  6 29  1  0
  7 24  4  0
  7 26  4  0
  8 28  1  0
  9 13  2  0
 10 18  1  0
 10 21  4  0
 10 30  4  0
 11 17  2  0
 12 18  1  0
 13 15  1  0
 14 24  1  0
 15 25  1  0
 16 28  2  0
 17 20  1  0
 19 24  4  0
 20 23  1  0
 21 22  4  0
 22 23  4  0
 25 26  4  0
 27 29  2  0
M  END
$$$$

 Created by Python create_sdf_string function

 30 33  0  0  0  0  0  0  0  0999 V2000
    8.3036    9.8571   18.4133 C   0  0  0  0  0  0  0  0  0  0  0  0
    8.3694    7.6612   22.6703 C   0  0  0  0  0  0  0  0  0  0  0  0
    8.4143    6.6863   16.2273 C   0  0  0  0  0  0  0  0  0  0  0  0
   10.7581    6.5674   21.7636 C   0  0  0  0  0  0  0  0  0  0  0  0
    8.4452    8.7960   19.2958 O   0  0  0  0  0  0  0  0  0  0  0  0
    8.7122    6.7842   24.8569 C   0  0  0  0  0  0  0  0  0  0  0  0
   10.3400    6.1726   14.3081 C   0  0  0  0  0  0  0  0  0  0  0  0
    7.4297    7.5873   24.8962 C   0  0  0  0  0  0  0  0  0  0  0  0
    8.1566   10.0536   16.0516 O   0  0  0  0  0  0  0  0  0  0  0  0
   12.4989    6.2074   20.1776 C   0  0  0  0  0  0  0  0  0  0  0  0
    6.9192    9.1053   20.9073 O   0  0  0  0  0  0  0  0  0  0  0  0
   14.3979    6.0729   18.7784 C   0  0  0  0  0  0  0  0  0  0  0  0
    8.6811    9.5354   16.9998 C   0  0  0  0  0  0  0  0  0  0  0  0
    9.2512    4.2713   13.7653 O   0  0  0  0  0  0  0  0  0  0  0  0
    9.6495    8.6317   16.8332 N   0  0  0  0  0  0  0  0  0  0  0  0
    6.2934    8.6988   23.1988 O   0  0  0  0  0  0  0  0  0  0  0  0
    7.9806    8.6543   20.5437 C   0  0  0  0  0  0  0  0  0  0  0  0
   13.7270    5.7144   19.8610 O   0  0  0  0  0  0  0  0  0  0  0  0
    8.3351    5.5235   15.4478 C   0  0  0  0  0  0  0  0  0  0  0  0
    8.7700    7.8434   21.3915 C   0  0  0  0  0  0  0  0  0  0  0  0
   11.7856    6.8851   19.2401 C   0  0  0  0  0  0  0  0  0  0  0  0
   10.5281    7.4276   19.5649 C   0  0  0  0  0  0  0  0  0  0  0  0
   10.0256    7.2907   20.8484 C   0  0  0  0  0  0  0  0  0  0  0  0
    9.3113    5.3049   14.4911 C   0  0  0  0  0  0  0  0  0  0  0  0
    9.4607    7.5646   16.0139 C   0  0  0  0  0  0  0  0  0  0  0  0
   10.4192    7.3157   15.0955 C   0  0  0  0  0  0  0  0  0  0  0  0
   10.2489    6.4227   23.0218 N   0  0  0  0  0  0  0  0  0  0  0  0
    7.2472    8.0746   23.5050 C   0  0  0  0  0  0  0  0  0  0  0  0
    9.2051    6.9101   23.4604 C   0  0  0  0  0  0  0  0  0  0  0  0
   11.9646    6.0299   21.4251 C   0  0  0  0  0  0  0  0  0  0  0  0
  1  5  1  0
  1 13  1  0
  2 20  2  0
  2 28  1  0
  2 29  1  0
  3 19  4  0
  3 25  4  0
  4 23  4  0
  4 27  1  0
  4 30  4  0
  5 17  1  0
  6  8  1  0
  6 29  1  0
  7 24  4  0
  7 26  4  0
  8 28  1  0
  9 13  2  0
 10 18  1  0
 10 21  4  0
 10 30  4  0
 11 17  2  0
 12 18  1  0
 13 15  1  0
 14 24  1  0
 15 25  1  0
 16 28  2  0
 17 20  1  0
 19 24  4  0
 20 23  1  0
 21 22  4  0
 22 23  4  0
 25 26  4  0
 27 29  2  0
M  END
$$$$

 Created by Python create_sdf_string function

 30 33  0  0  0  0  0  0  0  0999 V2000
    8.3036    9.8571   18.4133 C   0  0  0  0  0  0  0  0  0  0  0  0
    8.3694    7.6612   22.6703 C   0  0  0  0  0  0  0  0  0  0  0  0
    8.4143    6.6863   16.2273 C   0  0  0  0  0  0  0  0  0  0  0  0
   10.7581    6.5674   21.7636 C   0  0  0  0  0  0  0  0  0  0  0  0
    8.4452    8.7960   19.2958 O   0  0  0  0  0  0  0  0  0  0  0  0
    8.7122    6.7842   24.8569 C   0  0  0  0  0  0  0  0  0  0  0  0
   10.3400    6.1726   14.3081 C   0  0  0  0  0  0  0  0  0  0  0  0
    7.4297    7.5873   24.8962 C   0  0  0  0  0  0  0  0  0  0  0  0
    8.1566   10.0536   16.0516 O   0  0  0  0  0  0  0  0  0  0  0  0
   12.4989    6.2074   20.1776 C   0  0  0  0  0  0  0  0  0  0  0  0
    6.9192    9.1053   20.9073 O   0  0  0  0  0  0  0  0  0  0  0  0
   14.3979    6.0729   18.7784 C   0  0  0  0  0  0  0  0  0  0  0  0
    8.6811    9.5354   16.9998 C   0  0  0  0  0  0  0  0  0  0  0  0
    9.2512    4.2713   13.7653 O   0  0  0  0  0  0  0  0  0  0  0  0
    9.6495    8.6317   16.8332 N   0  0  0  0  0  0  0  0  0  0  0  0
    6.2934    8.6988   23.1988 O   0  0  0  0  0  0  0  0  0  0  0  0
    7.9806    8.6543   20.5437 C   0  0  0  0  0  0  0  0  0  0  0  0
   13.7270    5.7144   19.8610 O   0  0  0  0  0  0  0  0  0  0  0  0
    8.3351    5.5235   15.4478 C   0  0  0  0  0  0  0  0  0  0  0  0
    8.7700    7.8434   21.3915 C   0  0  0  0  0  0  0  0  0  0  0  0
   11.7856    6.8851   19.2401 C   0  0  0  0  0  0  0  0  0  0  0  0
   10.5281    7.4276   19.5649 C   0  0  0  0  0  0  0  0  0  0  0  0
   10.0256    7.2907   20.8484 C   0  0  0  0  0  0  0  0  0  0  0  0
    9.3113    5.3049   14.4911 C   0  0  0  0  0  0  0  0  0  0  0  0
    9.4607    7.5646   16.0139 C   0  0  0  0  0  0  0  0  0  0  0  0
   10.4192    7.3157   15.0955 C   0  0  0  0  0  0  0  0  0  0  0  0
   10.2489    6.4227   23.0218 N   0  0  0  0  0  0  0  0  0  0  0  0
    7.2472    8.0746   23.5050 C   0  0  0  0  0  0  0  0  0  0  0  0
    9.2051    6.9101   23.4604 C   0  0  0  0  0  0  0  0  0  0  0  0
   11.9646    6.0299   21.4251 C   0  0  0  0  0  0  0  0  0  0  0  0
  1  5  1  0
  1 13  1  0
  2 20  2  0
  2 28  1  0
  2 29  1  0
  3 19  4  0
  3 25  4  0
  4 23  4  0
  4 27  1  0
  4 30  4  0
  5 17  1  0
  6  8  1  0
  6 29  1  0
  7 24  4  0
  7 26  4  0
  8 28  1  0
  9 13  2  0
 10 18  1  0
 10 21  4  0
 10 30  4  0
 11 17  2  0
 12 18  1  0
 13 15  1  0
 14 24  1  0
 15 25  1  0
 16 28  2  0
 17 20  1  0
 19 24  4  0
 20 23  1  0
 21 22  4  0
 22 23  4  0
 25 26  4  0
 27 29  2  0
M  END
$$$$

 Created by Python create_sdf_string function

 30 33  0  0  0  0  0  0  0  0999 V2000
    8.3036    9.8571   18.4133 C   0  0  0  0  0  0  0  0  0  0  0  0
    8.3694    7.6612   22.6703 C   0  0  0  0  0  0  0  0  0  0  0  0
    8.4143    6.6863   16.2273 C   0  0  0  0  0  0  0  0  0  0  0  0
   10.7581    6.5674   21.7636 C   0  0  0  0  0  0  0  0  0  0  0  0
    8.4452    8.7960   19.2958 O   0  0  0  0  0  0  0  0  0  0  0  0
    8.7122    6.7842   24.8569 C   0  0  0  0  0  0  0  0  0  0  0  0
   10.3400    6.1726   14.3081 C   0  0  0  0  0  0  0  0  0  0  0  0
    7.4297    7.5873   24.8962 C   0  0  0  0  0  0  0  0  0  0  0  0
    8.1566   10.0536   16.0516 O   0  0  0  0  0  0  0  0  0  0  0  0
   12.4989    6.2074   20.1776 C   0  0  0  0  0  0  0  0  0  0  0  0
    6.9192    9.1053   20.9073 O   0  0  0  0  0  0  0  0  0  0  0  0
   14.3979    6.0729   18.7784 C   0  0  0  0  0  0  0  0  0  0  0  0
    8.6811    9.5354   16.9998 C   0  0  0  0  0  0  0  0  0  0  0  0
    9.2512    4.2713   13.7653 O   0  0  0  0  0  0  0  0  0  0  0  0
    9.6495    8.6317   16.8332 N   0  0  0  0  0  0  0  0  0  0  0  0
    6.2934    8.6988   23.1988 O   0  0  0  0  0  0  0  0  0  0  0  0
    7.9806    8.6543   20.5437 C   0  0  0  0  0  0  0  0  0  0  0  0
   13.7270    5.7144   19.8610 O   0  0  0  0  0  0  0  0  0  0  0  0
    8.3351    5.5235   15.4478 C   0  0  0  0  0  0  0  0  0  0  0  0
    8.7700    7.8434   21.3915 C   0  0  0  0  0  0  0  0  0  0  0  0
   11.7856    6.8851   19.2401 C   0  0  0  0  0  0  0  0  0  0  0  0
   10.5281    7.4276   19.5649 C   0  0  0  0  0  0  0  0  0  0  0  0
   10.0256    7.2907   20.8484 C   0  0  0  0  0  0  0  0  0  0  0  0
    9.3113    5.3049   14.4911 C   0  0  0  0  0  0  0  0  0  0  0  0
    9.4607    7.5646   16.0139 C   0  0  0  0  0  0  0  0  0  0  0  0
   10.4192    7.3157   15.0955 C   0  0  0  0  0  0  0  0  0  0  0  0
   10.2489    6.4227   23.0218 N   0  0  0  0  0  0  0  0  0  0  0  0
    7.2472    8.0746   23.5050 C   0  0  0  0  0  0  0  0  0  0  0  0
    9.2051    6.9101   23.4604 C   0  0  0  0  0  0  0  0  0  0  0  0
   11.9646    6.0299   21.4251 C   0  0  0  0  0  0  0  0  0  0  0  0
  1  5  1  0
  1 13  1  0
  2 20  2  0
  2 28  1  0
  2 29  1  0
  3 19  4  0
  3 25  4  0
  4 23  4  0
  4 27  1  0
  4 30  4  0
  5 17  1  0
  6  8  1  0
  6 29  1  0
  7 24  4  0
  7 26  4  0
  8 28  1  0
  9 13  2  0
 10 18  1  0
 10 21  4  0
 10 30  4  0
 11 17  2  0
 12 18  1  0
 13 15  1  0
 14 24  1  0
 15 25  1  0
 16 28  2  0
 17 20  1  0
 19 24  4  0
 20 23  1  0
 21 22  4  0
 22 23  4  0
 25 26  4  0
 27 29  2  0
M  END
$$$$

 Created by Python create_sdf_string function

 30 33  0  0  0  0  0  0  0  0999 V2000
    8.3036    9.8571   18.4133 C   0  0  0  0  0  0  0  0  0  0  0  0
    8.3694    7.6612   22.6703 C   0  0  0  0  0  0  0  0  0  0  0  0
    8.4143    6.6863   16.2273 C   0  0  0  0  0  0  0  0  0  0  0  0
   10.7581    6.5674   21.7636 C   0  0  0  0  0  0  0  0  0  0  0  0
    8.4452    8.7960   19.2958 O   0  0  0  0  0  0  0  0  0  0  0  0
    8.7122    6.7842   24.8569 C   0  0  0  0  0  0  0  0  0  0  0  0
   10.3400    6.1726   14.3081 C   0  0  0  0  0  0  0  0  0  0  0  0
    7.4297    7.5873   24.8962 C   0  0  0  0  0  0  0  0  0  0  0  0
    8.1566   10.0536   16.0516 O   0  0  0  0  0  0  0  0  0  0  0  0
   12.4989    6.2074   20.1776 C   0  0  0  0  0  0  0  0  0  0  0  0
    6.9192    9.1053   20.9073 O   0  0  0  0  0  0  0  0  0  0  0  0
   14.3979    6.0729   18.7784 C   0  0  0  0  0  0  0  0  0  0  0  0
    8.6811    9.5354   16.9998 C   0  0  0  0  0  0  0  0  0  0  0  0
    9.2512    4.2713   13.7653 O   0  0  0  0  0  0  0  0  0  0  0  0
    9.6495    8.6317   16.8332 N   0  0  0  0  0  0  0  0  0  0  0  0
    6.2934    8.6988   23.1988 O   0  0  0  0  0  0  0  0  0  0  0  0
    7.9806    8.6543   20.5437 C   0  0  0  0  0  0  0  0  0  0  0  0
   13.7270    5.7144   19.8610 O   0  0  0  0  0  0  0  0  0  0  0  0
    8.3351    5.5235   15.4478 C   0  0  0  0  0  0  0  0  0  0  0  0
    8.7700    7.8434   21.3915 C   0  0  0  0  0  0  0  0  0  0  0  0
   11.7856    6.8851   19.2401 C   0  0  0  0  0  0  0  0  0  0  0  0
   10.5281    7.4276   19.5649 C   0  0  0  0  0  0  0  0  0  0  0  0
   10.0256    7.2907   20.8484 C   0  0  0  0  0  0  0  0  0  0  0  0
    9.3113    5.3049   14.4911 C   0  0  0  0  0  0  0  0  0  0  0  0
    9.4607    7.5646   16.0139 C   0  0  0  0  0  0  0  0  0  0  0  0
   10.4192    7.3157   15.0955 C   0  0  0  0  0  0  0  0  0  0  0  0
   10.2489    6.4227   23.0218 N   0  0  0  0  0  0  0  0  0  0  0  0
    7.2472    8.0746   23.5050 C   0  0  0  0  0  0  0  0  0  0  0  0
    9.2051    6.9101   23.4604 C   0  0  0  0  0  0  0  0  0  0  0  0
   11.9646    6.0299   21.4251 C   0  0  0  0  0  0  0  0  0  0  0  0
  1  5  1  0
  1 13  1  0
  2 20  2  0
  2 28  1  0
  2 29  1  0
  3 19  4  0
  3 25  4  0
  4 23  4  0
  4 27  1  0
  4 30  4  0
  5 17  1  0
  6  8  1  0
  6 29  1  0
  7 24  4  0
  7 26  4  0
  8 28  1  0
  9 13  2  0
 10 18  1  0
 10 21  4  0
 10 30  4  0
 11 17  2  0
 12 18  1  0
 13 15  1  0
 14 24  1  0
 15 25  1  0
 16 28  2  0
 17 20  1  0
 19 24  4  0
 20 23  1  0
 21 22  4  0
 22 23  4  0
 25 26  4  0
 27 29  2  0
M  END
$$$$

 Created by Python create_sdf_string function

 30 33  0  0  0  0  0  0  0  0999 V2000
    8.3036    9.8571   18.4133 C   0  0  0  0  0  0  0  0  0  0  0  0
    8.3694    7.6612   22.6703 C   0  0  0  0  0  0  0  0  0  0  0  0
    8.4143    6.6863   16.2273 C   0  0  0  0  0  0  0  0  0  0  0  0
   10.7581    6.5674   21.7636 C   0  0  0  0  0  0  0  0  0  0  0  0
    8.4452    8.7960   19.2958 O   0  0  0  0  0  0  0  0  0  0  0  0
    8.7122    6.7842   24.8569 C   0  0  0  0  0  0  0  0  0  0  0  0
   10.3400    6.1726   14.3081 C   0  0  0  0  0  0  0  0  0  0  0  0
    7.4297    7.5873   24.8962 C   0  0  0  0  0  0  0  0  0  0  0  0
    8.1566   10.0536   16.0516 O   0  0  0  0  0  0  0  0  0  0  0  0
   12.4989    6.2074   20.1776 C   0  0  0  0  0  0  0  0  0  0  0  0
    6.9192    9.1053   20.9073 O   0  0  0  0  0  0  0  0  0  0  0  0
   14.3979    6.0729   18.7784 C   0  0  0  0  0  0  0  0  0  0  0  0
    8.6811    9.5354   16.9998 C   0  0  0  0  0  0  0  0  0  0  0  0
    9.2512    4.2713   13.7653 O   0  0  0  0  0  0  0  0  0  0  0  0
    9.6495    8.6317   16.8332 N   0  0  0  0  0  0  0  0  0  0  0  0
    6.2934    8.6988   23.1988 O   0  0  0  0  0  0  0  0  0  0  0  0
    7.9806    8.6543   20.5437 C   0  0  0  0  0  0  0  0  0  0  0  0
   13.7270    5.7144   19.8610 O   0  0  0  0  0  0  0  0  0  0  0  0
    8.3351    5.5235   15.4478 C   0  0  0  0  0  0  0  0  0  0  0  0
    8.7700    7.8434   21.3915 C   0  0  0  0  0  0  0  0  0  0  0  0
   11.7856    6.8851   19.2401 C   0  0  0  0  0  0  0  0  0  0  0  0
   10.5281    7.4276   19.5649 C   0  0  0  0  0  0  0  0  0  0  0  0
   10.0256    7.2907   20.8484 C   0  0  0  0  0  0  0  0  0  0  0  0
    9.3113    5.3049   14.4911 C   0  0  0  0  0  0  0  0  0  0  0  0
    9.4607    7.5646   16.0139 C   0  0  0  0  0  0  0  0  0  0  0  0
   10.4192    7.3157   15.0955 C   0  0  0  0  0  0  0  0  0  0  0  0
   10.2489    6.4227   23.0218 N   0  0  0  0  0  0  0  0  0  0  0  0
    7.2472    8.0746   23.5050 C   0  0  0  0  0  0  0  0  0  0  0  0
    9.2051    6.9101   23.4604 C   0  0  0  0  0  0  0  0  0  0  0  0
   11.9646    6.0299   21.4251 C   0  0  0  0  0  0  0  0  0  0  0  0
  1  5  1  0
  1 13  1  0
  2 20  2  0
  2 28  1  0
  2 29  1  0
  3 19  4  0
  3 25  4  0
  4 23  4  0
  4 27  1  0
  4 30  4  0
  5 17  1  0
  6  8  1  0
  6 29  1  0
  7 24  4  0
  7 26  4  0
  8 28  1  0
  9 13  2  0
 10 18  1  0
 10 21  4  0
 10 30  4  0
 11 17  2  0
 12 18  1  0
 13 15  1  0
 14 24  1  0
 15 25  1  0
 16 28  2  0
 17 20  1  0
 19 24  4  0
 20 23  1  0
 21 22  4  0
 22 23  4  0
 25 26  4  0
 27 29  2  0
M  END
$$$$

 Created by Python create_sdf_string function

 30 33  0  0  0  0  0  0  0  0999 V2000
    8.3036    9.8571   18.4133 C   0  0  0  0  0  0  0  0  0  0  0  0
    8.3694    7.6612   22.6703 C   0  0  0  0  0  0  0  0  0  0  0  0
    8.4143    6.6863   16.2273 C   0  0  0  0  0  0  0  0  0  0  0  0
   10.7581    6.5674   21.7636 C   0  0  0  0  0  0  0  0  0  0  0  0
    8.4452    8.7960   19.2958 O   0  0  0  0  0  0  0  0  0  0  0  0
    8.7122    6.7842   24.8569 C   0  0  0  0  0  0  0  0  0  0  0  0
   10.3400    6.1726   14.3081 C   0  0  0  0  0  0  0  0  0  0  0  0
    7.4297    7.5873   24.8962 C   0  0  0  0  0  0  0  0  0  0  0  0
    8.1566   10.0536   16.0516 O   0  0  0  0  0  0  0  0  0  0  0  0
   12.4989    6.2074   20.1776 C   0  0  0  0  0  0  0  0  0  0  0  0
    6.9192    9.1053   20.9073 O   0  0  0  0  0  0  0  0  0  0  0  0
   14.3979    6.0729   18.7784 C   0  0  0  0  0  0  0  0  0  0  0  0
    8.6811    9.5354   16.9998 C   0  0  0  0  0  0  0  0  0  0  0  0
    9.2512    4.2713   13.7653 O   0  0  0  0  0  0  0  0  0  0  0  0
    9.6495    8.6317   16.8332 N   0  0  0  0  0  0  0  0  0  0  0  0
    6.2934    8.6988   23.1988 O   0  0  0  0  0  0  0  0  0  0  0  0
    7.9806    8.6543   20.5437 C   0  0  0  0  0  0  0  0  0  0  0  0
   13.7270    5.7144   19.8610 O   0  0  0  0  0  0  0  0  0  0  0  0
    8.3351    5.5235   15.4478 C   0  0  0  0  0  0  0  0  0  0  0  0
    8.7700    7.8434   21.3915 C   0  0  0  0  0  0  0  0  0  0  0  0
   11.7856    6.8851   19.2401 C   0  0  0  0  0  0  0  0  0  0  0  0
   10.5281    7.4276   19.5649 C   0  0  0  0  0  0  0  0  0  0  0  0
   10.0256    7.2907   20.8484 C   0  0  0  0  0  0  0  0  0  0  0  0
    9.3113    5.3049   14.4911 C   0  0  0  0  0  0  0  0  0  0  0  0
    9.4607    7.5646   16.0139 C   0  0  0  0  0  0  0  0  0  0  0  0
   10.4192    7.3157   15.0955 C   0  0  0  0  0  0  0  0  0  0  0  0
   10.2489    6.4227   23.0218 N   0  0  0  0  0  0  0  0  0  0  0  0
    7.2472    8.0746   23.5050 C   0  0  0  0  0  0  0  0  0  0  0  0
    9.2051    6.9101   23.4604 C   0  0  0  0  0  0  0  0  0  0  0  0
   11.9646    6.0299   21.4251 C   0  0  0  0  0  0  0  0  0  0  0  0
  1  5  1  0
  1 13  1  0
  2 20  2  0
  2 28  1  0
  2 29  1  0
  3 19  4  0
  3 25  4  0
  4 23  4  0
  4 27  1  0
  4 30  4  0
  5 17  1  0
  6  8  1  0
  6 29  1  0
  7 24  4  0
  7 26  4  0
  8 28  1  0
  9 13  2  0
 10 18  1  0
 10 21  4  0
 10 30  4  0
 11 17  2  0
 12 18  1  0
 13 15  1  0
 14 24  1  0
 15 25  1  0
 16 28  2  0
 17 20  1  0
 19 24  4  0
 20 23  1  0
 21 22  4  0
 22 23  4  0
 25 26  4  0
 27 29  2  0
M  END
$$$$

 Created by Python create_sdf_string function

 30 33  0  0  0  0  0  0  0  0999 V2000
    8.3036    9.8571   18.4133 C   0  0  0  0  0  0  0  0  0  0  0  0
    8.3694    7.6612   22.6703 C   0  0  0  0  0  0  0  0  0  0  0  0
    8.4143    6.6863   16.2273 C   0  0  0  0  0  0  0  0  0  0  0  0
   10.7581    6.5674   21.7636 C   0  0  0  0  0  0  0  0  0  0  0  0
    8.4452    8.7960   19.2958 O   0  0  0  0  0  0  0  0  0  0  0  0
    8.7122    6.7842   24.8569 C   0  0  0  0  0  0  0  0  0  0  0  0
   10.3400    6.1726   14.3081 C   0  0  0  0  0  0  0  0  0  0  0  0
    7.4297    7.5873   24.8962 C   0  0  0  0  0  0  0  0  0  0  0  0
    8.1566   10.0536   16.0516 O   0  0  0  0  0  0  0  0  0  0  0  0
   12.4989    6.2074   20.1776 C   0  0  0  0  0  0  0  0  0  0  0  0
    6.9192    9.1053   20.9073 O   0  0  0  0  0  0  0  0  0  0  0  0
   14.3979    6.0729   18.7784 C   0  0  0  0  0  0  0  0  0  0  0  0
    8.6811    9.5354   16.9998 C   0  0  0  0  0  0  0  0  0  0  0  0
    9.2512    4.2713   13.7653 O   0  0  0  0  0  0  0  0  0  0  0  0
    9.6495    8.6317   16.8332 N   0  0  0  0  0  0  0  0  0  0  0  0
    6.2934    8.6988   23.1988 O   0  0  0  0  0  0  0  0  0  0  0  0
    7.9806    8.6543   20.5437 C   0  0  0  0  0  0  0  0  0  0  0  0
   13.7270    5.7144   19.8610 O   0  0  0  0  0  0  0  0  0  0  0  0
    8.3351    5.5235   15.4478 C   0  0  0  0  0  0  0  0  0  0  0  0
    8.7700    7.8434   21.3915 C   0  0  0  0  0  0  0  0  0  0  0  0
   11.7856    6.8851   19.2401 C   0  0  0  0  0  0  0  0  0  0  0  0
   10.5281    7.4276   19.5649 C   0  0  0  0  0  0  0  0  0  0  0  0
   10.0256    7.2907   20.8484 C   0  0  0  0  0  0  0  0  0  0  0  0
    9.3113    5.3049   14.4911 C   0  0  0  0  0  0  0  0  0  0  0  0
    9.4607    7.5646   16.0139 C   0  0  0  0  0  0  0  0  0  0  0  0
   10.4192    7.3157   15.0955 C   0  0  0  0  0  0  0  0  0  0  0  0
   10.2489    6.4227   23.0218 N   0  0  0  0  0  0  0  0  0  0  0  0
    7.2472    8.0746   23.5050 C   0  0  0  0  0  0  0  0  0  0  0  0
    9.2051    6.9101   23.4604 C   0  0  0  0  0  0  0  0  0  0  0  0
   11.9646    6.0299   21.4251 C   0  0  0  0  0  0  0  0  0  0  0  0
  1  5  1  0
  1 13  1  0
  2 20  2  0
  2 28  1  0
  2 29  1  0
  3 19  4  0
  3 25  4  0
  4 23  4  0
  4 27  1  0
  4 30  4  0
  5 17  1  0
  6  8  1  0
  6 29  1  0
  7 24  4  0
  7 26  4  0
  8 28  1  0
  9 13  2  0
 10 18  1  0
 10 21  4  0
 10 30  4  0
 11 17  2  0
 12 18  1  0
 13 15  1  0
 14 24  1  0
 15 25  1  0
 16 28  2  0
 17 20  1  0
 19 24  4  0
 20 23  1  0
 21 22  4  0
 22 23  4  0
 25 26  4  0
 27 29  2  0
M  END
$$$$

 Created by Python create_sdf_string function

 30 33  0  0  0  0  0  0  0  0999 V2000
    8.3036    9.8571   18.4133 C   0  0  0  0  0  0  0  0  0  0  0  0
    8.3694    7.6612   22.6703 C   0  0  0  0  0  0  0  0  0  0  0  0
    8.4143    6.6863   16.2273 C   0  0  0  0  0  0  0  0  0  0  0  0
   10.7581    6.5674   21.7636 C   0  0  0  0  0  0  0  0  0  0  0  0
    8.4452    8.7960   19.2958 O   0  0  0  0  0  0  0  0  0  0  0  0
    8.7122    6.7842   24.8569 C   0  0  0  0  0  0  0  0  0  0  0  0
   10.3400    6.1726   14.3081 C   0  0  0  0  0  0  0  0  0  0  0  0
    7.4297    7.5873   24.8962 C   0  0  0  0  0  0  0  0  0  0  0  0
    8.1566   10.0536   16.0516 O   0  0  0  0  0  0  0  0  0  0  0  0
   12.4989    6.2074   20.1776 C   0  0  0  0  0  0  0  0  0  0  0  0
    6.9192    9.1053   20.9073 O   0  0  0  0  0  0  0  0  0  0  0  0
   14.3979    6.0729   18.7784 C   0  0  0  0  0  0  0  0  0  0  0  0
    8.6811    9.5354   16.9998 C   0  0  0  0  0  0  0  0  0  0  0  0
    9.2512    4.2713   13.7653 O   0  0  0  0  0  0  0  0  0  0  0  0
    9.6495    8.6317   16.8332 N   0  0  0  0  0  0  0  0  0  0  0  0
    6.2934    8.6988   23.1988 O   0  0  0  0  0  0  0  0  0  0  0  0
    7.9806    8.6543   20.5437 C   0  0  0  0  0  0  0  0  0  0  0  0
   13.7270    5.7144   19.8610 O   0  0  0  0  0  0  0  0  0  0  0  0
    8.3351    5.5235   15.4478 C   0  0  0  0  0  0  0  0  0  0  0  0
    8.7700    7.8434   21.3915 C   0  0  0  0  0  0  0  0  0  0  0  0
   11.7856    6.8851   19.2401 C   0  0  0  0  0  0  0  0  0  0  0  0
   10.5281    7.4276   19.5649 C   0  0  0  0  0  0  0  0  0  0  0  0
   10.0256    7.2907   20.8484 C   0  0  0  0  0  0  0  0  0  0  0  0
    9.3113    5.3049   14.4911 C   0  0  0  0  0  0  0  0  0  0  0  0
    9.4607    7.5646   16.0139 C   0  0  0  0  0  0  0  0  0  0  0  0
   10.4192    7.3157   15.0955 C   0  0  0  0  0  0  0  0  0  0  0  0
   10.2489    6.4227   23.0218 N   0  0  0  0  0  0  0  0  0  0  0  0
    7.2472    8.0746   23.5050 C   0  0  0  0  0  0  0  0  0  0  0  0
    9.2051    6.9101   23.4604 C   0  0  0  0  0  0  0  0  0  0  0  0
   11.9646    6.0299   21.4251 C   0  0  0  0  0  0  0  0  0  0  0  0
  1  5  1  0
  1 13  1  0
  2 20  2  0
  2 28  1  0
  2 29  1  0
  3 19  4  0
  3 25  4  0
  4 23  4  0
  4 27  1  0
  4 30  4  0
  5 17  1  0
  6  8  1  0
  6 29  1  0
  7 24  4  0
  7 26  4  0
  8 28  1  0
  9 13  2  0
 10 18  1  0
 10 21  4  0
 10 30  4  0
 11 17  2  0
 12 18  1  0
 13 15  1  0
 14 24  1  0
 15 25  1  0
 16 28  2  0
 17 20  1  0
 19 24  4  0
 20 23  1  0
 21 22  4  0
 22 23  4  0
 25 26  4  0
 27 29  2  0
M  END
$$$$

 Created by Python create_sdf_string function

 30 33  0  0  0  0  0  0  0  0999 V2000
    8.3036    9.8571   18.4133 C   0  0  0  0  0  0  0  0  0  0  0  0
    8.3694    7.6612   22.6703 C   0  0  0  0  0  0  0  0  0  0  0  0
    8.4143    6.6863   16.2273 C   0  0  0  0  0  0  0  0  0  0  0  0
   10.7581    6.5674   21.7636 C   0  0  0  0  0  0  0  0  0  0  0  0
    8.4452    8.7960   19.2958 O   0  0  0  0  0  0  0  0  0  0  0  0
    8.7122    6.7842   24.8569 C   0  0  0  0  0  0  0  0  0  0  0  0
   10.3400    6.1726   14.3081 C   0  0  0  0  0  0  0  0  0  0  0  0
    7.4297    7.5873   24.8962 C   0  0  0  0  0  0  0  0  0  0  0  0
    8.1566   10.0536   16.0516 O   0  0  0  0  0  0  0  0  0  0  0  0
   12.4989    6.2074   20.1776 C   0  0  0  0  0  0  0  0  0  0  0  0
    6.9192    9.1053   20.9073 O   0  0  0  0  0  0  0  0  0  0  0  0
   14.3979    6.0729   18.7784 C   0  0  0  0  0  0  0  0  0  0  0  0
    8.6811    9.5354   16.9998 C   0  0  0  0  0  0  0  0  0  0  0  0
    9.2512    4.2713   13.7653 O   0  0  0  0  0  0  0  0  0  0  0  0
    9.6495    8.6317   16.8332 N   0  0  0  0  0  0  0  0  0  0  0  0
    6.2934    8.6988   23.1988 O   0  0  0  0  0  0  0  0  0  0  0  0
    7.9806    8.6543   20.5437 C   0  0  0  0  0  0  0  0  0  0  0  0
   13.7270    5.7144   19.8610 O   0  0  0  0  0  0  0  0  0  0  0  0
    8.3351    5.5235   15.4478 C   0  0  0  0  0  0  0  0  0  0  0  0
    8.7700    7.8434   21.3915 C   0  0  0  0  0  0  0  0  0  0  0  0
   11.7856    6.8851   19.2401 C   0  0  0  0  0  0  0  0  0  0  0  0
   10.5281    7.4276   19.5649 C   0  0  0  0  0  0  0  0  0  0  0  0
   10.0256    7.2907   20.8484 C   0  0  0  0  0  0  0  0  0  0  0  0
    9.3113    5.3049   14.4911 C   0  0  0  0  0  0  0  0  0  0  0  0
    9.4607    7.5646   16.0139 C   0  0  0  0  0  0  0  0  0  0  0  0
   10.4192    7.3157   15.0955 C   0  0  0  0  0  0  0  0  0  0  0  0
   10.2489    6.4227   23.0218 N   0  0  0  0  0  0  0  0  0  0  0  0
    7.2472    8.0746   23.5050 C   0  0  0  0  0  0  0  0  0  0  0  0
    9.2051    6.9101   23.4604 C   0  0  0  0  0  0  0  0  0  0  0  0
   11.9646    6.0299   21.4251 C   0  0  0  0  0  0  0  0  0  0  0  0
  1  5  1  0
  1 13  1  0
  2 20  2  0
  2 28  1  0
  2 29  1  0
  3 19  4  0
  3 25  4  0
  4 23  4  0
  4 27  1  0
  4 30  4  0
  5 17  1  0
  6  8  1  0
  6 29  1  0
  7 24  4  0
  7 26  4  0
  8 28  1  0
  9 13  2  0
 10 18  1  0
 10 21  4  0
 10 30  4  0
 11 17  2  0
 12 18  1  0
 13 15  1  0
 14 24  1  0
 15 25  1  0
 16 28  2  0
 17 20  1  0
 19 24  4  0
 20 23  1  0
 21 22  4  0
 22 23  4  0
 25 26  4  0
 27 29  2  0
M  END
$$$$

 Created by Python create_sdf_string function

 30 33  0  0  0  0  0  0  0  0999 V2000
    8.3036    9.8571   18.4133 C   0  0  0  0  0  0  0  0  0  0  0  0
    8.3694    7.6612   22.6703 C   0  0  0  0  0  0  0  0  0  0  0  0
    8.4143    6.6863   16.2273 C   0  0  0  0  0  0  0  0  0  0  0  0
   10.7581    6.5674   21.7636 C   0  0  0  0  0  0  0  0  0  0  0  0
    8.4452    8.7960   19.2958 O   0  0  0  0  0  0  0  0  0  0  0  0
    8.7122    6.7842   24.8569 C   0  0  0  0  0  0  0  0  0  0  0  0
   10.3400    6.1726   14.3081 C   0  0  0  0  0  0  0  0  0  0  0  0
    7.4297    7.5873   24.8962 C   0  0  0  0  0  0  0  0  0  0  0  0
    8.1566   10.0536   16.0516 O   0  0  0  0  0  0  0  0  0  0  0  0
   12.4989    6.2074   20.1776 C   0  0  0  0  0  0  0  0  0  0  0  0
    6.9192    9.1053   20.9073 O   0  0  0  0  0  0  0  0  0  0  0  0
   14.3979    6.0729   18.7784 C   0  0  0  0  0  0  0  0  0  0  0  0
    8.6811    9.5354   16.9998 C   0  0  0  0  0  0  0  0  0  0  0  0
    9.2512    4.2713   13.7653 O   0  0  0  0  0  0  0  0  0  0  0  0
    9.6495    8.6317   16.8332 N   0  0  0  0  0  0  0  0  0  0  0  0
    6.2934    8.6988   23.1988 O   0  0  0  0  0  0  0  0  0  0  0  0
    7.9806    8.6543   20.5437 C   0  0  0  0  0  0  0  0  0  0  0  0
   13.7270    5.7144   19.8610 O   0  0  0  0  0  0  0  0  0  0  0  0
    8.3351    5.5235   15.4478 C   0  0  0  0  0  0  0  0  0  0  0  0
    8.7700    7.8434   21.3915 C   0  0  0  0  0  0  0  0  0  0  0  0
   11.7856    6.8851   19.2401 C   0  0  0  0  0  0  0  0  0  0  0  0
   10.5281    7.4276   19.5649 C   0  0  0  0  0  0  0  0  0  0  0  0
   10.0256    7.2907   20.8484 C   0  0  0  0  0  0  0  0  0  0  0  0
    9.3113    5.3049   14.4911 C   0  0  0  0  0  0  0  0  0  0  0  0
    9.4607    7.5646   16.0139 C   0  0  0  0  0  0  0  0  0  0  0  0
   10.4192    7.3157   15.0955 C   0  0  0  0  0  0  0  0  0  0  0  0
   10.2489    6.4227   23.0218 N   0  0  0  0  0  0  0  0  0  0  0  0
    7.2472    8.0746   23.5050 C   0  0  0  0  0  0  0  0  0  0  0  0
    9.2051    6.9101   23.4604 C   0  0  0  0  0  0  0  0  0  0  0  0
   11.9646    6.0299   21.4251 C   0  0  0  0  0  0  0  0  0  0  0  0
  1  5  1  0
  1 13  1  0
  2 20  2  0
  2 28  1  0
  2 29  1  0
  3 19  4  0
  3 25  4  0
  4 23  4  0
  4 27  1  0
  4 30  4  0
  5 17  1  0
  6  8  1  0
  6 29  1  0
  7 24  4  0
  7 26  4  0
  8 28  1  0
  9 13  2  0
 10 18  1  0
 10 21  4  0
 10 30  4  0
 11 17  2  0
 12 18  1  0
 13 15  1  0
 14 24  1  0
 15 25  1  0
 16 28  2  0
 17 20  1  0
 19 24  4  0
 20 23  1  0
 21 22  4  0
 22 23  4  0
 25 26  4  0
 27 29  2  0
M  END
$$$$

 Created by Python create_sdf_string function

 30 33  0  0  0  0  0  0  0  0999 V2000
    8.3036    9.8571   18.4133 C   0  0  0  0  0  0  0  0  0  0  0  0
    8.3694    7.6612   22.6703 C   0  0  0  0  0  0  0  0  0  0  0  0
    8.4143    6.6863   16.2273 C   0  0  0  0  0  0  0  0  0  0  0  0
   10.7581    6.5674   21.7636 C   0  0  0  0  0  0  0  0  0  0  0  0
    8.4452    8.7960   19.2958 O   0  0  0  0  0  0  0  0  0  0  0  0
    8.7122    6.7842   24.8569 C   0  0  0  0  0  0  0  0  0  0  0  0
   10.3400    6.1726   14.3081 C   0  0  0  0  0  0  0  0  0  0  0  0
    7.4297    7.5873   24.8962 C   0  0  0  0  0  0  0  0  0  0  0  0
    8.1566   10.0536   16.0516 O   0  0  0  0  0  0  0  0  0  0  0  0
   12.4989    6.2074   20.1776 C   0  0  0  0  0  0  0  0  0  0  0  0
    6.9192    9.1053   20.9073 O   0  0  0  0  0  0  0  0  0  0  0  0
   14.3979    6.0729   18.7784 C   0  0  0  0  0  0  0  0  0  0  0  0
    8.6811    9.5354   16.9998 C   0  0  0  0  0  0  0  0  0  0  0  0
    9.2512    4.2713   13.7653 O   0  0  0  0  0  0  0  0  0  0  0  0
    9.6495    8.6317   16.8332 N   0  0  0  0  0  0  0  0  0  0  0  0
    6.2934    8.6988   23.1988 O   0  0  0  0  0  0  0  0  0  0  0  0
    7.9806    8.6543   20.5437 C   0  0  0  0  0  0  0  0  0  0  0  0
   13.7270    5.7144   19.8610 O   0  0  0  0  0  0  0  0  0  0  0  0
    8.3351    5.5235   15.4478 C   0  0  0  0  0  0  0  0  0  0  0  0
    8.7700    7.8434   21.3915 C   0  0  0  0  0  0  0  0  0  0  0  0
   11.7856    6.8851   19.2401 C   0  0  0  0  0  0  0  0  0  0  0  0
   10.5281    7.4276   19.5649 C   0  0  0  0  0  0  0  0  0  0  0  0
   10.0256    7.2907   20.8484 C   0  0  0  0  0  0  0  0  0  0  0  0
    9.3113    5.3049   14.4911 C   0  0  0  0  0  0  0  0  0  0  0  0
    9.4607    7.5646   16.0139 C   0  0  0  0  0  0  0  0  0  0  0  0
   10.4192    7.3157   15.0955 C   0  0  0  0  0  0  0  0  0  0  0  0
   10.2489    6.4227   23.0218 N   0  0  0  0  0  0  0  0  0  0  0  0
    7.2472    8.0746   23.5050 C   0  0  0  0  0  0  0  0  0  0  0  0
    9.2051    6.9101   23.4604 C   0  0  0  0  0  0  0  0  0  0  0  0
   11.9646    6.0299   21.4251 C   0  0  0  0  0  0  0  0  0  0  0  0
  1  5  1  0
  1 13  1  0
  2 20  2  0
  2 28  1  0
  2 29  1  0
  3 19  4  0
  3 25  4  0
  4 23  4  0
  4 27  1  0
  4 30  4  0
  5 17  1  0
  6  8  1  0
  6 29  1  0
  7 24  4  0
  7 26  4  0
  8 28  1  0
  9 13  2  0
 10 18  1  0
 10 21  4  0
 10 30  4  0
 11 17  2  0
 12 18  1  0
 13 15  1  0
 14 24  1  0
 15 25  1  0
 16 28  2  0
 17 20  1  0
 19 24  4  0
 20 23  1  0
 21 22  4  0
 22 23  4  0
 25 26  4  0
 27 29  2  0
M  END
$$$$

 Created by Python create_sdf_string function

 30 33  0  0  0  0  0  0  0  0999 V2000
    8.3036    9.8571   18.4133 C   0  0  0  0  0  0  0  0  0  0  0  0
    8.3694    7.6612   22.6703 C   0  0  0  0  0  0  0  0  0  0  0  0
    8.4143    6.6863   16.2273 C   0  0  0  0  0  0  0  0  0  0  0  0
   10.7581    6.5674   21.7636 C   0  0  0  0  0  0  0  0  0  0  0  0
    8.4452    8.7960   19.2958 O   0  0  0  0  0  0  0  0  0  0  0  0
    8.7122    6.7842   24.8569 C   0  0  0  0  0  0  0  0  0  0  0  0
   10.3400    6.1726   14.3081 C   0  0  0  0  0  0  0  0  0  0  0  0
    7.4297    7.5873   24.8962 C   0  0  0  0  0  0  0  0  0  0  0  0
    8.1566   10.0536   16.0516 O   0  0  0  0  0  0  0  0  0  0  0  0
   12.4989    6.2074   20.1776 C   0  0  0  0  0  0  0  0  0  0  0  0
    6.9192    9.1053   20.9073 O   0  0  0  0  0  0  0  0  0  0  0  0
   14.3979    6.0729   18.7784 C   0  0  0  0  0  0  0  0  0  0  0  0
    8.6811    9.5354   16.9998 C   0  0  0  0  0  0  0  0  0  0  0  0
    9.2512    4.2713   13.7653 O   0  0  0  0  0  0  0  0  0  0  0  0
    9.6495    8.6317   16.8332 N   0  0  0  0  0  0  0  0  0  0  0  0
    6.2934    8.6988   23.1988 O   0  0  0  0  0  0  0  0  0  0  0  0
    7.9806    8.6543   20.5437 C   0  0  0  0  0  0  0  0  0  0  0  0
   13.7270    5.7144   19.8610 O   0  0  0  0  0  0  0  0  0  0  0  0
    8.3351    5.5235   15.4478 C   0  0  0  0  0  0  0  0  0  0  0  0
    8.7700    7.8434   21.3915 C   0  0  0  0  0  0  0  0  0  0  0  0
   11.7856    6.8851   19.2401 C   0  0  0  0  0  0  0  0  0  0  0  0
   10.5281    7.4276   19.5649 C   0  0  0  0  0  0  0  0  0  0  0  0
   10.0256    7.2907   20.8484 C   0  0  0  0  0  0  0  0  0  0  0  0
    9.3113    5.3049   14.4911 C   0  0  0  0  0  0  0  0  0  0  0  0
    9.4607    7.5646   16.0139 C   0  0  0  0  0  0  0  0  0  0  0  0
   10.4192    7.3157   15.0955 C   0  0  0  0  0  0  0  0  0  0  0  0
   10.2489    6.4227   23.0218 N   0  0  0  0  0  0  0  0  0  0  0  0
    7.2472    8.0746   23.5050 C   0  0  0  0  0  0  0  0  0  0  0  0
    9.2051    6.9101   23.4604 C   0  0  0  0  0  0  0  0  0  0  0  0
   11.9646    6.0299   21.4251 C   0  0  0  0  0  0  0  0  0  0  0  0
  1  5  1  0
  1 13  1  0
  2 20  2  0
  2 28  1  0
  2 29  1  0
  3 19  4  0
  3 25  4  0
  4 23  4  0
  4 27  1  0
  4 30  4  0
  5 17  1  0
  6  8  1  0
  6 29  1  0
  7 24  4  0
  7 26  4  0
  8 28  1  0
  9 13  2  0
 10 18  1  0
 10 21  4  0
 10 30  4  0
 11 17  2  0
 12 18  1  0
 13 15  1  0
 14 24  1  0
 15 25  1  0
 16 28  2  0
 17 20  1  0
 19 24  4  0
 20 23  1  0
 21 22  4  0
 22 23  4  0
 25 26  4  0
 27 29  2  0
M  END
$$$$

 Created by Python create_sdf_string function

 30 33  0  0  0  0  0  0  0  0999 V2000
    8.3036    9.8571   18.4133 C   0  0  0  0  0  0  0  0  0  0  0  0
    8.3694    7.6612   22.6703 C   0  0  0  0  0  0  0  0  0  0  0  0
    8.4143    6.6863   16.2273 C   0  0  0  0  0  0  0  0  0  0  0  0
   10.7581    6.5674   21.7636 C   0  0  0  0  0  0  0  0  0  0  0  0
    8.4452    8.7960   19.2958 O   0  0  0  0  0  0  0  0  0  0  0  0
    8.7122    6.7842   24.8569 C   0  0  0  0  0  0  0  0  0  0  0  0
   10.3400    6.1726   14.3081 C   0  0  0  0  0  0  0  0  0  0  0  0
    7.4297    7.5873   24.8962 C   0  0  0  0  0  0  0  0  0  0  0  0
    8.1566   10.0536   16.0516 O   0  0  0  0  0  0  0  0  0  0  0  0
   12.4989    6.2074   20.1776 C   0  0  0  0  0  0  0  0  0  0  0  0
    6.9192    9.1053   20.9073 O   0  0  0  0  0  0  0  0  0  0  0  0
   14.3979    6.0729   18.7784 C   0  0  0  0  0  0  0  0  0  0  0  0
    8.6811    9.5354   16.9998 C   0  0  0  0  0  0  0  0  0  0  0  0
    9.2512    4.2713   13.7653 O   0  0  0  0  0  0  0  0  0  0  0  0
    9.6495    8.6317   16.8332 N   0  0  0  0  0  0  0  0  0  0  0  0
    6.2934    8.6988   23.1988 O   0  0  0  0  0  0  0  0  0  0  0  0
    7.9806    8.6543   20.5437 C   0  0  0  0  0  0  0  0  0  0  0  0
   13.7270    5.7144   19.8610 O   0  0  0  0  0  0  0  0  0  0  0  0
    8.3351    5.5235   15.4478 C   0  0  0  0  0  0  0  0  0  0  0  0
    8.7700    7.8434   21.3915 C   0  0  0  0  0  0  0  0  0  0  0  0
   11.7856    6.8851   19.2401 C   0  0  0  0  0  0  0  0  0  0  0  0
   10.5281    7.4276   19.5649 C   0  0  0  0  0  0  0  0  0  0  0  0
   10.0256    7.2907   20.8484 C   0  0  0  0  0  0  0  0  0  0  0  0
    9.3113    5.3049   14.4911 C   0  0  0  0  0  0  0  0  0  0  0  0
    9.4607    7.5646   16.0139 C   0  0  0  0  0  0  0  0  0  0  0  0
   10.4192    7.3157   15.0955 C   0  0  0  0  0  0  0  0  0  0  0  0
   10.2489    6.4227   23.0218 N   0  0  0  0  0  0  0  0  0  0  0  0
    7.2472    8.0746   23.5050 C   0  0  0  0  0  0  0  0  0  0  0  0
    9.2051    6.9101   23.4604 C   0  0  0  0  0  0  0  0  0  0  0  0
   11.9646    6.0299   21.4251 C   0  0  0  0  0  0  0  0  0  0  0  0
  1  5  1  0
  1 13  1  0
  2 20  2  0
  2 28  1  0
  2 29  1  0
  3 19  4  0
  3 25  4  0
  4 23  4  0
  4 27  1  0
  4 30  4  0
  5 17  1  0
  6  8  1  0
  6 29  1  0
  7 24  4  0
  7 26  4  0
  8 28  1  0
  9 13  2  0
 10 18  1  0
 10 21  4  0
 10 30  4  0
 11 17  2  0
 12 18  1  0
 13 15  1  0
 14 24  1  0
 15 25  1  0
 16 28  2  0
 17 20  1  0
 19 24  4  0
 20 23  1  0
 21 22  4  0
 22 23  4  0
 25 26  4  0
 27 29  2  0
M  END
$$$$

 Created by Python create_sdf_string function

 30 33  0  0  0  0  0  0  0  0999 V2000
    8.3036    9.8571   18.4133 C   0  0  0  0  0  0  0  0  0  0  0  0
    8.3694    7.6612   22.6703 C   0  0  0  0  0  0  0  0  0  0  0  0
    8.4143    6.6863   16.2273 C   0  0  0  0  0  0  0  0  0  0  0  0
   10.7581    6.5674   21.7636 C   0  0  0  0  0  0  0  0  0  0  0  0
    8.4452    8.7960   19.2958 O   0  0  0  0  0  0  0  0  0  0  0  0
    8.7122    6.7842   24.8569 C   0  0  0  0  0  0  0  0  0  0  0  0
   10.3400    6.1726   14.3081 C   0  0  0  0  0  0  0  0  0  0  0  0
    7.4297    7.5873   24.8962 C   0  0  0  0  0  0  0  0  0  0  0  0
    8.1566   10.0536   16.0516 O   0  0  0  0  0  0  0  0  0  0  0  0
   12.4989    6.2074   20.1776 C   0  0  0  0  0  0  0  0  0  0  0  0
    6.9192    9.1053   20.9073 O   0  0  0  0  0  0  0  0  0  0  0  0
   14.3979    6.0729   18.7784 C   0  0  0  0  0  0  0  0  0  0  0  0
    8.6811    9.5354   16.9998 C   0  0  0  0  0  0  0  0  0  0  0  0
    9.2512    4.2713   13.7653 O   0  0  0  0  0  0  0  0  0  0  0  0
    9.6495    8.6317   16.8332 N   0  0  0  0  0  0  0  0  0  0  0  0
    6.2934    8.6988   23.1988 O   0  0  0  0  0  0  0  0  0  0  0  0
    7.9806    8.6543   20.5437 C   0  0  0  0  0  0  0  0  0  0  0  0
   13.7270    5.7144   19.8610 O   0  0  0  0  0  0  0  0  0  0  0  0
    8.3351    5.5235   15.4478 C   0  0  0  0  0  0  0  0  0  0  0  0
    8.7700    7.8434   21.3915 C   0  0  0  0  0  0  0  0  0  0  0  0
   11.7856    6.8851   19.2401 C   0  0  0  0  0  0  0  0  0  0  0  0
   10.5281    7.4276   19.5649 C   0  0  0  0  0  0  0  0  0  0  0  0
   10.0256    7.2907   20.8484 C   0  0  0  0  0  0  0  0  0  0  0  0
    9.3113    5.3049   14.4911 C   0  0  0  0  0  0  0  0  0  0  0  0
    9.4607    7.5646   16.0139 C   0  0  0  0  0  0  0  0  0  0  0  0
   10.4192    7.3157   15.0955 C   0  0  0  0  0  0  0  0  0  0  0  0
   10.2489    6.4227   23.0218 N   0  0  0  0  0  0  0  0  0  0  0  0
    7.2472    8.0746   23.5050 C   0  0  0  0  0  0  0  0  0  0  0  0
    9.2051    6.9101   23.4604 C   0  0  0  0  0  0  0  0  0  0  0  0
   11.9646    6.0299   21.4251 C   0  0  0  0  0  0  0  0  0  0  0  0
  1  5  1  0
  1 13  1  0
  2 20  2  0
  2 28  1  0
  2 29  1  0
  3 19  4  0
  3 25  4  0
  4 23  4  0
  4 27  1  0
  4 30  4  0
  5 17  1  0
  6  8  1  0
  6 29  1  0
  7 24  4  0
  7 26  4  0
  8 28  1  0
  9 13  2  0
 10 18  1  0
 10 21  4  0
 10 30  4  0
 11 17  2  0
 12 18  1  0
 13 15  1  0
 14 24  1  0
 15 25  1  0
 16 28  2  0
 17 20  1  0
 19 24  4  0
 20 23  1  0
 21 22  4  0
 22 23  4  0
 25 26  4  0
 27 29  2  0
M  END
$$$$

 Created by Python create_sdf_string function

 30 33  0  0  0  0  0  0  0  0999 V2000
    8.3036    9.8571   18.4133 C   0  0  0  0  0  0  0  0  0  0  0  0
    8.3694    7.6612   22.6703 C   0  0  0  0  0  0  0  0  0  0  0  0
    8.4143    6.6863   16.2273 C   0  0  0  0  0  0  0  0  0  0  0  0
   10.7581    6.5674   21.7636 C   0  0  0  0  0  0  0  0  0  0  0  0
    8.4452    8.7960   19.2958 O   0  0  0  0  0  0  0  0  0  0  0  0
    8.7122    6.7842   24.8569 C   0  0  0  0  0  0  0  0  0  0  0  0
   10.3400    6.1726   14.3081 C   0  0  0  0  0  0  0  0  0  0  0  0
    7.4297    7.5873   24.8962 C   0  0  0  0  0  0  0  0  0  0  0  0
    8.1566   10.0536   16.0516 O   0  0  0  0  0  0  0  0  0  0  0  0
   12.4989    6.2074   20.1776 C   0  0  0  0  0  0  0  0  0  0  0  0
    6.9192    9.1053   20.9073 O   0  0  0  0  0  0  0  0  0  0  0  0
   14.3979    6.0729   18.7784 C   0  0  0  0  0  0  0  0  0  0  0  0
    8.6811    9.5354   16.9998 C   0  0  0  0  0  0  0  0  0  0  0  0
    9.2512    4.2713   13.7653 O   0  0  0  0  0  0  0  0  0  0  0  0
    9.6495    8.6317   16.8332 N   0  0  0  0  0  0  0  0  0  0  0  0
    6.2934    8.6988   23.1988 O   0  0  0  0  0  0  0  0  0  0  0  0
    7.9806    8.6543   20.5437 C   0  0  0  0  0  0  0  0  0  0  0  0
   13.7270    5.7144   19.8610 O   0  0  0  0  0  0  0  0  0  0  0  0
    8.3351    5.5235   15.4478 C   0  0  0  0  0  0  0  0  0  0  0  0
    8.7700    7.8434   21.3915 C   0  0  0  0  0  0  0  0  0  0  0  0
   11.7856    6.8851   19.2401 C   0  0  0  0  0  0  0  0  0  0  0  0
   10.5281    7.4276   19.5649 C   0  0  0  0  0  0  0  0  0  0  0  0
   10.0256    7.2907   20.8484 C   0  0  0  0  0  0  0  0  0  0  0  0
    9.3113    5.3049   14.4911 C   0  0  0  0  0  0  0  0  0  0  0  0
    9.4607    7.5646   16.0139 C   0  0  0  0  0  0  0  0  0  0  0  0
   10.4192    7.3157   15.0955 C   0  0  0  0  0  0  0  0  0  0  0  0
   10.2489    6.4227   23.0218 N   0  0  0  0  0  0  0  0  0  0  0  0
    7.2472    8.0746   23.5050 C   0  0  0  0  0  0  0  0  0  0  0  0
    9.2051    6.9101   23.4604 C   0  0  0  0  0  0  0  0  0  0  0  0
   11.9646    6.0299   21.4251 C   0  0  0  0  0  0  0  0  0  0  0  0
  1  5  1  0
  1 13  1  0
  2 20  2  0
  2 28  1  0
  2 29  1  0
  3 19  4  0
  3 25  4  0
  4 23  4  0
  4 27  1  0
  4 30  4  0
  5 17  1  0
  6  8  1  0
  6 29  1  0
  7 24  4  0
  7 26  4  0
  8 28  1  0
  9 13  2  0
 10 18  1  0
 10 21  4  0
 10 30  4  0
 11 17  2  0
 12 18  1  0
 13 15  1  0
 14 24  1  0
 15 25  1  0
 16 28  2  0
 17 20  1  0
 19 24  4  0
 20 23  1  0
 21 22  4  0
 22 23  4  0
 25 26  4  0
 27 29  2  0
M  END
$$$$

 Created by Python create_sdf_string function

 30 33  0  0  0  0  0  0  0  0999 V2000
    8.3036    9.8571   18.4133 C   0  0  0  0  0  0  0  0  0  0  0  0
    8.3694    7.6612   22.6703 C   0  0  0  0  0  0  0  0  0  0  0  0
    8.4143    6.6863   16.2273 C   0  0  0  0  0  0  0  0  0  0  0  0
   10.7581    6.5674   21.7636 C   0  0  0  0  0  0  0  0  0  0  0  0
    8.4452    8.7960   19.2958 O   0  0  0  0  0  0  0  0  0  0  0  0
    8.7122    6.7842   24.8569 C   0  0  0  0  0  0  0  0  0  0  0  0
   10.3400    6.1726   14.3081 C   0  0  0  0  0  0  0  0  0  0  0  0
    7.4297    7.5873   24.8962 C   0  0  0  0  0  0  0  0  0  0  0  0
    8.1566   10.0536   16.0516 O   0  0  0  0  0  0  0  0  0  0  0  0
   12.4989    6.2074   20.1776 C   0  0  0  0  0  0  0  0  0  0  0  0
    6.9192    9.1053   20.9073 O   0  0  0  0  0  0  0  0  0  0  0  0
   14.3979    6.0729   18.7784 C   0  0  0  0  0  0  0  0  0  0  0  0
    8.6811    9.5354   16.9998 C   0  0  0  0  0  0  0  0  0  0  0  0
    9.2512    4.2713   13.7653 O   0  0  0  0  0  0  0  0  0  0  0  0
    9.6495    8.6317   16.8332 N   0  0  0  0  0  0  0  0  0  0  0  0
    6.2934    8.6988   23.1988 O   0  0  0  0  0  0  0  0  0  0  0  0
    7.9806    8.6543   20.5437 C   0  0  0  0  0  0  0  0  0  0  0  0
   13.7270    5.7144   19.8610 O   0  0  0  0  0  0  0  0  0  0  0  0
    8.3351    5.5235   15.4478 C   0  0  0  0  0  0  0  0  0  0  0  0
    8.7700    7.8434   21.3915 C   0  0  0  0  0  0  0  0  0  0  0  0
   11.7856    6.8851   19.2401 C   0  0  0  0  0  0  0  0  0  0  0  0
   10.5281    7.4276   19.5649 C   0  0  0  0  0  0  0  0  0  0  0  0
   10.0256    7.2907   20.8484 C   0  0  0  0  0  0  0  0  0  0  0  0
    9.3113    5.3049   14.4911 C   0  0  0  0  0  0  0  0  0  0  0  0
    9.4607    7.5646   16.0139 C   0  0  0  0  0  0  0  0  0  0  0  0
   10.4192    7.3157   15.0955 C   0  0  0  0  0  0  0  0  0  0  0  0
   10.2489    6.4227   23.0218 N   0  0  0  0  0  0  0  0  0  0  0  0
    7.2472    8.0746   23.5050 C   0  0  0  0  0  0  0  0  0  0  0  0
    9.2051    6.9101   23.4604 C   0  0  0  0  0  0  0  0  0  0  0  0
   11.9646    6.0299   21.4251 C   0  0  0  0  0  0  0  0  0  0  0  0
  1  5  1  0
  1 13  1  0
  2 20  2  0
  2 28  1  0
  2 29  1  0
  3 19  4  0
  3 25  4  0
  4 23  4  0
  4 27  1  0
  4 30  4  0
  5 17  1  0
  6  8  1  0
  6 29  1  0
  7 24  4  0
  7 26  4  0
  8 28  1  0
  9 13  2  0
 10 18  1  0
 10 21  4  0
 10 30  4  0
 11 17  2  0
 12 18  1  0
 13 15  1  0
 14 24  1  0
 15 25  1  0
 16 28  2  0
 17 20  1  0
 19 24  4  0
 20 23  1  0
 21 22  4  0
 22 23  4  0
 25 26  4  0
 27 29  2  0
M  END
$$$$

 Created by Python create_sdf_string function

 30 33  0  0  0  0  0  0  0  0999 V2000
    8.3036    9.8571   18.4133 C   0  0  0  0  0  0  0  0  0  0  0  0
    8.3694    7.6612   22.6703 C   0  0  0  0  0  0  0  0  0  0  0  0
    8.4143    6.6863   16.2273 C   0  0  0  0  0  0  0  0  0  0  0  0
   10.7581    6.5674   21.7636 C   0  0  0  0  0  0  0  0  0  0  0  0
    8.4452    8.7960   19.2958 O   0  0  0  0  0  0  0  0  0  0  0  0
    8.7122    6.7842   24.8569 C   0  0  0  0  0  0  0  0  0  0  0  0
   10.3400    6.1726   14.3081 C   0  0  0  0  0  0  0  0  0  0  0  0
    7.4297    7.5873   24.8962 C   0  0  0  0  0  0  0  0  0  0  0  0
    8.1566   10.0536   16.0516 O   0  0  0  0  0  0  0  0  0  0  0  0
   12.4989    6.2074   20.1776 C   0  0  0  0  0  0  0  0  0  0  0  0
    6.9192    9.1053   20.9073 O   0  0  0  0  0  0  0  0  0  0  0  0
   14.3979    6.0729   18.7784 C   0  0  0  0  0  0  0  0  0  0  0  0
    8.6811    9.5354   16.9998 C   0  0  0  0  0  0  0  0  0  0  0  0
    9.2512    4.2713   13.7653 O   0  0  0  0  0  0  0  0  0  0  0  0
    9.6495    8.6317   16.8332 N   0  0  0  0  0  0  0  0  0  0  0  0
    6.2934    8.6988   23.1988 O   0  0  0  0  0  0  0  0  0  0  0  0
    7.9806    8.6543   20.5437 C   0  0  0  0  0  0  0  0  0  0  0  0
   13.7270    5.7144   19.8610 O   0  0  0  0  0  0  0  0  0  0  0  0
    8.3351    5.5235   15.4478 C   0  0  0  0  0  0  0  0  0  0  0  0
    8.7700    7.8434   21.3915 C   0  0  0  0  0  0  0  0  0  0  0  0
   11.7856    6.8851   19.2401 C   0  0  0  0  0  0  0  0  0  0  0  0
   10.5281    7.4276   19.5649 C   0  0  0  0  0  0  0  0  0  0  0  0
   10.0256    7.2907   20.8484 C   0  0  0  0  0  0  0  0  0  0  0  0
    9.3113    5.3049   14.4911 C   0  0  0  0  0  0  0  0  0  0  0  0
    9.4607    7.5646   16.0139 C   0  0  0  0  0  0  0  0  0  0  0  0
   10.4192    7.3157   15.0955 C   0  0  0  0  0  0  0  0  0  0  0  0
   10.2489    6.4227   23.0218 N   0  0  0  0  0  0  0  0  0  0  0  0
    7.2472    8.0746   23.5050 C   0  0  0  0  0  0  0  0  0  0  0  0
    9.2051    6.9101   23.4604 C   0  0  0  0  0  0  0  0  0  0  0  0
   11.9646    6.0299   21.4251 C   0  0  0  0  0  0  0  0  0  0  0  0
  1  5  1  0
  1 13  1  0
  2 20  2  0
  2 28  1  0
  2 29  1  0
  3 19  4  0
  3 25  4  0
  4 23  4  0
  4 27  1  0
  4 30  4  0
  5 17  1  0
  6  8  1  0
  6 29  1  0
  7 24  4  0
  7 26  4  0
  8 28  1  0
  9 13  2  0
 10 18  1  0
 10 21  4  0
 10 30  4  0
 11 17  2  0
 12 18  1  0
 13 15  1  0
 14 24  1  0
 15 25  1  0
 16 28  2  0
 17 20  1  0
 19 24  4  0
 20 23  1  0
 21 22  4  0
 22 23  4  0
 25 26  4  0
 27 29  2  0
M  END
$$$$

 Created by Python create_sdf_string function

 30 33  0  0  0  0  0  0  0  0999 V2000
    8.3036    9.8571   18.4133 C   0  0  0  0  0  0  0  0  0  0  0  0
    8.3694    7.6612   22.6703 C   0  0  0  0  0  0  0  0  0  0  0  0
    8.4143    6.6863   16.2273 C   0  0  0  0  0  0  0  0  0  0  0  0
   10.7581    6.5674   21.7636 C   0  0  0  0  0  0  0  0  0  0  0  0
    8.4452    8.7960   19.2958 O   0  0  0  0  0  0  0  0  0  0  0  0
    8.7122    6.7842   24.8569 C   0  0  0  0  0  0  0  0  0  0  0  0
   10.3400    6.1726   14.3081 C   0  0  0  0  0  0  0  0  0  0  0  0
    7.4297    7.5873   24.8962 C   0  0  0  0  0  0  0  0  0  0  0  0
    8.1566   10.0536   16.0516 O   0  0  0  0  0  0  0  0  0  0  0  0
   12.4989    6.2074   20.1776 C   0  0  0  0  0  0  0  0  0  0  0  0
    6.9192    9.1053   20.9073 O   0  0  0  0  0  0  0  0  0  0  0  0
   14.3979    6.0729   18.7784 C   0  0  0  0  0  0  0  0  0  0  0  0
    8.6811    9.5354   16.9998 C   0  0  0  0  0  0  0  0  0  0  0  0
    9.2512    4.2713   13.7653 O   0  0  0  0  0  0  0  0  0  0  0  0
    9.6495    8.6317   16.8332 N   0  0  0  0  0  0  0  0  0  0  0  0
    6.2934    8.6988   23.1988 O   0  0  0  0  0  0  0  0  0  0  0  0
    7.9806    8.6543   20.5437 C   0  0  0  0  0  0  0  0  0  0  0  0
   13.7270    5.7144   19.8610 O   0  0  0  0  0  0  0  0  0  0  0  0
    8.3351    5.5235   15.4478 C   0  0  0  0  0  0  0  0  0  0  0  0
    8.7700    7.8434   21.3915 C   0  0  0  0  0  0  0  0  0  0  0  0
   11.7856    6.8851   19.2401 C   0  0  0  0  0  0  0  0  0  0  0  0
   10.5281    7.4276   19.5649 C   0  0  0  0  0  0  0  0  0  0  0  0
   10.0256    7.2907   20.8484 C   0  0  0  0  0  0  0  0  0  0  0  0
    9.3113    5.3049   14.4911 C   0  0  0  0  0  0  0  0  0  0  0  0
    9.4607    7.5646   16.0139 C   0  0  0  0  0  0  0  0  0  0  0  0
   10.4192    7.3157   15.0955 C   0  0  0  0  0  0  0  0  0  0  0  0
   10.2489    6.4227   23.0218 N   0  0  0  0  0  0  0  0  0  0  0  0
    7.2472    8.0746   23.5050 C   0  0  0  0  0  0  0  0  0  0  0  0
    9.2051    6.9101   23.4604 C   0  0  0  0  0  0  0  0  0  0  0  0
   11.9646    6.0299   21.4251 C   0  0  0  0  0  0  0  0  0  0  0  0
  1  5  1  0
  1 13  1  0
  2 20  2  0
  2 28  1  0
  2 29  1  0
  3 19  4  0
  3 25  4  0
  4 23  4  0
  4 27  1  0
  4 30  4  0
  5 17  1  0
  6  8  1  0
  6 29  1  0
  7 24  4  0
  7 26  4  0
  8 28  1  0
  9 13  2  0
 10 18  1  0
 10 21  4  0
 10 30  4  0
 11 17  2  0
 12 18  1  0
 13 15  1  0
 14 24  1  0
 15 25  1  0
 16 28  2  0
 17 20  1  0
 19 24  4  0
 20 23  1  0
 21 22  4  0
 22 23  4  0
 25 26  4  0
 27 29  2  0
M  END
$$$$

 Created by Python create_sdf_string function

 30 33  0  0  0  0  0  0  0  0999 V2000
    8.3036    9.8571   18.4133 C   0  0  0  0  0  0  0  0  0  0  0  0
    8.3694    7.6612   22.6703 C   0  0  0  0  0  0  0  0  0  0  0  0
    8.4143    6.6863   16.2273 C   0  0  0  0  0  0  0  0  0  0  0  0
   10.7581    6.5674   21.7636 C   0  0  0  0  0  0  0  0  0  0  0  0
    8.4452    8.7960   19.2958 O   0  0  0  0  0  0  0  0  0  0  0  0
    8.7122    6.7842   24.8569 C   0  0  0  0  0  0  0  0  0  0  0  0
   10.3400    6.1726   14.3081 C   0  0  0  0  0  0  0  0  0  0  0  0
    7.4297    7.5873   24.8962 C   0  0  0  0  0  0  0  0  0  0  0  0
    8.1566   10.0536   16.0516 O   0  0  0  0  0  0  0  0  0  0  0  0
   12.4989    6.2074   20.1776 C   0  0  0  0  0  0  0  0  0  0  0  0
    6.9192    9.1053   20.9073 O   0  0  0  0  0  0  0  0  0  0  0  0
   14.3979    6.0729   18.7784 C   0  0  0  0  0  0  0  0  0  0  0  0
    8.6811    9.5354   16.9998 C   0  0  0  0  0  0  0  0  0  0  0  0
    9.2512    4.2713   13.7653 O   0  0  0  0  0  0  0  0  0  0  0  0
    9.6495    8.6317   16.8332 N   0  0  0  0  0  0  0  0  0  0  0  0
    6.2934    8.6988   23.1988 O   0  0  0  0  0  0  0  0  0  0  0  0
    7.9806    8.6543   20.5437 C   0  0  0  0  0  0  0  0  0  0  0  0
   13.7270    5.7144   19.8610 O   0  0  0  0  0  0  0  0  0  0  0  0
    8.3351    5.5235   15.4478 C   0  0  0  0  0  0  0  0  0  0  0  0
    8.7700    7.8434   21.3915 C   0  0  0  0  0  0  0  0  0  0  0  0
   11.7856    6.8851   19.2401 C   0  0  0  0  0  0  0  0  0  0  0  0
   10.5281    7.4276   19.5649 C   0  0  0  0  0  0  0  0  0  0  0  0
   10.0256    7.2907   20.8484 C   0  0  0  0  0  0  0  0  0  0  0  0
    9.3113    5.3049   14.4911 C   0  0  0  0  0  0  0  0  0  0  0  0
    9.4607    7.5646   16.0139 C   0  0  0  0  0  0  0  0  0  0  0  0
   10.4192    7.3157   15.0955 C   0  0  0  0  0  0  0  0  0  0  0  0
   10.2489    6.4227   23.0218 N   0  0  0  0  0  0  0  0  0  0  0  0
    7.2472    8.0746   23.5050 C   0  0  0  0  0  0  0  0  0  0  0  0
    9.2051    6.9101   23.4604 C   0  0  0  0  0  0  0  0  0  0  0  0
   11.9646    6.0299   21.4251 C   0  0  0  0  0  0  0  0  0  0  0  0
  1  5  1  0
  1 13  1  0
  2 20  2  0
  2 28  1  0
  2 29  1  0
  3 19  4  0
  3 25  4  0
  4 23  4  0
  4 27  1  0
  4 30  4  0
  5 17  1  0
  6  8  1  0
  6 29  1  0
  7 24  4  0
  7 26  4  0
  8 28  1  0
  9 13  2  0
 10 18  1  0
 10 21  4  0
 10 30  4  0
 11 17  2  0
 12 18  1  0
 13 15  1  0
 14 24  1  0
 15 25  1  0
 16 28  2  0
 17 20  1  0
 19 24  4  0
 20 23  1  0
 21 22  4  0
 22 23  4  0
 25 26  4  0
 27 29  2  0
M  END
$$$$

 Created by Python create_sdf_string function

 30 33  0  0  0  0  0  0  0  0999 V2000
    8.3036    9.8571   18.4133 C   0  0  0  0  0  0  0  0  0  0  0  0
    8.3694    7.6612   22.6703 C   0  0  0  0  0  0  0  0  0  0  0  0
    8.4143    6.6863   16.2273 C   0  0  0  0  0  0  0  0  0  0  0  0
   10.7581    6.5674   21.7636 C   0  0  0  0  0  0  0  0  0  0  0  0
    8.4452    8.7960   19.2958 O   0  0  0  0  0  0  0  0  0  0  0  0
    8.7122    6.7842   24.8569 C   0  0  0  0  0  0  0  0  0  0  0  0
   10.3400    6.1726   14.3081 C   0  0  0  0  0  0  0  0  0  0  0  0
    7.4297    7.5873   24.8962 C   0  0  0  0  0  0  0  0  0  0  0  0
    8.1566   10.0536   16.0516 O   0  0  0  0  0  0  0  0  0  0  0  0
   12.4989    6.2074   20.1776 C   0  0  0  0  0  0  0  0  0  0  0  0
    6.9192    9.1053   20.9073 O   0  0  0  0  0  0  0  0  0  0  0  0
   14.3979    6.0729   18.7784 C   0  0  0  0  0  0  0  0  0  0  0  0
    8.6811    9.5354   16.9998 C   0  0  0  0  0  0  0  0  0  0  0  0
    9.2512    4.2713   13.7653 O   0  0  0  0  0  0  0  0  0  0  0  0
    9.6495    8.6317   16.8332 N   0  0  0  0  0  0  0  0  0  0  0  0
    6.2934    8.6988   23.1988 O   0  0  0  0  0  0  0  0  0  0  0  0
    7.9806    8.6543   20.5437 C   0  0  0  0  0  0  0  0  0  0  0  0
   13.7270    5.7144   19.8610 O   0  0  0  0  0  0  0  0  0  0  0  0
    8.3351    5.5235   15.4478 C   0  0  0  0  0  0  0  0  0  0  0  0
    8.7700    7.8434   21.3915 C   0  0  0  0  0  0  0  0  0  0  0  0
   11.7856    6.8851   19.2401 C   0  0  0  0  0  0  0  0  0  0  0  0
   10.5281    7.4276   19.5649 C   0  0  0  0  0  0  0  0  0  0  0  0
   10.0256    7.2907   20.8484 C   0  0  0  0  0  0  0  0  0  0  0  0
    9.3113    5.3049   14.4911 C   0  0  0  0  0  0  0  0  0  0  0  0
    9.4607    7.5646   16.0139 C   0  0  0  0  0  0  0  0  0  0  0  0
   10.4192    7.3157   15.0955 C   0  0  0  0  0  0  0  0  0  0  0  0
   10.2489    6.4227   23.0218 N   0  0  0  0  0  0  0  0  0  0  0  0
    7.2472    8.0746   23.5050 C   0  0  0  0  0  0  0  0  0  0  0  0
    9.2051    6.9101   23.4604 C   0  0  0  0  0  0  0  0  0  0  0  0
   11.9646    6.0299   21.4251 C   0  0  0  0  0  0  0  0  0  0  0  0
  1  5  1  0
  1 13  1  0
  2 20  2  0
  2 28  1  0
  2 29  1  0
  3 19  4  0
  3 25  4  0
  4 23  4  0
  4 27  1  0
  4 30  4  0
  5 17  1  0
  6  8  1  0
  6 29  1  0
  7 24  4  0
  7 26  4  0
  8 28  1  0
  9 13  2  0
 10 18  1  0
 10 21  4  0
 10 30  4  0
 11 17  2  0
 12 18  1  0
 13 15  1  0
 14 24  1  0
 15 25  1  0
 16 28  2  0
 17 20  1  0
 19 24  4  0
 20 23  1  0
 21 22  4  0
 22 23  4  0
 25 26  4  0
 27 29  2  0
M  END
$$$$

 Created by Python create_sdf_string function

 30 33  0  0  0  0  0  0  0  0999 V2000
    8.3036    9.8571   18.4133 C   0  0  0  0  0  0  0  0  0  0  0  0
    8.3694    7.6612   22.6703 C   0  0  0  0  0  0  0  0  0  0  0  0
    8.4143    6.6863   16.2273 C   0  0  0  0  0  0  0  0  0  0  0  0
   10.7581    6.5674   21.7636 C   0  0  0  0  0  0  0  0  0  0  0  0
    8.4452    8.7960   19.2958 O   0  0  0  0  0  0  0  0  0  0  0  0
    8.7122    6.7842   24.8569 C   0  0  0  0  0  0  0  0  0  0  0  0
   10.3400    6.1726   14.3081 C   0  0  0  0  0  0  0  0  0  0  0  0
    7.4297    7.5873   24.8962 C   0  0  0  0  0  0  0  0  0  0  0  0
    8.1566   10.0536   16.0516 O   0  0  0  0  0  0  0  0  0  0  0  0
   12.4989    6.2074   20.1776 C   0  0  0  0  0  0  0  0  0  0  0  0
    6.9192    9.1053   20.9073 O   0  0  0  0  0  0  0  0  0  0  0  0
   14.3979    6.0729   18.7784 C   0  0  0  0  0  0  0  0  0  0  0  0
    8.6811    9.5354   16.9998 C   0  0  0  0  0  0  0  0  0  0  0  0
    9.2512    4.2713   13.7653 O   0  0  0  0  0  0  0  0  0  0  0  0
    9.6495    8.6317   16.8332 N   0  0  0  0  0  0  0  0  0  0  0  0
    6.2934    8.6988   23.1988 O   0  0  0  0  0  0  0  0  0  0  0  0
    7.9806    8.6543   20.5437 C   0  0  0  0  0  0  0  0  0  0  0  0
   13.7270    5.7144   19.8610 O   0  0  0  0  0  0  0  0  0  0  0  0
    8.3351    5.5235   15.4478 C   0  0  0  0  0  0  0  0  0  0  0  0
    8.7700    7.8434   21.3915 C   0  0  0  0  0  0  0  0  0  0  0  0
   11.7856    6.8851   19.2401 C   0  0  0  0  0  0  0  0  0  0  0  0
   10.5281    7.4276   19.5649 C   0  0  0  0  0  0  0  0  0  0  0  0
   10.0256    7.2907   20.8484 C   0  0  0  0  0  0  0  0  0  0  0  0
    9.3113    5.3049   14.4911 C   0  0  0  0  0  0  0  0  0  0  0  0
    9.4607    7.5646   16.0139 C   0  0  0  0  0  0  0  0  0  0  0  0
   10.4192    7.3157   15.0955 C   0  0  0  0  0  0  0  0  0  0  0  0
   10.2489    6.4227   23.0218 N   0  0  0  0  0  0  0  0  0  0  0  0
    7.2472    8.0746   23.5050 C   0  0  0  0  0  0  0  0  0  0  0  0
    9.2051    6.9101   23.4604 C   0  0  0  0  0  0  0  0  0  0  0  0
   11.9646    6.0299   21.4251 C   0  0  0  0  0  0  0  0  0  0  0  0
  1  5  1  0
  1 13  1  0
  2 20  2  0
  2 28  1  0
  2 29  1  0
  3 19  4  0
  3 25  4  0
  4 23  4  0
  4 27  1  0
  4 30  4  0
  5 17  1  0
  6  8  1  0
  6 29  1  0
  7 24  4  0
  7 26  4  0
  8 28  1  0
  9 13  2  0
 10 18  1  0
 10 21  4  0
 10 30  4  0
 11 17  2  0
 12 18  1  0
 13 15  1  0
 14 24  1  0
 15 25  1  0
 16 28  2  0
 17 20  1  0
 19 24  4  0
 20 23  1  0
 21 22  4  0
 22 23  4  0
 25 26  4  0
 27 29  2  0
M  END
$$$$

 Created by Python create_sdf_string function

 30 33  0  0  0  0  0  0  0  0999 V2000
    8.3036    9.8571   18.4133 C   0  0  0  0  0  0  0  0  0  0  0  0
    8.3694    7.6612   22.6703 C   0  0  0  0  0  0  0  0  0  0  0  0
    8.4143    6.6863   16.2273 C   0  0  0  0  0  0  0  0  0  0  0  0
   10.7581    6.5674   21.7636 C   0  0  0  0  0  0  0  0  0  0  0  0
    8.4452    8.7960   19.2958 O   0  0  0  0  0  0  0  0  0  0  0  0
    8.7122    6.7842   24.8569 C   0  0  0  0  0  0  0  0  0  0  0  0
   10.3400    6.1726   14.3081 C   0  0  0  0  0  0  0  0  0  0  0  0
    7.4297    7.5873   24.8962 C   0  0  0  0  0  0  0  0  0  0  0  0
    8.1566   10.0536   16.0516 O   0  0  0  0  0  0  0  0  0  0  0  0
   12.4989    6.2074   20.1776 C   0  0  0  0  0  0  0  0  0  0  0  0
    6.9192    9.1053   20.9073 O   0  0  0  0  0  0  0  0  0  0  0  0
   14.3979    6.0729   18.7784 C   0  0  0  0  0  0  0  0  0  0  0  0
    8.6811    9.5354   16.9998 C   0  0  0  0  0  0  0  0  0  0  0  0
    9.2512    4.2713   13.7653 O   0  0  0  0  0  0  0  0  0  0  0  0
    9.6495    8.6317   16.8332 N   0  0  0  0  0  0  0  0  0  0  0  0
    6.2934    8.6988   23.1988 O   0  0  0  0  0  0  0  0  0  0  0  0
    7.9806    8.6543   20.5437 C   0  0  0  0  0  0  0  0  0  0  0  0
   13.7270    5.7144   19.8610 O   0  0  0  0  0  0  0  0  0  0  0  0
    8.3351    5.5235   15.4478 C   0  0  0  0  0  0  0  0  0  0  0  0
    8.7700    7.8434   21.3915 C   0  0  0  0  0  0  0  0  0  0  0  0
   11.7856    6.8851   19.2401 C   0  0  0  0  0  0  0  0  0  0  0  0
   10.5281    7.4276   19.5649 C   0  0  0  0  0  0  0  0  0  0  0  0
   10.0256    7.2907   20.8484 C   0  0  0  0  0  0  0  0  0  0  0  0
    9.3113    5.3049   14.4911 C   0  0  0  0  0  0  0  0  0  0  0  0
    9.4607    7.5646   16.0139 C   0  0  0  0  0  0  0  0  0  0  0  0
   10.4192    7.3157   15.0955 C   0  0  0  0  0  0  0  0  0  0  0  0
   10.2489    6.4227   23.0218 N   0  0  0  0  0  0  0  0  0  0  0  0
    7.2472    8.0746   23.5050 C   0  0  0  0  0  0  0  0  0  0  0  0
    9.2051    6.9101   23.4604 C   0  0  0  0  0  0  0  0  0  0  0  0
   11.9646    6.0299   21.4251 C   0  0  0  0  0  0  0  0  0  0  0  0
  1  5  1  0
  1 13  1  0
  2 20  2  0
  2 28  1  0
  2 29  1  0
  3 19  4  0
  3 25  4  0
  4 23  4  0
  4 27  1  0
  4 30  4  0
  5 17  1  0
  6  8  1  0
  6 29  1  0
  7 24  4  0
  7 26  4  0
  8 28  1  0
  9 13  2  0
 10 18  1  0
 10 21  4  0
 10 30  4  0
 11 17  2  0
 12 18  1  0
 13 15  1  0
 14 24  1  0
 15 25  1  0
 16 28  2  0
 17 20  1  0
 19 24  4  0
 20 23  1  0
 21 22  4  0
 22 23  4  0
 25 26  4  0
 27 29  2  0
M  END
$$$$

 Created by Python create_sdf_string function

 30 33  0  0  0  0  0  0  0  0999 V2000
    8.3036    9.8571   18.4133 C   0  0  0  0  0  0  0  0  0  0  0  0
    8.3694    7.6612   22.6703 C   0  0  0  0  0  0  0  0  0  0  0  0
    8.4143    6.6863   16.2273 C   0  0  0  0  0  0  0  0  0  0  0  0
   10.7581    6.5674   21.7636 C   0  0  0  0  0  0  0  0  0  0  0  0
    8.4452    8.7960   19.2958 O   0  0  0  0  0  0  0  0  0  0  0  0
    8.7122    6.7842   24.8569 C   0  0  0  0  0  0  0  0  0  0  0  0
   10.3400    6.1726   14.3081 C   0  0  0  0  0  0  0  0  0  0  0  0
    7.4297    7.5873   24.8962 C   0  0  0  0  0  0  0  0  0  0  0  0
    8.1566   10.0536   16.0516 O   0  0  0  0  0  0  0  0  0  0  0  0
   12.4989    6.2074   20.1776 C   0  0  0  0  0  0  0  0  0  0  0  0
    6.9192    9.1053   20.9073 O   0  0  0  0  0  0  0  0  0  0  0  0
   14.3979    6.0729   18.7784 C   0  0  0  0  0  0  0  0  0  0  0  0
    8.6811    9.5354   16.9998 C   0  0  0  0  0  0  0  0  0  0  0  0
    9.2512    4.2713   13.7653 O   0  0  0  0  0  0  0  0  0  0  0  0
    9.6495    8.6317   16.8332 N   0  0  0  0  0  0  0  0  0  0  0  0
    6.2934    8.6988   23.1988 O   0  0  0  0  0  0  0  0  0  0  0  0
    7.9806    8.6543   20.5437 C   0  0  0  0  0  0  0  0  0  0  0  0
   13.7270    5.7144   19.8610 O   0  0  0  0  0  0  0  0  0  0  0  0
    8.3351    5.5235   15.4478 C   0  0  0  0  0  0  0  0  0  0  0  0
    8.7700    7.8434   21.3915 C   0  0  0  0  0  0  0  0  0  0  0  0
   11.7856    6.8851   19.2401 C   0  0  0  0  0  0  0  0  0  0  0  0
   10.5281    7.4276   19.5649 C   0  0  0  0  0  0  0  0  0  0  0  0
   10.0256    7.2907   20.8484 C   0  0  0  0  0  0  0  0  0  0  0  0
    9.3113    5.3049   14.4911 C   0  0  0  0  0  0  0  0  0  0  0  0
    9.4607    7.5646   16.0139 C   0  0  0  0  0  0  0  0  0  0  0  0
   10.4192    7.3157   15.0955 C   0  0  0  0  0  0  0  0  0  0  0  0
   10.2489    6.4227   23.0218 N   0  0  0  0  0  0  0  0  0  0  0  0
    7.2472    8.0746   23.5050 C   0  0  0  0  0  0  0  0  0  0  0  0
    9.2051    6.9101   23.4604 C   0  0  0  0  0  0  0  0  0  0  0  0
   11.9646    6.0299   21.4251 C   0  0  0  0  0  0  0  0  0  0  0  0
  1  5  1  0
  1 13  1  0
  2 20  2  0
  2 28  1  0
  2 29  1  0
  3 19  4  0
  3 25  4  0
  4 23  4  0
  4 27  1  0
  4 30  4  0
  5 17  1  0
  6  8  1  0
  6 29  1  0
  7 24  4  0
  7 26  4  0
  8 28  1  0
  9 13  2  0
 10 18  1  0
 10 21  4  0
 10 30  4  0
 11 17  2  0
 12 18  1  0
 13 15  1  0
 14 24  1  0
 15 25  1  0
 16 28  2  0
 17 20  1  0
 19 24  4  0
 20 23  1  0
 21 22  4  0
 22 23  4  0
 25 26  4  0
 27 29  2  0
M  END
$$$$

 Created by Python create_sdf_string function

 30 33  0  0  0  0  0  0  0  0999 V2000
    8.3036    9.8571   18.4133 C   0  0  0  0  0  0  0  0  0  0  0  0
    8.3694    7.6612   22.6703 C   0  0  0  0  0  0  0  0  0  0  0  0
    8.4143    6.6863   16.2273 C   0  0  0  0  0  0  0  0  0  0  0  0
   10.7581    6.5674   21.7636 C   0  0  0  0  0  0  0  0  0  0  0  0
    8.4452    8.7960   19.2958 O   0  0  0  0  0  0  0  0  0  0  0  0
    8.7122    6.7842   24.8569 C   0  0  0  0  0  0  0  0  0  0  0  0
   10.3400    6.1726   14.3081 C   0  0  0  0  0  0  0  0  0  0  0  0
    7.4297    7.5873   24.8962 C   0  0  0  0  0  0  0  0  0  0  0  0
    8.1566   10.0536   16.0516 O   0  0  0  0  0  0  0  0  0  0  0  0
   12.4989    6.2074   20.1776 C   0  0  0  0  0  0  0  0  0  0  0  0
    6.9192    9.1053   20.9073 O   0  0  0  0  0  0  0  0  0  0  0  0
   14.3979    6.0729   18.7784 C   0  0  0  0  0  0  0  0  0  0  0  0
    8.6811    9.5354   16.9998 C   0  0  0  0  0  0  0  0  0  0  0  0
    9.2512    4.2713   13.7653 O   0  0  0  0  0  0  0  0  0  0  0  0
    9.6495    8.6317   16.8332 N   0  0  0  0  0  0  0  0  0  0  0  0
    6.2934    8.6988   23.1988 O   0  0  0  0  0  0  0  0  0  0  0  0
    7.9806    8.6543   20.5437 C   0  0  0  0  0  0  0  0  0  0  0  0
   13.7270    5.7144   19.8610 O   0  0  0  0  0  0  0  0  0  0  0  0
    8.3351    5.5235   15.4478 C   0  0  0  0  0  0  0  0  0  0  0  0
    8.7700    7.8434   21.3915 C   0  0  0  0  0  0  0  0  0  0  0  0
   11.7856    6.8851   19.2401 C   0  0  0  0  0  0  0  0  0  0  0  0
   10.5281    7.4276   19.5649 C   0  0  0  0  0  0  0  0  0  0  0  0
   10.0256    7.2907   20.8484 C   0  0  0  0  0  0  0  0  0  0  0  0
    9.3113    5.3049   14.4911 C   0  0  0  0  0  0  0  0  0  0  0  0
    9.4607    7.5646   16.0139 C   0  0  0  0  0  0  0  0  0  0  0  0
   10.4192    7.3157   15.0955 C   0  0  0  0  0  0  0  0  0  0  0  0
   10.2489    6.4227   23.0218 N   0  0  0  0  0  0  0  0  0  0  0  0
    7.2472    8.0746   23.5050 C   0  0  0  0  0  0  0  0  0  0  0  0
    9.2051    6.9101   23.4604 C   0  0  0  0  0  0  0  0  0  0  0  0
   11.9646    6.0299   21.4251 C   0  0  0  0  0  0  0  0  0  0  0  0
  1  5  1  0
  1 13  1  0
  2 20  2  0
  2 28  1  0
  2 29  1  0
  3 19  4  0
  3 25  4  0
  4 23  4  0
  4 27  1  0
  4 30  4  0
  5 17  1  0
  6  8  1  0
  6 29  1  0
  7 24  4  0
  7 26  4  0
  8 28  1  0
  9 13  2  0
 10 18  1  0
 10 21  4  0
 10 30  4  0
 11 17  2  0
 12 18  1  0
 13 15  1  0
 14 24  1  0
 15 25  1  0
 16 28  2  0
 17 20  1  0
 19 24  4  0
 20 23  1  0
 21 22  4  0
 22 23  4  0
 25 26  4  0
 27 29  2  0
M  END
$$$$

 Created by Python create_sdf_string function

 30 33  0  0  0  0  0  0  0  0999 V2000
    8.3036    9.8571   18.4133 C   0  0  0  0  0  0  0  0  0  0  0  0
    8.3694    7.6612   22.6703 C   0  0  0  0  0  0  0  0  0  0  0  0
    8.4143    6.6863   16.2273 C   0  0  0  0  0  0  0  0  0  0  0  0
   10.7581    6.5674   21.7636 C   0  0  0  0  0  0  0  0  0  0  0  0
    8.4452    8.7960   19.2958 O   0  0  0  0  0  0  0  0  0  0  0  0
    8.7122    6.7842   24.8569 C   0  0  0  0  0  0  0  0  0  0  0  0
   10.3400    6.1726   14.3081 C   0  0  0  0  0  0  0  0  0  0  0  0
    7.4297    7.5873   24.8962 C   0  0  0  0  0  0  0  0  0  0  0  0
    8.1566   10.0536   16.0516 O   0  0  0  0  0  0  0  0  0  0  0  0
   12.4989    6.2074   20.1776 C   0  0  0  0  0  0  0  0  0  0  0  0
    6.9192    9.1053   20.9073 O   0  0  0  0  0  0  0  0  0  0  0  0
   14.3979    6.0729   18.7784 C   0  0  0  0  0  0  0  0  0  0  0  0
    8.6811    9.5354   16.9998 C   0  0  0  0  0  0  0  0  0  0  0  0
    9.2512    4.2713   13.7653 O   0  0  0  0  0  0  0  0  0  0  0  0
    9.6495    8.6317   16.8332 N   0  0  0  0  0  0  0  0  0  0  0  0
    6.2934    8.6988   23.1988 O   0  0  0  0  0  0  0  0  0  0  0  0
    7.9806    8.6543   20.5437 C   0  0  0  0  0  0  0  0  0  0  0  0
   13.7270    5.7144   19.8610 O   0  0  0  0  0  0  0  0  0  0  0  0
    8.3351    5.5235   15.4478 C   0  0  0  0  0  0  0  0  0  0  0  0
    8.7700    7.8434   21.3915 C   0  0  0  0  0  0  0  0  0  0  0  0
   11.7856    6.8851   19.2401 C   0  0  0  0  0  0  0  0  0  0  0  0
   10.5281    7.4276   19.5649 C   0  0  0  0  0  0  0  0  0  0  0  0
   10.0256    7.2907   20.8484 C   0  0  0  0  0  0  0  0  0  0  0  0
    9.3113    5.3049   14.4911 C   0  0  0  0  0  0  0  0  0  0  0  0
    9.4607    7.5646   16.0139 C   0  0  0  0  0  0  0  0  0  0  0  0
   10.4192    7.3157   15.0955 C   0  0  0  0  0  0  0  0  0  0  0  0
   10.2489    6.4227   23.0218 N   0  0  0  0  0  0  0  0  0  0  0  0
    7.2472    8.0746   23.5050 C   0  0  0  0  0  0  0  0  0  0  0  0
    9.2051    6.9101   23.4604 C   0  0  0  0  0  0  0  0  0  0  0  0
   11.9646    6.0299   21.4251 C   0  0  0  0  0  0  0  0  0  0  0  0
  1  5  1  0
  1 13  1  0
  2 20  2  0
  2 28  1  0
  2 29  1  0
  3 19  4  0
  3 25  4  0
  4 23  4  0
  4 27  1  0
  4 30  4  0
  5 17  1  0
  6  8  1  0
  6 29  1  0
  7 24  4  0
  7 26  4  0
  8 28  1  0
  9 13  2  0
 10 18  1  0
 10 21  4  0
 10 30  4  0
 11 17  2  0
 12 18  1  0
 13 15  1  0
 14 24  1  0
 15 25  1  0
 16 28  2  0
 17 20  1  0
 19 24  4  0
 20 23  1  0
 21 22  4  0
 22 23  4  0
 25 26  4  0
 27 29  2  0
M  END
$$$$

 Created by Python create_sdf_string function

 30 33  0  0  0  0  0  0  0  0999 V2000
    8.3036    9.8571   18.4133 C   0  0  0  0  0  0  0  0  0  0  0  0
    8.3694    7.6612   22.6703 C   0  0  0  0  0  0  0  0  0  0  0  0
    8.4143    6.6863   16.2273 C   0  0  0  0  0  0  0  0  0  0  0  0
   10.7581    6.5674   21.7636 C   0  0  0  0  0  0  0  0  0  0  0  0
    8.4452    8.7960   19.2958 O   0  0  0  0  0  0  0  0  0  0  0  0
    8.7122    6.7842   24.8569 C   0  0  0  0  0  0  0  0  0  0  0  0
   10.3400    6.1726   14.3081 C   0  0  0  0  0  0  0  0  0  0  0  0
    7.4297    7.5873   24.8962 C   0  0  0  0  0  0  0  0  0  0  0  0
    8.1566   10.0536   16.0516 O   0  0  0  0  0  0  0  0  0  0  0  0
   12.4989    6.2074   20.1776 C   0  0  0  0  0  0  0  0  0  0  0  0
    6.9192    9.1053   20.9073 O   0  0  0  0  0  0  0  0  0  0  0  0
   14.3979    6.0729   18.7784 C   0  0  0  0  0  0  0  0  0  0  0  0
    8.6811    9.5354   16.9998 C   0  0  0  0  0  0  0  0  0  0  0  0
    9.2512    4.2713   13.7653 O   0  0  0  0  0  0  0  0  0  0  0  0
    9.6495    8.6317   16.8332 N   0  0  0  0  0  0  0  0  0  0  0  0
    6.2934    8.6988   23.1988 O   0  0  0  0  0  0  0  0  0  0  0  0
    7.9806    8.6543   20.5437 C   0  0  0  0  0  0  0  0  0  0  0  0
   13.7270    5.7144   19.8610 O   0  0  0  0  0  0  0  0  0  0  0  0
    8.3351    5.5235   15.4478 C   0  0  0  0  0  0  0  0  0  0  0  0
    8.7700    7.8434   21.3915 C   0  0  0  0  0  0  0  0  0  0  0  0
   11.7856    6.8851   19.2401 C   0  0  0  0  0  0  0  0  0  0  0  0
   10.5281    7.4276   19.5649 C   0  0  0  0  0  0  0  0  0  0  0  0
   10.0256    7.2907   20.8484 C   0  0  0  0  0  0  0  0  0  0  0  0
    9.3113    5.3049   14.4911 C   0  0  0  0  0  0  0  0  0  0  0  0
    9.4607    7.5646   16.0139 C   0  0  0  0  0  0  0  0  0  0  0  0
   10.4192    7.3157   15.0955 C   0  0  0  0  0  0  0  0  0  0  0  0
   10.2489    6.4227   23.0218 N   0  0  0  0  0  0  0  0  0  0  0  0
    7.2472    8.0746   23.5050 C   0  0  0  0  0  0  0  0  0  0  0  0
    9.2051    6.9101   23.4604 C   0  0  0  0  0  0  0  0  0  0  0  0
   11.9646    6.0299   21.4251 C   0  0  0  0  0  0  0  0  0  0  0  0
  1  5  1  0
  1 13  1  0
  2 20  2  0
  2 28  1  0
  2 29  1  0
  3 19  4  0
  3 25  4  0
  4 23  4  0
  4 27  1  0
  4 30  4  0
  5 17  1  0
  6  8  1  0
  6 29  1  0
  7 24  4  0
  7 26  4  0
  8 28  1  0
  9 13  2  0
 10 18  1  0
 10 21  4  0
 10 30  4  0
 11 17  2  0
 12 18  1  0
 13 15  1  0
 14 24  1  0
 15 25  1  0
 16 28  2  0
 17 20  1  0
 19 24  4  0
 20 23  1  0
 21 22  4  0
 22 23  4  0
 25 26  4  0
 27 29  2  0
M  END
$$$$

 Created by Python create_sdf_string function

 30 33  0  0  0  0  0  0  0  0999 V2000
    8.3036    9.8571   18.4133 C   0  0  0  0  0  0  0  0  0  0  0  0
    8.3694    7.6612   22.6703 C   0  0  0  0  0  0  0  0  0  0  0  0
    8.4143    6.6863   16.2273 C   0  0  0  0  0  0  0  0  0  0  0  0
   10.7581    6.5674   21.7636 C   0  0  0  0  0  0  0  0  0  0  0  0
    8.4452    8.7960   19.2958 O   0  0  0  0  0  0  0  0  0  0  0  0
    8.7122    6.7842   24.8569 C   0  0  0  0  0  0  0  0  0  0  0  0
   10.3400    6.1726   14.3081 C   0  0  0  0  0  0  0  0  0  0  0  0
    7.4297    7.5873   24.8962 C   0  0  0  0  0  0  0  0  0  0  0  0
    8.1566   10.0536   16.0516 O   0  0  0  0  0  0  0  0  0  0  0  0
   12.4989    6.2074   20.1776 C   0  0  0  0  0  0  0  0  0  0  0  0
    6.9192    9.1053   20.9073 O   0  0  0  0  0  0  0  0  0  0  0  0
   14.3979    6.0729   18.7784 C   0  0  0  0  0  0  0  0  0  0  0  0
    8.6811    9.5354   16.9998 C   0  0  0  0  0  0  0  0  0  0  0  0
    9.2512    4.2713   13.7653 O   0  0  0  0  0  0  0  0  0  0  0  0
    9.6495    8.6317   16.8332 N   0  0  0  0  0  0  0  0  0  0  0  0
    6.2934    8.6988   23.1988 O   0  0  0  0  0  0  0  0  0  0  0  0
    7.9806    8.6543   20.5437 C   0  0  0  0  0  0  0  0  0  0  0  0
   13.7270    5.7144   19.8610 O   0  0  0  0  0  0  0  0  0  0  0  0
    8.3351    5.5235   15.4478 C   0  0  0  0  0  0  0  0  0  0  0  0
    8.7700    7.8434   21.3915 C   0  0  0  0  0  0  0  0  0  0  0  0
   11.7856    6.8851   19.2401 C   0  0  0  0  0  0  0  0  0  0  0  0
   10.5281    7.4276   19.5649 C   0  0  0  0  0  0  0  0  0  0  0  0
   10.0256    7.2907   20.8484 C   0  0  0  0  0  0  0  0  0  0  0  0
    9.3113    5.3049   14.4911 C   0  0  0  0  0  0  0  0  0  0  0  0
    9.4607    7.5646   16.0139 C   0  0  0  0  0  0  0  0  0  0  0  0
   10.4192    7.3157   15.0955 C   0  0  0  0  0  0  0  0  0  0  0  0
   10.2489    6.4227   23.0218 N   0  0  0  0  0  0  0  0  0  0  0  0
    7.2472    8.0746   23.5050 C   0  0  0  0  0  0  0  0  0  0  0  0
    9.2051    6.9101   23.4604 C   0  0  0  0  0  0  0  0  0  0  0  0
   11.9646    6.0299   21.4251 C   0  0  0  0  0  0  0  0  0  0  0  0
  1  5  1  0
  1 13  1  0
  2 20  2  0
  2 28  1  0
  2 29  1  0
  3 19  4  0
  3 25  4  0
  4 23  4  0
  4 27  1  0
  4 30  4  0
  5 17  1  0
  6  8  1  0
  6 29  1  0
  7 24  4  0
  7 26  4  0
  8 28  1  0
  9 13  2  0
 10 18  1  0
 10 21  4  0
 10 30  4  0
 11 17  2  0
 12 18  1  0
 13 15  1  0
 14 24  1  0
 15 25  1  0
 16 28  2  0
 17 20  1  0
 19 24  4  0
 20 23  1  0
 21 22  4  0
 22 23  4  0
 25 26  4  0
 27 29  2  0
M  END
$$$$

 Created by Python create_sdf_string function

 30 33  0  0  0  0  0  0  0  0999 V2000
    8.3036    9.8571   18.4133 C   0  0  0  0  0  0  0  0  0  0  0  0
    8.3694    7.6612   22.6703 C   0  0  0  0  0  0  0  0  0  0  0  0
    8.4143    6.6863   16.2273 C   0  0  0  0  0  0  0  0  0  0  0  0
   10.7581    6.5674   21.7636 C   0  0  0  0  0  0  0  0  0  0  0  0
    8.4452    8.7960   19.2958 O   0  0  0  0  0  0  0  0  0  0  0  0
    8.7122    6.7842   24.8569 C   0  0  0  0  0  0  0  0  0  0  0  0
   10.3400    6.1726   14.3081 C   0  0  0  0  0  0  0  0  0  0  0  0
    7.4297    7.5873   24.8962 C   0  0  0  0  0  0  0  0  0  0  0  0
    8.1566   10.0536   16.0516 O   0  0  0  0  0  0  0  0  0  0  0  0
   12.4989    6.2074   20.1776 C   0  0  0  0  0  0  0  0  0  0  0  0
    6.9192    9.1053   20.9073 O   0  0  0  0  0  0  0  0  0  0  0  0
   14.3979    6.0729   18.7784 C   0  0  0  0  0  0  0  0  0  0  0  0
    8.6811    9.5354   16.9998 C   0  0  0  0  0  0  0  0  0  0  0  0
    9.2512    4.2713   13.7653 O   0  0  0  0  0  0  0  0  0  0  0  0
    9.6495    8.6317   16.8332 N   0  0  0  0  0  0  0  0  0  0  0  0
    6.2934    8.6988   23.1988 O   0  0  0  0  0  0  0  0  0  0  0  0
    7.9806    8.6543   20.5437 C   0  0  0  0  0  0  0  0  0  0  0  0
   13.7270    5.7144   19.8610 O   0  0  0  0  0  0  0  0  0  0  0  0
    8.3351    5.5235   15.4478 C   0  0  0  0  0  0  0  0  0  0  0  0
    8.7700    7.8434   21.3915 C   0  0  0  0  0  0  0  0  0  0  0  0
   11.7856    6.8851   19.2401 C   0  0  0  0  0  0  0  0  0  0  0  0
   10.5281    7.4276   19.5649 C   0  0  0  0  0  0  0  0  0  0  0  0
   10.0256    7.2907   20.8484 C   0  0  0  0  0  0  0  0  0  0  0  0
    9.3113    5.3049   14.4911 C   0  0  0  0  0  0  0  0  0  0  0  0
    9.4607    7.5646   16.0139 C   0  0  0  0  0  0  0  0  0  0  0  0
   10.4192    7.3157   15.0955 C   0  0  0  0  0  0  0  0  0  0  0  0
   10.2489    6.4227   23.0218 N   0  0  0  0  0  0  0  0  0  0  0  0
    7.2472    8.0746   23.5050 C   0  0  0  0  0  0  0  0  0  0  0  0
    9.2051    6.9101   23.4604 C   0  0  0  0  0  0  0  0  0  0  0  0
   11.9646    6.0299   21.4251 C   0  0  0  0  0  0  0  0  0  0  0  0
  1  5  1  0
  1 13  1  0
  2 20  2  0
  2 28  1  0
  2 29  1  0
  3 19  4  0
  3 25  4  0
  4 23  4  0
  4 27  1  0
  4 30  4  0
  5 17  1  0
  6  8  1  0
  6 29  1  0
  7 24  4  0
  7 26  4  0
  8 28  1  0
  9 13  2  0
 10 18  1  0
 10 21  4  0
 10 30  4  0
 11 17  2  0
 12 18  1  0
 13 15  1  0
 14 24  1  0
 15 25  1  0
 16 28  2  0
 17 20  1  0
 19 24  4  0
 20 23  1  0
 21 22  4  0
 22 23  4  0
 25 26  4  0
 27 29  2  0
M  END
$$$$

 Created by Python create_sdf_string function

 30 33  0  0  0  0  0  0  0  0999 V2000
    8.3036    9.8571   18.4133 C   0  0  0  0  0  0  0  0  0  0  0  0
    8.3694    7.6612   22.6703 C   0  0  0  0  0  0  0  0  0  0  0  0
    8.4143    6.6863   16.2273 C   0  0  0  0  0  0  0  0  0  0  0  0
   10.7581    6.5674   21.7636 C   0  0  0  0  0  0  0  0  0  0  0  0
    8.4452    8.7960   19.2958 O   0  0  0  0  0  0  0  0  0  0  0  0
    8.7122    6.7842   24.8569 C   0  0  0  0  0  0  0  0  0  0  0  0
   10.3400    6.1726   14.3081 C   0  0  0  0  0  0  0  0  0  0  0  0
    7.4297    7.5873   24.8962 C   0  0  0  0  0  0  0  0  0  0  0  0
    8.1566   10.0536   16.0516 O   0  0  0  0  0  0  0  0  0  0  0  0
   12.4989    6.2074   20.1776 C   0  0  0  0  0  0  0  0  0  0  0  0
    6.9192    9.1053   20.9073 O   0  0  0  0  0  0  0  0  0  0  0  0
   14.3979    6.0729   18.7784 C   0  0  0  0  0  0  0  0  0  0  0  0
    8.6811    9.5354   16.9998 C   0  0  0  0  0  0  0  0  0  0  0  0
    9.2512    4.2713   13.7653 O   0  0  0  0  0  0  0  0  0  0  0  0
    9.6495    8.6317   16.8332 N   0  0  0  0  0  0  0  0  0  0  0  0
    6.2934    8.6988   23.1988 O   0  0  0  0  0  0  0  0  0  0  0  0
    7.9806    8.6543   20.5437 C   0  0  0  0  0  0  0  0  0  0  0  0
   13.7270    5.7144   19.8610 O   0  0  0  0  0  0  0  0  0  0  0  0
    8.3351    5.5235   15.4478 C   0  0  0  0  0  0  0  0  0  0  0  0
    8.7700    7.8434   21.3915 C   0  0  0  0  0  0  0  0  0  0  0  0
   11.7856    6.8851   19.2401 C   0  0  0  0  0  0  0  0  0  0  0  0
   10.5281    7.4276   19.5649 C   0  0  0  0  0  0  0  0  0  0  0  0
   10.0256    7.2907   20.8484 C   0  0  0  0  0  0  0  0  0  0  0  0
    9.3113    5.3049   14.4911 C   0  0  0  0  0  0  0  0  0  0  0  0
    9.4607    7.5646   16.0139 C   0  0  0  0  0  0  0  0  0  0  0  0
   10.4192    7.3157   15.0955 C   0  0  0  0  0  0  0  0  0  0  0  0
   10.2489    6.4227   23.0218 N   0  0  0  0  0  0  0  0  0  0  0  0
    7.2472    8.0746   23.5050 C   0  0  0  0  0  0  0  0  0  0  0  0
    9.2051    6.9101   23.4604 C   0  0  0  0  0  0  0  0  0  0  0  0
   11.9646    6.0299   21.4251 C   0  0  0  0  0  0  0  0  0  0  0  0
  1  5  1  0
  1 13  1  0
  2 20  2  0
  2 28  1  0
  2 29  1  0
  3 19  4  0
  3 25  4  0
  4 23  4  0
  4 27  1  0
  4 30  4  0
  5 17  1  0
  6  8  1  0
  6 29  1  0
  7 24  4  0
  7 26  4  0
  8 28  1  0
  9 13  2  0
 10 18  1  0
 10 21  4  0
 10 30  4  0
 11 17  2  0
 12 18  1  0
 13 15  1  0
 14 24  1  0
 15 25  1  0
 16 28  2  0
 17 20  1  0
 19 24  4  0
 20 23  1  0
 21 22  4  0
 22 23  4  0
 25 26  4  0
 27 29  2  0
M  END
$$$$

 Created by Python create_sdf_string function

 30 33  0  0  0  0  0  0  0  0999 V2000
    8.3036    9.8571   18.4133 C   0  0  0  0  0  0  0  0  0  0  0  0
    8.3694    7.6612   22.6703 C   0  0  0  0  0  0  0  0  0  0  0  0
    8.4143    6.6863   16.2273 C   0  0  0  0  0  0  0  0  0  0  0  0
   10.7581    6.5674   21.7636 C   0  0  0  0  0  0  0  0  0  0  0  0
    8.4452    8.7960   19.2958 O   0  0  0  0  0  0  0  0  0  0  0  0
    8.7122    6.7842   24.8569 C   0  0  0  0  0  0  0  0  0  0  0  0
   10.3400    6.1726   14.3081 C   0  0  0  0  0  0  0  0  0  0  0  0
    7.4297    7.5873   24.8962 C   0  0  0  0  0  0  0  0  0  0  0  0
    8.1566   10.0536   16.0516 O   0  0  0  0  0  0  0  0  0  0  0  0
   12.4989    6.2074   20.1776 C   0  0  0  0  0  0  0  0  0  0  0  0
    6.9192    9.1053   20.9073 O   0  0  0  0  0  0  0  0  0  0  0  0
   14.3979    6.0729   18.7784 C   0  0  0  0  0  0  0  0  0  0  0  0
    8.6811    9.5354   16.9998 C   0  0  0  0  0  0  0  0  0  0  0  0
    9.2512    4.2713   13.7653 O   0  0  0  0  0  0  0  0  0  0  0  0
    9.6495    8.6317   16.8332 N   0  0  0  0  0  0  0  0  0  0  0  0
    6.2934    8.6988   23.1988 O   0  0  0  0  0  0  0  0  0  0  0  0
    7.9806    8.6543   20.5437 C   0  0  0  0  0  0  0  0  0  0  0  0
   13.7270    5.7144   19.8610 O   0  0  0  0  0  0  0  0  0  0  0  0
    8.3351    5.5235   15.4478 C   0  0  0  0  0  0  0  0  0  0  0  0
    8.7700    7.8434   21.3915 C   0  0  0  0  0  0  0  0  0  0  0  0
   11.7856    6.8851   19.2401 C   0  0  0  0  0  0  0  0  0  0  0  0
   10.5281    7.4276   19.5649 C   0  0  0  0  0  0  0  0  0  0  0  0
   10.0256    7.2907   20.8484 C   0  0  0  0  0  0  0  0  0  0  0  0
    9.3113    5.3049   14.4911 C   0  0  0  0  0  0  0  0  0  0  0  0
    9.4607    7.5646   16.0139 C   0  0  0  0  0  0  0  0  0  0  0  0
   10.4192    7.3157   15.0955 C   0  0  0  0  0  0  0  0  0  0  0  0
   10.2489    6.4227   23.0218 N   0  0  0  0  0  0  0  0  0  0  0  0
    7.2472    8.0746   23.5050 C   0  0  0  0  0  0  0  0  0  0  0  0
    9.2051    6.9101   23.4604 C   0  0  0  0  0  0  0  0  0  0  0  0
   11.9646    6.0299   21.4251 C   0  0  0  0  0  0  0  0  0  0  0  0
  1  5  1  0
  1 13  1  0
  2 20  2  0
  2 28  1  0
  2 29  1  0
  3 19  4  0
  3 25  4  0
  4 23  4  0
  4 27  1  0
  4 30  4  0
  5 17  1  0
  6  8  1  0
  6 29  1  0
  7 24  4  0
  7 26  4  0
  8 28  1  0
  9 13  2  0
 10 18  1  0
 10 21  4  0
 10 30  4  0
 11 17  2  0
 12 18  1  0
 13 15  1  0
 14 24  1  0
 15 25  1  0
 16 28  2  0
 17 20  1  0
 19 24  4  0
 20 23  1  0
 21 22  4  0
 22 23  4  0
 25 26  4  0
 27 29  2  0
M  END
$$$$

 Created by Python create_sdf_string function

 30 33  0  0  0  0  0  0  0  0999 V2000
    8.3036    9.8571   18.4133 C   0  0  0  0  0  0  0  0  0  0  0  0
    8.3694    7.6612   22.6703 C   0  0  0  0  0  0  0  0  0  0  0  0
    8.4143    6.6863   16.2273 C   0  0  0  0  0  0  0  0  0  0  0  0
   10.7581    6.5674   21.7636 C   0  0  0  0  0  0  0  0  0  0  0  0
    8.4452    8.7960   19.2958 O   0  0  0  0  0  0  0  0  0  0  0  0
    8.7122    6.7842   24.8569 C   0  0  0  0  0  0  0  0  0  0  0  0
   10.3400    6.1726   14.3081 C   0  0  0  0  0  0  0  0  0  0  0  0
    7.4297    7.5873   24.8962 C   0  0  0  0  0  0  0  0  0  0  0  0
    8.1566   10.0536   16.0516 O   0  0  0  0  0  0  0  0  0  0  0  0
   12.4989    6.2074   20.1776 C   0  0  0  0  0  0  0  0  0  0  0  0
    6.9192    9.1053   20.9073 O   0  0  0  0  0  0  0  0  0  0  0  0
   14.3979    6.0729   18.7784 C   0  0  0  0  0  0  0  0  0  0  0  0
    8.6811    9.5354   16.9998 C   0  0  0  0  0  0  0  0  0  0  0  0
    9.2512    4.2713   13.7653 O   0  0  0  0  0  0  0  0  0  0  0  0
    9.6495    8.6317   16.8332 N   0  0  0  0  0  0  0  0  0  0  0  0
    6.2934    8.6988   23.1988 O   0  0  0  0  0  0  0  0  0  0  0  0
    7.9806    8.6543   20.5437 C   0  0  0  0  0  0  0  0  0  0  0  0
   13.7270    5.7144   19.8610 O   0  0  0  0  0  0  0  0  0  0  0  0
    8.3351    5.5235   15.4478 C   0  0  0  0  0  0  0  0  0  0  0  0
    8.7700    7.8434   21.3915 C   0  0  0  0  0  0  0  0  0  0  0  0
   11.7856    6.8851   19.2401 C   0  0  0  0  0  0  0  0  0  0  0  0
   10.5281    7.4276   19.5649 C   0  0  0  0  0  0  0  0  0  0  0  0
   10.0256    7.2907   20.8484 C   0  0  0  0  0  0  0  0  0  0  0  0
    9.3113    5.3049   14.4911 C   0  0  0  0  0  0  0  0  0  0  0  0
    9.4607    7.5646   16.0139 C   0  0  0  0  0  0  0  0  0  0  0  0
   10.4192    7.3157   15.0955 C   0  0  0  0  0  0  0  0  0  0  0  0
   10.2489    6.4227   23.0218 N   0  0  0  0  0  0  0  0  0  0  0  0
    7.2472    8.0746   23.5050 C   0  0  0  0  0  0  0  0  0  0  0  0
    9.2051    6.9101   23.4604 C   0  0  0  0  0  0  0  0  0  0  0  0
   11.9646    6.0299   21.4251 C   0  0  0  0  0  0  0  0  0  0  0  0
  1  5  1  0
  1 13  1  0
  2 20  2  0
  2 28  1  0
  2 29  1  0
  3 19  4  0
  3 25  4  0
  4 23  4  0
  4 27  1  0
  4 30  4  0
  5 17  1  0
  6  8  1  0
  6 29  1  0
  7 24  4  0
  7 26  4  0
  8 28  1  0
  9 13  2  0
 10 18  1  0
 10 21  4  0
 10 30  4  0
 11 17  2  0
 12 18  1  0
 13 15  1  0
 14 24  1  0
 15 25  1  0
 16 28  2  0
 17 20  1  0
 19 24  4  0
 20 23  1  0
 21 22  4  0
 22 23  4  0
 25 26  4  0
 27 29  2  0
M  END
$$$$

 Created by Python create_sdf_string function

 30 33  0  0  0  0  0  0  0  0999 V2000
    8.3036    9.8571   18.4133 C   0  0  0  0  0  0  0  0  0  0  0  0
    8.3694    7.6612   22.6703 C   0  0  0  0  0  0  0  0  0  0  0  0
    8.4143    6.6863   16.2273 C   0  0  0  0  0  0  0  0  0  0  0  0
   10.7581    6.5674   21.7636 C   0  0  0  0  0  0  0  0  0  0  0  0
    8.4452    8.7960   19.2958 O   0  0  0  0  0  0  0  0  0  0  0  0
    8.7122    6.7842   24.8569 C   0  0  0  0  0  0  0  0  0  0  0  0
   10.3400    6.1726   14.3081 C   0  0  0  0  0  0  0  0  0  0  0  0
    7.4297    7.5873   24.8962 C   0  0  0  0  0  0  0  0  0  0  0  0
    8.1566   10.0536   16.0516 O   0  0  0  0  0  0  0  0  0  0  0  0
   12.4989    6.2074   20.1776 C   0  0  0  0  0  0  0  0  0  0  0  0
    6.9192    9.1053   20.9073 O   0  0  0  0  0  0  0  0  0  0  0  0
   14.3979    6.0729   18.7784 C   0  0  0  0  0  0  0  0  0  0  0  0
    8.6811    9.5354   16.9998 C   0  0  0  0  0  0  0  0  0  0  0  0
    9.2512    4.2713   13.7653 O   0  0  0  0  0  0  0  0  0  0  0  0
    9.6495    8.6317   16.8332 N   0  0  0  0  0  0  0  0  0  0  0  0
    6.2934    8.6988   23.1988 O   0  0  0  0  0  0  0  0  0  0  0  0
    7.9806    8.6543   20.5437 C   0  0  0  0  0  0  0  0  0  0  0  0
   13.7270    5.7144   19.8610 O   0  0  0  0  0  0  0  0  0  0  0  0
    8.3351    5.5235   15.4478 C   0  0  0  0  0  0  0  0  0  0  0  0
    8.7700    7.8434   21.3915 C   0  0  0  0  0  0  0  0  0  0  0  0
   11.7856    6.8851   19.2401 C   0  0  0  0  0  0  0  0  0  0  0  0
   10.5281    7.4276   19.5649 C   0  0  0  0  0  0  0  0  0  0  0  0
   10.0256    7.2907   20.8484 C   0  0  0  0  0  0  0  0  0  0  0  0
    9.3113    5.3049   14.4911 C   0  0  0  0  0  0  0  0  0  0  0  0
    9.4607    7.5646   16.0139 C   0  0  0  0  0  0  0  0  0  0  0  0
   10.4192    7.3157   15.0955 C   0  0  0  0  0  0  0  0  0  0  0  0
   10.2489    6.4227   23.0218 N   0  0  0  0  0  0  0  0  0  0  0  0
    7.2472    8.0746   23.5050 C   0  0  0  0  0  0  0  0  0  0  0  0
    9.2051    6.9101   23.4604 C   0  0  0  0  0  0  0  0  0  0  0  0
   11.9646    6.0299   21.4251 C   0  0  0  0  0  0  0  0  0  0  0  0
  1  5  1  0
  1 13  1  0
  2 20  2  0
  2 28  1  0
  2 29  1  0
  3 19  4  0
  3 25  4  0
  4 23  4  0
  4 27  1  0
  4 30  4  0
  5 17  1  0
  6  8  1  0
  6 29  1  0
  7 24  4  0
  7 26  4  0
  8 28  1  0
  9 13  2  0
 10 18  1  0
 10 21  4  0
 10 30  4  0
 11 17  2  0
 12 18  1  0
 13 15  1  0
 14 24  1  0
 15 25  1  0
 16 28  2  0
 17 20  1  0
 19 24  4  0
 20 23  1  0
 21 22  4  0
 22 23  4  0
 25 26  4  0
 27 29  2  0
M  END
$$$$

 Created by Python create_sdf_string function

 30 33  0  0  0  0  0  0  0  0999 V2000
    8.3036    9.8571   18.4133 C   0  0  0  0  0  0  0  0  0  0  0  0
    8.3694    7.6612   22.6703 C   0  0  0  0  0  0  0  0  0  0  0  0
    8.4143    6.6863   16.2273 C   0  0  0  0  0  0  0  0  0  0  0  0
   10.7581    6.5674   21.7636 C   0  0  0  0  0  0  0  0  0  0  0  0
    8.4452    8.7960   19.2958 O   0  0  0  0  0  0  0  0  0  0  0  0
    8.7122    6.7842   24.8569 C   0  0  0  0  0  0  0  0  0  0  0  0
   10.3400    6.1726   14.3081 C   0  0  0  0  0  0  0  0  0  0  0  0
    7.4297    7.5873   24.8962 C   0  0  0  0  0  0  0  0  0  0  0  0
    8.1566   10.0536   16.0516 O   0  0  0  0  0  0  0  0  0  0  0  0
   12.4989    6.2074   20.1776 C   0  0  0  0  0  0  0  0  0  0  0  0
    6.9192    9.1053   20.9073 O   0  0  0  0  0  0  0  0  0  0  0  0
   14.3979    6.0729   18.7784 C   0  0  0  0  0  0  0  0  0  0  0  0
    8.6811    9.5354   16.9998 C   0  0  0  0  0  0  0  0  0  0  0  0
    9.2512    4.2713   13.7653 O   0  0  0  0  0  0  0  0  0  0  0  0
    9.6495    8.6317   16.8332 N   0  0  0  0  0  0  0  0  0  0  0  0
    6.2934    8.6988   23.1988 O   0  0  0  0  0  0  0  0  0  0  0  0
    7.9806    8.6543   20.5437 C   0  0  0  0  0  0  0  0  0  0  0  0
   13.7270    5.7144   19.8610 O   0  0  0  0  0  0  0  0  0  0  0  0
    8.3351    5.5235   15.4478 C   0  0  0  0  0  0  0  0  0  0  0  0
    8.7700    7.8434   21.3915 C   0  0  0  0  0  0  0  0  0  0  0  0
   11.7856    6.8851   19.2401 C   0  0  0  0  0  0  0  0  0  0  0  0
   10.5281    7.4276   19.5649 C   0  0  0  0  0  0  0  0  0  0  0  0
   10.0256    7.2907   20.8484 C   0  0  0  0  0  0  0  0  0  0  0  0
    9.3113    5.3049   14.4911 C   0  0  0  0  0  0  0  0  0  0  0  0
    9.4607    7.5646   16.0139 C   0  0  0  0  0  0  0  0  0  0  0  0
   10.4192    7.3157   15.0955 C   0  0  0  0  0  0  0  0  0  0  0  0
   10.2489    6.4227   23.0218 N   0  0  0  0  0  0  0  0  0  0  0  0
    7.2472    8.0746   23.5050 C   0  0  0  0  0  0  0  0  0  0  0  0
    9.2051    6.9101   23.4604 C   0  0  0  0  0  0  0  0  0  0  0  0
   11.9646    6.0299   21.4251 C   0  0  0  0  0  0  0  0  0  0  0  0
  1  5  1  0
  1 13  1  0
  2 20  2  0
  2 28  1  0
  2 29  1  0
  3 19  4  0
  3 25  4  0
  4 23  4  0
  4 27  1  0
  4 30  4  0
  5 17  1  0
  6  8  1  0
  6 29  1  0
  7 24  4  0
  7 26  4  0
  8 28  1  0
  9 13  2  0
 10 18  1  0
 10 21  4  0
 10 30  4  0
 11 17  2  0
 12 18  1  0
 13 15  1  0
 14 24  1  0
 15 25  1  0
 16 28  2  0
 17 20  1  0
 19 24  4  0
 20 23  1  0
 21 22  4  0
 22 23  4  0
 25 26  4  0
 27 29  2  0
M  END
$$$$

 Created by Python create_sdf_string function

 30 33  0  0  0  0  0  0  0  0999 V2000
    8.3036    9.8571   18.4133 C   0  0  0  0  0  0  0  0  0  0  0  0
    8.3694    7.6612   22.6703 C   0  0  0  0  0  0  0  0  0  0  0  0
    8.4143    6.6863   16.2273 C   0  0  0  0  0  0  0  0  0  0  0  0
   10.7581    6.5674   21.7636 C   0  0  0  0  0  0  0  0  0  0  0  0
    8.4452    8.7960   19.2958 O   0  0  0  0  0  0  0  0  0  0  0  0
    8.7122    6.7842   24.8569 C   0  0  0  0  0  0  0  0  0  0  0  0
   10.3400    6.1726   14.3081 C   0  0  0  0  0  0  0  0  0  0  0  0
    7.4297    7.5873   24.8962 C   0  0  0  0  0  0  0  0  0  0  0  0
    8.1566   10.0536   16.0516 O   0  0  0  0  0  0  0  0  0  0  0  0
   12.4989    6.2074   20.1776 C   0  0  0  0  0  0  0  0  0  0  0  0
    6.9192    9.1053   20.9073 O   0  0  0  0  0  0  0  0  0  0  0  0
   14.3979    6.0729   18.7784 C   0  0  0  0  0  0  0  0  0  0  0  0
    8.6811    9.5354   16.9998 C   0  0  0  0  0  0  0  0  0  0  0  0
    9.2512    4.2713   13.7653 O   0  0  0  0  0  0  0  0  0  0  0  0
    9.6495    8.6317   16.8332 N   0  0  0  0  0  0  0  0  0  0  0  0
    6.2934    8.6988   23.1988 O   0  0  0  0  0  0  0  0  0  0  0  0
    7.9806    8.6543   20.5437 C   0  0  0  0  0  0  0  0  0  0  0  0
   13.7270    5.7144   19.8610 O   0  0  0  0  0  0  0  0  0  0  0  0
    8.3351    5.5235   15.4478 C   0  0  0  0  0  0  0  0  0  0  0  0
    8.7700    7.8434   21.3915 C   0  0  0  0  0  0  0  0  0  0  0  0
   11.7856    6.8851   19.2401 C   0  0  0  0  0  0  0  0  0  0  0  0
   10.5281    7.4276   19.5649 C   0  0  0  0  0  0  0  0  0  0  0  0
   10.0256    7.2907   20.8484 C   0  0  0  0  0  0  0  0  0  0  0  0
    9.3113    5.3049   14.4911 C   0  0  0  0  0  0  0  0  0  0  0  0
    9.4607    7.5646   16.0139 C   0  0  0  0  0  0  0  0  0  0  0  0
   10.4192    7.3157   15.0955 C   0  0  0  0  0  0  0  0  0  0  0  0
   10.2489    6.4227   23.0218 N   0  0  0  0  0  0  0  0  0  0  0  0
    7.2472    8.0746   23.5050 C   0  0  0  0  0  0  0  0  0  0  0  0
    9.2051    6.9101   23.4604 C   0  0  0  0  0  0  0  0  0  0  0  0
   11.9646    6.0299   21.4251 C   0  0  0  0  0  0  0  0  0  0  0  0
  1  5  1  0
  1 13  1  0
  2 20  2  0
  2 28  1  0
  2 29  1  0
  3 19  4  0
  3 25  4  0
  4 23  4  0
  4 27  1  0
  4 30  4  0
  5 17  1  0
  6  8  1  0
  6 29  1  0
  7 24  4  0
  7 26  4  0
  8 28  1  0
  9 13  2  0
 10 18  1  0
 10 21  4  0
 10 30  4  0
 11 17  2  0
 12 18  1  0
 13 15  1  0
 14 24  1  0
 15 25  1  0
 16 28  2  0
 17 20  1  0
 19 24  4  0
 20 23  1  0
 21 22  4  0
 22 23  4  0
 25 26  4  0
 27 29  2  0
M  END
$$$$

 Created by Python create_sdf_string function

 30 33  0  0  0  0  0  0  0  0999 V2000
    8.3036    9.8571   18.4133 C   0  0  0  0  0  0  0  0  0  0  0  0
    8.3694    7.6612   22.6703 C   0  0  0  0  0  0  0  0  0  0  0  0
    8.4143    6.6863   16.2273 C   0  0  0  0  0  0  0  0  0  0  0  0
   10.7581    6.5674   21.7636 C   0  0  0  0  0  0  0  0  0  0  0  0
    8.4452    8.7960   19.2958 O   0  0  0  0  0  0  0  0  0  0  0  0
    8.7122    6.7842   24.8569 C   0  0  0  0  0  0  0  0  0  0  0  0
   10.3400    6.1726   14.3081 C   0  0  0  0  0  0  0  0  0  0  0  0
    7.4297    7.5873   24.8962 C   0  0  0  0  0  0  0  0  0  0  0  0
    8.1566   10.0536   16.0516 O   0  0  0  0  0  0  0  0  0  0  0  0
   12.4989    6.2074   20.1776 C   0  0  0  0  0  0  0  0  0  0  0  0
    6.9192    9.1053   20.9073 O   0  0  0  0  0  0  0  0  0  0  0  0
   14.3979    6.0729   18.7784 C   0  0  0  0  0  0  0  0  0  0  0  0
    8.6811    9.5354   16.9998 C   0  0  0  0  0  0  0  0  0  0  0  0
    9.2512    4.2713   13.7653 O   0  0  0  0  0  0  0  0  0  0  0  0
    9.6495    8.6317   16.8332 N   0  0  0  0  0  0  0  0  0  0  0  0
    6.2934    8.6988   23.1988 O   0  0  0  0  0  0  0  0  0  0  0  0
    7.9806    8.6543   20.5437 C   0  0  0  0  0  0  0  0  0  0  0  0
   13.7270    5.7144   19.8610 O   0  0  0  0  0  0  0  0  0  0  0  0
    8.3351    5.5235   15.4478 C   0  0  0  0  0  0  0  0  0  0  0  0
    8.7700    7.8434   21.3915 C   0  0  0  0  0  0  0  0  0  0  0  0
   11.7856    6.8851   19.2401 C   0  0  0  0  0  0  0  0  0  0  0  0
   10.5281    7.4276   19.5649 C   0  0  0  0  0  0  0  0  0  0  0  0
   10.0256    7.2907   20.8484 C   0  0  0  0  0  0  0  0  0  0  0  0
    9.3113    5.3049   14.4911 C   0  0  0  0  0  0  0  0  0  0  0  0
    9.4607    7.5646   16.0139 C   0  0  0  0  0  0  0  0  0  0  0  0
   10.4192    7.3157   15.0955 C   0  0  0  0  0  0  0  0  0  0  0  0
   10.2489    6.4227   23.0218 N   0  0  0  0  0  0  0  0  0  0  0  0
    7.2472    8.0746   23.5050 C   0  0  0  0  0  0  0  0  0  0  0  0
    9.2051    6.9101   23.4604 C   0  0  0  0  0  0  0  0  0  0  0  0
   11.9646    6.0299   21.4251 C   0  0  0  0  0  0  0  0  0  0  0  0
  1  5  1  0
  1 13  1  0
  2 20  2  0
  2 28  1  0
  2 29  1  0
  3 19  4  0
  3 25  4  0
  4 23  4  0
  4 27  1  0
  4 30  4  0
  5 17  1  0
  6  8  1  0
  6 29  1  0
  7 24  4  0
  7 26  4  0
  8 28  1  0
  9 13  2  0
 10 18  1  0
 10 21  4  0
 10 30  4  0
 11 17  2  0
 12 18  1  0
 13 15  1  0
 14 24  1  0
 15 25  1  0
 16 28  2  0
 17 20  1  0
 19 24  4  0
 20 23  1  0
 21 22  4  0
 22 23  4  0
 25 26  4  0
 27 29  2  0
M  END
$$$$

 Created by Python create_sdf_string function

 30 33  0  0  0  0  0  0  0  0999 V2000
    8.3036    9.8571   18.4133 C   0  0  0  0  0  0  0  0  0  0  0  0
    8.3694    7.6612   22.6703 C   0  0  0  0  0  0  0  0  0  0  0  0
    8.4143    6.6863   16.2273 C   0  0  0  0  0  0  0  0  0  0  0  0
   10.7581    6.5674   21.7636 C   0  0  0  0  0  0  0  0  0  0  0  0
    8.4452    8.7960   19.2958 O   0  0  0  0  0  0  0  0  0  0  0  0
    8.7122    6.7842   24.8569 C   0  0  0  0  0  0  0  0  0  0  0  0
   10.3400    6.1726   14.3081 C   0  0  0  0  0  0  0  0  0  0  0  0
    7.4297    7.5873   24.8962 C   0  0  0  0  0  0  0  0  0  0  0  0
    8.1566   10.0536   16.0516 O   0  0  0  0  0  0  0  0  0  0  0  0
   12.4989    6.2074   20.1776 C   0  0  0  0  0  0  0  0  0  0  0  0
    6.9192    9.1053   20.9073 O   0  0  0  0  0  0  0  0  0  0  0  0
   14.3979    6.0729   18.7784 C   0  0  0  0  0  0  0  0  0  0  0  0
    8.6811    9.5354   16.9998 C   0  0  0  0  0  0  0  0  0  0  0  0
    9.2512    4.2713   13.7653 O   0  0  0  0  0  0  0  0  0  0  0  0
    9.6495    8.6317   16.8332 N   0  0  0  0  0  0  0  0  0  0  0  0
    6.2934    8.6988   23.1988 O   0  0  0  0  0  0  0  0  0  0  0  0
    7.9806    8.6543   20.5437 C   0  0  0  0  0  0  0  0  0  0  0  0
   13.7270    5.7144   19.8610 O   0  0  0  0  0  0  0  0  0  0  0  0
    8.3351    5.5235   15.4478 C   0  0  0  0  0  0  0  0  0  0  0  0
    8.7700    7.8434   21.3915 C   0  0  0  0  0  0  0  0  0  0  0  0
   11.7856    6.8851   19.2401 C   0  0  0  0  0  0  0  0  0  0  0  0
   10.5281    7.4276   19.5649 C   0  0  0  0  0  0  0  0  0  0  0  0
   10.0256    7.2907   20.8484 C   0  0  0  0  0  0  0  0  0  0  0  0
    9.3113    5.3049   14.4911 C   0  0  0  0  0  0  0  0  0  0  0  0
    9.4607    7.5646   16.0139 C   0  0  0  0  0  0  0  0  0  0  0  0
   10.4192    7.3157   15.0955 C   0  0  0  0  0  0  0  0  0  0  0  0
   10.2489    6.4227   23.0218 N   0  0  0  0  0  0  0  0  0  0  0  0
    7.2472    8.0746   23.5050 C   0  0  0  0  0  0  0  0  0  0  0  0
    9.2051    6.9101   23.4604 C   0  0  0  0  0  0  0  0  0  0  0  0
   11.9646    6.0299   21.4251 C   0  0  0  0  0  0  0  0  0  0  0  0
  1  5  1  0
  1 13  1  0
  2 20  2  0
  2 28  1  0
  2 29  1  0
  3 19  4  0
  3 25  4  0
  4 23  4  0
  4 27  1  0
  4 30  4  0
  5 17  1  0
  6  8  1  0
  6 29  1  0
  7 24  4  0
  7 26  4  0
  8 28  1  0
  9 13  2  0
 10 18  1  0
 10 21  4  0
 10 30  4  0
 11 17  2  0
 12 18  1  0
 13 15  1  0
 14 24  1  0
 15 25  1  0
 16 28  2  0
 17 20  1  0
 19 24  4  0
 20 23  1  0
 21 22  4  0
 22 23  4  0
 25 26  4  0
 27 29  2  0
M  END
$$$$

 Created by Python create_sdf_string function

 30 33  0  0  0  0  0  0  0  0999 V2000
    8.3036    9.8571   18.4133 C   0  0  0  0  0  0  0  0  0  0  0  0
    8.3694    7.6612   22.6703 C   0  0  0  0  0  0  0  0  0  0  0  0
    8.4143    6.6863   16.2273 C   0  0  0  0  0  0  0  0  0  0  0  0
   10.7581    6.5674   21.7636 C   0  0  0  0  0  0  0  0  0  0  0  0
    8.4452    8.7960   19.2958 O   0  0  0  0  0  0  0  0  0  0  0  0
    8.7122    6.7842   24.8569 C   0  0  0  0  0  0  0  0  0  0  0  0
   10.3400    6.1726   14.3081 C   0  0  0  0  0  0  0  0  0  0  0  0
    7.4297    7.5873   24.8962 C   0  0  0  0  0  0  0  0  0  0  0  0
    8.1566   10.0536   16.0516 O   0  0  0  0  0  0  0  0  0  0  0  0
   12.4989    6.2074   20.1776 C   0  0  0  0  0  0  0  0  0  0  0  0
    6.9192    9.1053   20.9073 O   0  0  0  0  0  0  0  0  0  0  0  0
   14.3979    6.0729   18.7784 C   0  0  0  0  0  0  0  0  0  0  0  0
    8.6811    9.5354   16.9998 C   0  0  0  0  0  0  0  0  0  0  0  0
    9.2512    4.2713   13.7653 O   0  0  0  0  0  0  0  0  0  0  0  0
    9.6495    8.6317   16.8332 N   0  0  0  0  0  0  0  0  0  0  0  0
    6.2934    8.6988   23.1988 O   0  0  0  0  0  0  0  0  0  0  0  0
    7.9806    8.6543   20.5437 C   0  0  0  0  0  0  0  0  0  0  0  0
   13.7270    5.7144   19.8610 O   0  0  0  0  0  0  0  0  0  0  0  0
    8.3351    5.5235   15.4478 C   0  0  0  0  0  0  0  0  0  0  0  0
    8.7700    7.8434   21.3915 C   0  0  0  0  0  0  0  0  0  0  0  0
   11.7856    6.8851   19.2401 C   0  0  0  0  0  0  0  0  0  0  0  0
   10.5281    7.4276   19.5649 C   0  0  0  0  0  0  0  0  0  0  0  0
   10.0256    7.2907   20.8484 C   0  0  0  0  0  0  0  0  0  0  0  0
    9.3113    5.3049   14.4911 C   0  0  0  0  0  0  0  0  0  0  0  0
    9.4607    7.5646   16.0139 C   0  0  0  0  0  0  0  0  0  0  0  0
   10.4192    7.3157   15.0955 C   0  0  0  0  0  0  0  0  0  0  0  0
   10.2489    6.4227   23.0218 N   0  0  0  0  0  0  0  0  0  0  0  0
    7.2472    8.0746   23.5050 C   0  0  0  0  0  0  0  0  0  0  0  0
    9.2051    6.9101   23.4604 C   0  0  0  0  0  0  0  0  0  0  0  0
   11.9646    6.0299   21.4251 C   0  0  0  0  0  0  0  0  0  0  0  0
  1  5  1  0
  1 13  1  0
  2 20  2  0
  2 28  1  0
  2 29  1  0
  3 19  4  0
  3 25  4  0
  4 23  4  0
  4 27  1  0
  4 30  4  0
  5 17  1  0
  6  8  1  0
  6 29  1  0
  7 24  4  0
  7 26  4  0
  8 28  1  0
  9 13  2  0
 10 18  1  0
 10 21  4  0
 10 30  4  0
 11 17  2  0
 12 18  1  0
 13 15  1  0
 14 24  1  0
 15 25  1  0
 16 28  2  0
 17 20  1  0
 19 24  4  0
 20 23  1  0
 21 22  4  0
 22 23  4  0
 25 26  4  0
 27 29  2  0
M  END
$$$$

 Created by Python create_sdf_string function

 30 33  0  0  0  0  0  0  0  0999 V2000
    8.3036    9.8571   18.4133 C   0  0  0  0  0  0  0  0  0  0  0  0
    8.3694    7.6612   22.6703 C   0  0  0  0  0  0  0  0  0  0  0  0
    8.4143    6.6863   16.2273 C   0  0  0  0  0  0  0  0  0  0  0  0
   10.7581    6.5674   21.7636 C   0  0  0  0  0  0  0  0  0  0  0  0
    8.4452    8.7960   19.2958 O   0  0  0  0  0  0  0  0  0  0  0  0
    8.7122    6.7842   24.8569 C   0  0  0  0  0  0  0  0  0  0  0  0
   10.3400    6.1726   14.3081 C   0  0  0  0  0  0  0  0  0  0  0  0
    7.4297    7.5873   24.8962 C   0  0  0  0  0  0  0  0  0  0  0  0
    8.1566   10.0536   16.0516 O   0  0  0  0  0  0  0  0  0  0  0  0
   12.4989    6.2074   20.1776 C   0  0  0  0  0  0  0  0  0  0  0  0
    6.9192    9.1053   20.9073 O   0  0  0  0  0  0  0  0  0  0  0  0
   14.3979    6.0729   18.7784 C   0  0  0  0  0  0  0  0  0  0  0  0
    8.6811    9.5354   16.9998 C   0  0  0  0  0  0  0  0  0  0  0  0
    9.2512    4.2713   13.7653 O   0  0  0  0  0  0  0  0  0  0  0  0
    9.6495    8.6317   16.8332 N   0  0  0  0  0  0  0  0  0  0  0  0
    6.2934    8.6988   23.1988 O   0  0  0  0  0  0  0  0  0  0  0  0
    7.9806    8.6543   20.5437 C   0  0  0  0  0  0  0  0  0  0  0  0
   13.7270    5.7144   19.8610 O   0  0  0  0  0  0  0  0  0  0  0  0
    8.3351    5.5235   15.4478 C   0  0  0  0  0  0  0  0  0  0  0  0
    8.7700    7.8434   21.3915 C   0  0  0  0  0  0  0  0  0  0  0  0
   11.7856    6.8851   19.2401 C   0  0  0  0  0  0  0  0  0  0  0  0
   10.5281    7.4276   19.5649 C   0  0  0  0  0  0  0  0  0  0  0  0
   10.0256    7.2907   20.8484 C   0  0  0  0  0  0  0  0  0  0  0  0
    9.3113    5.3049   14.4911 C   0  0  0  0  0  0  0  0  0  0  0  0
    9.4607    7.5646   16.0139 C   0  0  0  0  0  0  0  0  0  0  0  0
   10.4192    7.3157   15.0955 C   0  0  0  0  0  0  0  0  0  0  0  0
   10.2489    6.4227   23.0218 N   0  0  0  0  0  0  0  0  0  0  0  0
    7.2472    8.0746   23.5050 C   0  0  0  0  0  0  0  0  0  0  0  0
    9.2051    6.9101   23.4604 C   0  0  0  0  0  0  0  0  0  0  0  0
   11.9646    6.0299   21.4251 C   0  0  0  0  0  0  0  0  0  0  0  0
  1  5  1  0
  1 13  1  0
  2 20  2  0
  2 28  1  0
  2 29  1  0
  3 19  4  0
  3 25  4  0
  4 23  4  0
  4 27  1  0
  4 30  4  0
  5 17  1  0
  6  8  1  0
  6 29  1  0
  7 24  4  0
  7 26  4  0
  8 28  1  0
  9 13  2  0
 10 18  1  0
 10 21  4  0
 10 30  4  0
 11 17  2  0
 12 18  1  0
 13 15  1  0
 14 24  1  0
 15 25  1  0
 16 28  2  0
 17 20  1  0
 19 24  4  0
 20 23  1  0
 21 22  4  0
 22 23  4  0
 25 26  4  0
 27 29  2  0
M  END
$$$$

 Created by Python create_sdf_string function

 30 33  0  0  0  0  0  0  0  0999 V2000
    8.3036    9.8571   18.4133 C   0  0  0  0  0  0  0  0  0  0  0  0
    8.3694    7.6612   22.6703 C   0  0  0  0  0  0  0  0  0  0  0  0
    8.4143    6.6863   16.2273 C   0  0  0  0  0  0  0  0  0  0  0  0
   10.7581    6.5674   21.7636 C   0  0  0  0  0  0  0  0  0  0  0  0
    8.4452    8.7960   19.2958 O   0  0  0  0  0  0  0  0  0  0  0  0
    8.7122    6.7842   24.8569 C   0  0  0  0  0  0  0  0  0  0  0  0
   10.3400    6.1726   14.3081 C   0  0  0  0  0  0  0  0  0  0  0  0
    7.4297    7.5873   24.8962 C   0  0  0  0  0  0  0  0  0  0  0  0
    8.1566   10.0536   16.0516 O   0  0  0  0  0  0  0  0  0  0  0  0
   12.4989    6.2074   20.1776 C   0  0  0  0  0  0  0  0  0  0  0  0
    6.9192    9.1053   20.9073 O   0  0  0  0  0  0  0  0  0  0  0  0
   14.3979    6.0729   18.7784 C   0  0  0  0  0  0  0  0  0  0  0  0
    8.6811    9.5354   16.9998 C   0  0  0  0  0  0  0  0  0  0  0  0
    9.2512    4.2713   13.7653 O   0  0  0  0  0  0  0  0  0  0  0  0
    9.6495    8.6317   16.8332 N   0  0  0  0  0  0  0  0  0  0  0  0
    6.2934    8.6988   23.1988 O   0  0  0  0  0  0  0  0  0  0  0  0
    7.9806    8.6543   20.5437 C   0  0  0  0  0  0  0  0  0  0  0  0
   13.7270    5.7144   19.8610 O   0  0  0  0  0  0  0  0  0  0  0  0
    8.3351    5.5235   15.4478 C   0  0  0  0  0  0  0  0  0  0  0  0
    8.7700    7.8434   21.3915 C   0  0  0  0  0  0  0  0  0  0  0  0
   11.7856    6.8851   19.2401 C   0  0  0  0  0  0  0  0  0  0  0  0
   10.5281    7.4276   19.5649 C   0  0  0  0  0  0  0  0  0  0  0  0
   10.0256    7.2907   20.8484 C   0  0  0  0  0  0  0  0  0  0  0  0
    9.3113    5.3049   14.4911 C   0  0  0  0  0  0  0  0  0  0  0  0
    9.4607    7.5646   16.0139 C   0  0  0  0  0  0  0  0  0  0  0  0
   10.4192    7.3157   15.0955 C   0  0  0  0  0  0  0  0  0  0  0  0
   10.2489    6.4227   23.0218 N   0  0  0  0  0  0  0  0  0  0  0  0
    7.2472    8.0746   23.5050 C   0  0  0  0  0  0  0  0  0  0  0  0
    9.2051    6.9101   23.4604 C   0  0  0  0  0  0  0  0  0  0  0  0
   11.9646    6.0299   21.4251 C   0  0  0  0  0  0  0  0  0  0  0  0
  1  5  1  0
  1 13  1  0
  2 20  2  0
  2 28  1  0
  2 29  1  0
  3 19  4  0
  3 25  4  0
  4 23  4  0
  4 27  1  0
  4 30  4  0
  5 17  1  0
  6  8  1  0
  6 29  1  0
  7 24  4  0
  7 26  4  0
  8 28  1  0
  9 13  2  0
 10 18  1  0
 10 21  4  0
 10 30  4  0
 11 17  2  0
 12 18  1  0
 13 15  1  0
 14 24  1  0
 15 25  1  0
 16 28  2  0
 17 20  1  0
 19 24  4  0
 20 23  1  0
 21 22  4  0
 22 23  4  0
 25 26  4  0
 27 29  2  0
M  END
$$$$

 Created by Python create_sdf_string function

 30 33  0  0  0  0  0  0  0  0999 V2000
    8.3036    9.8571   18.4133 C   0  0  0  0  0  0  0  0  0  0  0  0
    8.3694    7.6612   22.6703 C   0  0  0  0  0  0  0  0  0  0  0  0
    8.4143    6.6863   16.2273 C   0  0  0  0  0  0  0  0  0  0  0  0
   10.7581    6.5674   21.7636 C   0  0  0  0  0  0  0  0  0  0  0  0
    8.4452    8.7960   19.2958 O   0  0  0  0  0  0  0  0  0  0  0  0
    8.7122    6.7842   24.8569 C   0  0  0  0  0  0  0  0  0  0  0  0
   10.3400    6.1726   14.3081 C   0  0  0  0  0  0  0  0  0  0  0  0
    7.4297    7.5873   24.8962 C   0  0  0  0  0  0  0  0  0  0  0  0
    8.1566   10.0536   16.0516 O   0  0  0  0  0  0  0  0  0  0  0  0
   12.4989    6.2074   20.1776 C   0  0  0  0  0  0  0  0  0  0  0  0
    6.9192    9.1053   20.9073 O   0  0  0  0  0  0  0  0  0  0  0  0
   14.3979    6.0729   18.7784 C   0  0  0  0  0  0  0  0  0  0  0  0
    8.6811    9.5354   16.9998 C   0  0  0  0  0  0  0  0  0  0  0  0
    9.2512    4.2713   13.7653 O   0  0  0  0  0  0  0  0  0  0  0  0
    9.6495    8.6317   16.8332 N   0  0  0  0  0  0  0  0  0  0  0  0
    6.2934    8.6988   23.1988 O   0  0  0  0  0  0  0  0  0  0  0  0
    7.9806    8.6543   20.5437 C   0  0  0  0  0  0  0  0  0  0  0  0
   13.7270    5.7144   19.8610 O   0  0  0  0  0  0  0  0  0  0  0  0
    8.3351    5.5235   15.4478 C   0  0  0  0  0  0  0  0  0  0  0  0
    8.7700    7.8434   21.3915 C   0  0  0  0  0  0  0  0  0  0  0  0
   11.7856    6.8851   19.2401 C   0  0  0  0  0  0  0  0  0  0  0  0
   10.5281    7.4276   19.5649 C   0  0  0  0  0  0  0  0  0  0  0  0
   10.0256    7.2907   20.8484 C   0  0  0  0  0  0  0  0  0  0  0  0
    9.3113    5.3049   14.4911 C   0  0  0  0  0  0  0  0  0  0  0  0
    9.4607    7.5646   16.0139 C   0  0  0  0  0  0  0  0  0  0  0  0
   10.4192    7.3157   15.0955 C   0  0  0  0  0  0  0  0  0  0  0  0
   10.2489    6.4227   23.0218 N   0  0  0  0  0  0  0  0  0  0  0  0
    7.2472    8.0746   23.5050 C   0  0  0  0  0  0  0  0  0  0  0  0
    9.2051    6.9101   23.4604 C   0  0  0  0  0  0  0  0  0  0  0  0
   11.9646    6.0299   21.4251 C   0  0  0  0  0  0  0  0  0  0  0  0
  1  5  1  0
  1 13  1  0
  2 20  2  0
  2 28  1  0
  2 29  1  0
  3 19  4  0
  3 25  4  0
  4 23  4  0
  4 27  1  0
  4 30  4  0
  5 17  1  0
  6  8  1  0
  6 29  1  0
  7 24  4  0
  7 26  4  0
  8 28  1  0
  9 13  2  0
 10 18  1  0
 10 21  4  0
 10 30  4  0
 11 17  2  0
 12 18  1  0
 13 15  1  0
 14 24  1  0
 15 25  1  0
 16 28  2  0
 17 20  1  0
 19 24  4  0
 20 23  1  0
 21 22  4  0
 22 23  4  0
 25 26  4  0
 27 29  2  0
M  END
$$$$

 Created by Python create_sdf_string function

 30 33  0  0  0  0  0  0  0  0999 V2000
    8.3036    9.8571   18.4133 C   0  0  0  0  0  0  0  0  0  0  0  0
    8.3694    7.6612   22.6703 C   0  0  0  0  0  0  0  0  0  0  0  0
    8.4143    6.6863   16.2273 C   0  0  0  0  0  0  0  0  0  0  0  0
   10.7581    6.5674   21.7636 C   0  0  0  0  0  0  0  0  0  0  0  0
    8.4452    8.7960   19.2958 O   0  0  0  0  0  0  0  0  0  0  0  0
    8.7122    6.7842   24.8569 C   0  0  0  0  0  0  0  0  0  0  0  0
   10.3400    6.1726   14.3081 C   0  0  0  0  0  0  0  0  0  0  0  0
    7.4297    7.5873   24.8962 C   0  0  0  0  0  0  0  0  0  0  0  0
    8.1566   10.0536   16.0516 O   0  0  0  0  0  0  0  0  0  0  0  0
   12.4989    6.2074   20.1776 C   0  0  0  0  0  0  0  0  0  0  0  0
    6.9192    9.1053   20.9073 O   0  0  0  0  0  0  0  0  0  0  0  0
   14.3979    6.0729   18.7784 C   0  0  0  0  0  0  0  0  0  0  0  0
    8.6811    9.5354   16.9998 C   0  0  0  0  0  0  0  0  0  0  0  0
    9.2512    4.2713   13.7653 O   0  0  0  0  0  0  0  0  0  0  0  0
    9.6495    8.6317   16.8332 N   0  0  0  0  0  0  0  0  0  0  0  0
    6.2934    8.6988   23.1988 O   0  0  0  0  0  0  0  0  0  0  0  0
    7.9806    8.6543   20.5437 C   0  0  0  0  0  0  0  0  0  0  0  0
   13.7270    5.7144   19.8610 O   0  0  0  0  0  0  0  0  0  0  0  0
    8.3351    5.5235   15.4478 C   0  0  0  0  0  0  0  0  0  0  0  0
    8.7700    7.8434   21.3915 C   0  0  0  0  0  0  0  0  0  0  0  0
   11.7856    6.8851   19.2401 C   0  0  0  0  0  0  0  0  0  0  0  0
   10.5281    7.4276   19.5649 C   0  0  0  0  0  0  0  0  0  0  0  0
   10.0256    7.2907   20.8484 C   0  0  0  0  0  0  0  0  0  0  0  0
    9.3113    5.3049   14.4911 C   0  0  0  0  0  0  0  0  0  0  0  0
    9.4607    7.5646   16.0139 C   0  0  0  0  0  0  0  0  0  0  0  0
   10.4192    7.3157   15.0955 C   0  0  0  0  0  0  0  0  0  0  0  0
   10.2489    6.4227   23.0218 N   0  0  0  0  0  0  0  0  0  0  0  0
    7.2472    8.0746   23.5050 C   0  0  0  0  0  0  0  0  0  0  0  0
    9.2051    6.9101   23.4604 C   0  0  0  0  0  0  0  0  0  0  0  0
   11.9646    6.0299   21.4251 C   0  0  0  0  0  0  0  0  0  0  0  0
  1  5  1  0
  1 13  1  0
  2 20  2  0
  2 28  1  0
  2 29  1  0
  3 19  4  0
  3 25  4  0
  4 23  4  0
  4 27  1  0
  4 30  4  0
  5 17  1  0
  6  8  1  0
  6 29  1  0
  7 24  4  0
  7 26  4  0
  8 28  1  0
  9 13  2  0
 10 18  1  0
 10 21  4  0
 10 30  4  0
 11 17  2  0
 12 18  1  0
 13 15  1  0
 14 24  1  0
 15 25  1  0
 16 28  2  0
 17 20  1  0
 19 24  4  0
 20 23  1  0
 21 22  4  0
 22 23  4  0
 25 26  4  0
 27 29  2  0
M  END
$$$$

 Created by Python create_sdf_string function

 30 33  0  0  0  0  0  0  0  0999 V2000
    8.3036    9.8571   18.4133 C   0  0  0  0  0  0  0  0  0  0  0  0
    8.3694    7.6612   22.6703 C   0  0  0  0  0  0  0  0  0  0  0  0
    8.4143    6.6863   16.2273 C   0  0  0  0  0  0  0  0  0  0  0  0
   10.7581    6.5674   21.7636 C   0  0  0  0  0  0  0  0  0  0  0  0
    8.4452    8.7960   19.2958 O   0  0  0  0  0  0  0  0  0  0  0  0
    8.7122    6.7842   24.8569 C   0  0  0  0  0  0  0  0  0  0  0  0
   10.3400    6.1726   14.3081 C   0  0  0  0  0  0  0  0  0  0  0  0
    7.4297    7.5873   24.8962 C   0  0  0  0  0  0  0  0  0  0  0  0
    8.1566   10.0536   16.0516 O   0  0  0  0  0  0  0  0  0  0  0  0
   12.4989    6.2074   20.1776 C   0  0  0  0  0  0  0  0  0  0  0  0
    6.9192    9.1053   20.9073 O   0  0  0  0  0  0  0  0  0  0  0  0
   14.3979    6.0729   18.7784 C   0  0  0  0  0  0  0  0  0  0  0  0
    8.6811    9.5354   16.9998 C   0  0  0  0  0  0  0  0  0  0  0  0
    9.2512    4.2713   13.7653 O   0  0  0  0  0  0  0  0  0  0  0  0
    9.6495    8.6317   16.8332 N   0  0  0  0  0  0  0  0  0  0  0  0
    6.2934    8.6988   23.1988 O   0  0  0  0  0  0  0  0  0  0  0  0
    7.9806    8.6543   20.5437 C   0  0  0  0  0  0  0  0  0  0  0  0
   13.7270    5.7144   19.8610 O   0  0  0  0  0  0  0  0  0  0  0  0
    8.3351    5.5235   15.4478 C   0  0  0  0  0  0  0  0  0  0  0  0
    8.7700    7.8434   21.3915 C   0  0  0  0  0  0  0  0  0  0  0  0
   11.7856    6.8851   19.2401 C   0  0  0  0  0  0  0  0  0  0  0  0
   10.5281    7.4276   19.5649 C   0  0  0  0  0  0  0  0  0  0  0  0
   10.0256    7.2907   20.8484 C   0  0  0  0  0  0  0  0  0  0  0  0
    9.3113    5.3049   14.4911 C   0  0  0  0  0  0  0  0  0  0  0  0
    9.4607    7.5646   16.0139 C   0  0  0  0  0  0  0  0  0  0  0  0
   10.4192    7.3157   15.0955 C   0  0  0  0  0  0  0  0  0  0  0  0
   10.2489    6.4227   23.0218 N   0  0  0  0  0  0  0  0  0  0  0  0
    7.2472    8.0746   23.5050 C   0  0  0  0  0  0  0  0  0  0  0  0
    9.2051    6.9101   23.4604 C   0  0  0  0  0  0  0  0  0  0  0  0
   11.9646    6.0299   21.4251 C   0  0  0  0  0  0  0  0  0  0  0  0
  1  5  1  0
  1 13  1  0
  2 20  2  0
  2 28  1  0
  2 29  1  0
  3 19  4  0
  3 25  4  0
  4 23  4  0
  4 27  1  0
  4 30  4  0
  5 17  1  0
  6  8  1  0
  6 29  1  0
  7 24  4  0
  7 26  4  0
  8 28  1  0
  9 13  2  0
 10 18  1  0
 10 21  4  0
 10 30  4  0
 11 17  2  0
 12 18  1  0
 13 15  1  0
 14 24  1  0
 15 25  1  0
 16 28  2  0
 17 20  1  0
 19 24  4  0
 20 23  1  0
 21 22  4  0
 22 23  4  0
 25 26  4  0
 27 29  2  0
M  END
$$$$

 Created by Python create_sdf_string function

 30 33  0  0  0  0  0  0  0  0999 V2000
    8.3036    9.8571   18.4133 C   0  0  0  0  0  0  0  0  0  0  0  0
    8.3694    7.6612   22.6703 C   0  0  0  0  0  0  0  0  0  0  0  0
    8.4143    6.6863   16.2273 C   0  0  0  0  0  0  0  0  0  0  0  0
   10.7581    6.5674   21.7636 C   0  0  0  0  0  0  0  0  0  0  0  0
    8.4452    8.7960   19.2958 O   0  0  0  0  0  0  0  0  0  0  0  0
    8.7122    6.7842   24.8569 C   0  0  0  0  0  0  0  0  0  0  0  0
   10.3400    6.1726   14.3081 C   0  0  0  0  0  0  0  0  0  0  0  0
    7.4297    7.5873   24.8962 C   0  0  0  0  0  0  0  0  0  0  0  0
    8.1566   10.0536   16.0516 O   0  0  0  0  0  0  0  0  0  0  0  0
   12.4989    6.2074   20.1776 C   0  0  0  0  0  0  0  0  0  0  0  0
    6.9192    9.1053   20.9073 O   0  0  0  0  0  0  0  0  0  0  0  0
   14.3979    6.0729   18.7784 C   0  0  0  0  0  0  0  0  0  0  0  0
    8.6811    9.5354   16.9998 C   0  0  0  0  0  0  0  0  0  0  0  0
    9.2512    4.2713   13.7653 O   0  0  0  0  0  0  0  0  0  0  0  0
    9.6495    8.6317   16.8332 N   0  0  0  0  0  0  0  0  0  0  0  0
    6.2934    8.6988   23.1988 O   0  0  0  0  0  0  0  0  0  0  0  0
    7.9806    8.6543   20.5437 C   0  0  0  0  0  0  0  0  0  0  0  0
   13.7270    5.7144   19.8610 O   0  0  0  0  0  0  0  0  0  0  0  0
    8.3351    5.5235   15.4478 C   0  0  0  0  0  0  0  0  0  0  0  0
    8.7700    7.8434   21.3915 C   0  0  0  0  0  0  0  0  0  0  0  0
   11.7856    6.8851   19.2401 C   0  0  0  0  0  0  0  0  0  0  0  0
   10.5281    7.4276   19.5649 C   0  0  0  0  0  0  0  0  0  0  0  0
   10.0256    7.2907   20.8484 C   0  0  0  0  0  0  0  0  0  0  0  0
    9.3113    5.3049   14.4911 C   0  0  0  0  0  0  0  0  0  0  0  0
    9.4607    7.5646   16.0139 C   0  0  0  0  0  0  0  0  0  0  0  0
   10.4192    7.3157   15.0955 C   0  0  0  0  0  0  0  0  0  0  0  0
   10.2489    6.4227   23.0218 N   0  0  0  0  0  0  0  0  0  0  0  0
    7.2472    8.0746   23.5050 C   0  0  0  0  0  0  0  0  0  0  0  0
    9.2051    6.9101   23.4604 C   0  0  0  0  0  0  0  0  0  0  0  0
   11.9646    6.0299   21.4251 C   0  0  0  0  0  0  0  0  0  0  0  0
  1  5  1  0
  1 13  1  0
  2 20  2  0
  2 28  1  0
  2 29  1  0
  3 19  4  0
  3 25  4  0
  4 23  4  0
  4 27  1  0
  4 30  4  0
  5 17  1  0
  6  8  1  0
  6 29  1  0
  7 24  4  0
  7 26  4  0
  8 28  1  0
  9 13  2  0
 10 18  1  0
 10 21  4  0
 10 30  4  0
 11 17  2  0
 12 18  1  0
 13 15  1  0
 14 24  1  0
 15 25  1  0
 16 28  2  0
 17 20  1  0
 19 24  4  0
 20 23  1  0
 21 22  4  0
 22 23  4  0
 25 26  4  0
 27 29  2  0
M  END
$$$$

 Created by Python create_sdf_string function

 30 33  0  0  0  0  0  0  0  0999 V2000
    8.3036    9.8571   18.4133 C   0  0  0  0  0  0  0  0  0  0  0  0
    8.3694    7.6612   22.6703 C   0  0  0  0  0  0  0  0  0  0  0  0
    8.4143    6.6863   16.2273 C   0  0  0  0  0  0  0  0  0  0  0  0
   10.7581    6.5674   21.7636 C   0  0  0  0  0  0  0  0  0  0  0  0
    8.4452    8.7960   19.2958 O   0  0  0  0  0  0  0  0  0  0  0  0
    8.7122    6.7842   24.8569 C   0  0  0  0  0  0  0  0  0  0  0  0
   10.3400    6.1726   14.3081 C   0  0  0  0  0  0  0  0  0  0  0  0
    7.4297    7.5873   24.8962 C   0  0  0  0  0  0  0  0  0  0  0  0
    8.1566   10.0536   16.0516 O   0  0  0  0  0  0  0  0  0  0  0  0
   12.4989    6.2074   20.1776 C   0  0  0  0  0  0  0  0  0  0  0  0
    6.9192    9.1053   20.9073 O   0  0  0  0  0  0  0  0  0  0  0  0
   14.3979    6.0729   18.7784 C   0  0  0  0  0  0  0  0  0  0  0  0
    8.6811    9.5354   16.9998 C   0  0  0  0  0  0  0  0  0  0  0  0
    9.2512    4.2713   13.7653 O   0  0  0  0  0  0  0  0  0  0  0  0
    9.6495    8.6317   16.8332 N   0  0  0  0  0  0  0  0  0  0  0  0
    6.2934    8.6988   23.1988 O   0  0  0  0  0  0  0  0  0  0  0  0
    7.9806    8.6543   20.5437 C   0  0  0  0  0  0  0  0  0  0  0  0
   13.7270    5.7144   19.8610 O   0  0  0  0  0  0  0  0  0  0  0  0
    8.3351    5.5235   15.4478 C   0  0  0  0  0  0  0  0  0  0  0  0
    8.7700    7.8434   21.3915 C   0  0  0  0  0  0  0  0  0  0  0  0
   11.7856    6.8851   19.2401 C   0  0  0  0  0  0  0  0  0  0  0  0
   10.5281    7.4276   19.5649 C   0  0  0  0  0  0  0  0  0  0  0  0
   10.0256    7.2907   20.8484 C   0  0  0  0  0  0  0  0  0  0  0  0
    9.3113    5.3049   14.4911 C   0  0  0  0  0  0  0  0  0  0  0  0
    9.4607    7.5646   16.0139 C   0  0  0  0  0  0  0  0  0  0  0  0
   10.4192    7.3157   15.0955 C   0  0  0  0  0  0  0  0  0  0  0  0
   10.2489    6.4227   23.0218 N   0  0  0  0  0  0  0  0  0  0  0  0
    7.2472    8.0746   23.5050 C   0  0  0  0  0  0  0  0  0  0  0  0
    9.2051    6.9101   23.4604 C   0  0  0  0  0  0  0  0  0  0  0  0
   11.9646    6.0299   21.4251 C   0  0  0  0  0  0  0  0  0  0  0  0
  1  5  1  0
  1 13  1  0
  2 20  2  0
  2 28  1  0
  2 29  1  0
  3 19  4  0
  3 25  4  0
  4 23  4  0
  4 27  1  0
  4 30  4  0
  5 17  1  0
  6  8  1  0
  6 29  1  0
  7 24  4  0
  7 26  4  0
  8 28  1  0
  9 13  2  0
 10 18  1  0
 10 21  4  0
 10 30  4  0
 11 17  2  0
 12 18  1  0
 13 15  1  0
 14 24  1  0
 15 25  1  0
 16 28  2  0
 17 20  1  0
 19 24  4  0
 20 23  1  0
 21 22  4  0
 22 23  4  0
 25 26  4  0
 27 29  2  0
M  END
$$$$

 Created by Python create_sdf_string function

 30 33  0  0  0  0  0  0  0  0999 V2000
    8.3036    9.8571   18.4133 C   0  0  0  0  0  0  0  0  0  0  0  0
    8.3694    7.6612   22.6703 C   0  0  0  0  0  0  0  0  0  0  0  0
    8.4143    6.6863   16.2273 C   0  0  0  0  0  0  0  0  0  0  0  0
   10.7581    6.5674   21.7636 C   0  0  0  0  0  0  0  0  0  0  0  0
    8.4452    8.7960   19.2958 O   0  0  0  0  0  0  0  0  0  0  0  0
    8.7122    6.7842   24.8569 C   0  0  0  0  0  0  0  0  0  0  0  0
   10.3400    6.1726   14.3081 C   0  0  0  0  0  0  0  0  0  0  0  0
    7.4297    7.5873   24.8962 C   0  0  0  0  0  0  0  0  0  0  0  0
    8.1566   10.0536   16.0516 O   0  0  0  0  0  0  0  0  0  0  0  0
   12.4989    6.2074   20.1776 C   0  0  0  0  0  0  0  0  0  0  0  0
    6.9192    9.1053   20.9073 O   0  0  0  0  0  0  0  0  0  0  0  0
   14.3979    6.0729   18.7784 C   0  0  0  0  0  0  0  0  0  0  0  0
    8.6811    9.5354   16.9998 C   0  0  0  0  0  0  0  0  0  0  0  0
    9.2512    4.2713   13.7653 O   0  0  0  0  0  0  0  0  0  0  0  0
    9.6495    8.6317   16.8332 N   0  0  0  0  0  0  0  0  0  0  0  0
    6.2934    8.6988   23.1988 O   0  0  0  0  0  0  0  0  0  0  0  0
    7.9806    8.6543   20.5437 C   0  0  0  0  0  0  0  0  0  0  0  0
   13.7270    5.7144   19.8610 O   0  0  0  0  0  0  0  0  0  0  0  0
    8.3351    5.5235   15.4478 C   0  0  0  0  0  0  0  0  0  0  0  0
    8.7700    7.8434   21.3915 C   0  0  0  0  0  0  0  0  0  0  0  0
   11.7856    6.8851   19.2401 C   0  0  0  0  0  0  0  0  0  0  0  0
   10.5281    7.4276   19.5649 C   0  0  0  0  0  0  0  0  0  0  0  0
   10.0256    7.2907   20.8484 C   0  0  0  0  0  0  0  0  0  0  0  0
    9.3113    5.3049   14.4911 C   0  0  0  0  0  0  0  0  0  0  0  0
    9.4607    7.5646   16.0139 C   0  0  0  0  0  0  0  0  0  0  0  0
   10.4192    7.3157   15.0955 C   0  0  0  0  0  0  0  0  0  0  0  0
   10.2489    6.4227   23.0218 N   0  0  0  0  0  0  0  0  0  0  0  0
    7.2472    8.0746   23.5050 C   0  0  0  0  0  0  0  0  0  0  0  0
    9.2051    6.9101   23.4604 C   0  0  0  0  0  0  0  0  0  0  0  0
   11.9646    6.0299   21.4251 C   0  0  0  0  0  0  0  0  0  0  0  0
  1  5  1  0
  1 13  1  0
  2 20  2  0
  2 28  1  0
  2 29  1  0
  3 19  4  0
  3 25  4  0
  4 23  4  0
  4 27  1  0
  4 30  4  0
  5 17  1  0
  6  8  1  0
  6 29  1  0
  7 24  4  0
  7 26  4  0
  8 28  1  0
  9 13  2  0
 10 18  1  0
 10 21  4  0
 10 30  4  0
 11 17  2  0
 12 18  1  0
 13 15  1  0
 14 24  1  0
 15 25  1  0
 16 28  2  0
 17 20  1  0
 19 24  4  0
 20 23  1  0
 21 22  4  0
 22 23  4  0
 25 26  4  0
 27 29  2  0
M  END
$$$$

 Created by Python create_sdf_string function

 30 33  0  0  0  0  0  0  0  0999 V2000
    8.3036    9.8571   18.4133 C   0  0  0  0  0  0  0  0  0  0  0  0
    8.3694    7.6612   22.6703 C   0  0  0  0  0  0  0  0  0  0  0  0
    8.4143    6.6863   16.2273 C   0  0  0  0  0  0  0  0  0  0  0  0
   10.7581    6.5674   21.7636 C   0  0  0  0  0  0  0  0  0  0  0  0
    8.4452    8.7960   19.2958 O   0  0  0  0  0  0  0  0  0  0  0  0
    8.7122    6.7842   24.8569 C   0  0  0  0  0  0  0  0  0  0  0  0
   10.3400    6.1726   14.3081 C   0  0  0  0  0  0  0  0  0  0  0  0
    7.4297    7.5873   24.8962 C   0  0  0  0  0  0  0  0  0  0  0  0
    8.1566   10.0536   16.0516 O   0  0  0  0  0  0  0  0  0  0  0  0
   12.4989    6.2074   20.1776 C   0  0  0  0  0  0  0  0  0  0  0  0
    6.9192    9.1053   20.9073 O   0  0  0  0  0  0  0  0  0  0  0  0
   14.3979    6.0729   18.7784 C   0  0  0  0  0  0  0  0  0  0  0  0
    8.6811    9.5354   16.9998 C   0  0  0  0  0  0  0  0  0  0  0  0
    9.2512    4.2713   13.7653 O   0  0  0  0  0  0  0  0  0  0  0  0
    9.6495    8.6317   16.8332 N   0  0  0  0  0  0  0  0  0  0  0  0
    6.2934    8.6988   23.1988 O   0  0  0  0  0  0  0  0  0  0  0  0
    7.9806    8.6543   20.5437 C   0  0  0  0  0  0  0  0  0  0  0  0
   13.7270    5.7144   19.8610 O   0  0  0  0  0  0  0  0  0  0  0  0
    8.3351    5.5235   15.4478 C   0  0  0  0  0  0  0  0  0  0  0  0
    8.7700    7.8434   21.3915 C   0  0  0  0  0  0  0  0  0  0  0  0
   11.7856    6.8851   19.2401 C   0  0  0  0  0  0  0  0  0  0  0  0
   10.5281    7.4276   19.5649 C   0  0  0  0  0  0  0  0  0  0  0  0
   10.0256    7.2907   20.8484 C   0  0  0  0  0  0  0  0  0  0  0  0
    9.3113    5.3049   14.4911 C   0  0  0  0  0  0  0  0  0  0  0  0
    9.4607    7.5646   16.0139 C   0  0  0  0  0  0  0  0  0  0  0  0
   10.4192    7.3157   15.0955 C   0  0  0  0  0  0  0  0  0  0  0  0
   10.2489    6.4227   23.0218 N   0  0  0  0  0  0  0  0  0  0  0  0
    7.2472    8.0746   23.5050 C   0  0  0  0  0  0  0  0  0  0  0  0
    9.2051    6.9101   23.4604 C   0  0  0  0  0  0  0  0  0  0  0  0
   11.9646    6.0299   21.4251 C   0  0  0  0  0  0  0  0  0  0  0  0
  1  5  1  0
  1 13  1  0
  2 20  2  0
  2 28  1  0
  2 29  1  0
  3 19  4  0
  3 25  4  0
  4 23  4  0
  4 27  1  0
  4 30  4  0
  5 17  1  0
  6  8  1  0
  6 29  1  0
  7 24  4  0
  7 26  4  0
  8 28  1  0
  9 13  2  0
 10 18  1  0
 10 21  4  0
 10 30  4  0
 11 17  2  0
 12 18  1  0
 13 15  1  0
 14 24  1  0
 15 25  1  0
 16 28  2  0
 17 20  1  0
 19 24  4  0
 20 23  1  0
 21 22  4  0
 22 23  4  0
 25 26  4  0
 27 29  2  0
M  END
$$$$

 Created by Python create_sdf_string function

 30 33  0  0  0  0  0  0  0  0999 V2000
    8.3036    9.8571   18.4133 C   0  0  0  0  0  0  0  0  0  0  0  0
    8.3694    7.6612   22.6703 C   0  0  0  0  0  0  0  0  0  0  0  0
    8.4143    6.6863   16.2273 C   0  0  0  0  0  0  0  0  0  0  0  0
   10.7581    6.5674   21.7636 C   0  0  0  0  0  0  0  0  0  0  0  0
    8.4452    8.7960   19.2958 O   0  0  0  0  0  0  0  0  0  0  0  0
    8.7122    6.7842   24.8569 C   0  0  0  0  0  0  0  0  0  0  0  0
   10.3400    6.1726   14.3081 C   0  0  0  0  0  0  0  0  0  0  0  0
    7.4297    7.5873   24.8962 C   0  0  0  0  0  0  0  0  0  0  0  0
    8.1566   10.0536   16.0516 O   0  0  0  0  0  0  0  0  0  0  0  0
   12.4989    6.2074   20.1776 C   0  0  0  0  0  0  0  0  0  0  0  0
    6.9192    9.1053   20.9073 O   0  0  0  0  0  0  0  0  0  0  0  0
   14.3979    6.0729   18.7784 C   0  0  0  0  0  0  0  0  0  0  0  0
    8.6811    9.5354   16.9998 C   0  0  0  0  0  0  0  0  0  0  0  0
    9.2512    4.2713   13.7653 O   0  0  0  0  0  0  0  0  0  0  0  0
    9.6495    8.6317   16.8332 N   0  0  0  0  0  0  0  0  0  0  0  0
    6.2934    8.6988   23.1988 O   0  0  0  0  0  0  0  0  0  0  0  0
    7.9806    8.6543   20.5437 C   0  0  0  0  0  0  0  0  0  0  0  0
   13.7270    5.7144   19.8610 O   0  0  0  0  0  0  0  0  0  0  0  0
    8.3351    5.5235   15.4478 C   0  0  0  0  0  0  0  0  0  0  0  0
    8.7700    7.8434   21.3915 C   0  0  0  0  0  0  0  0  0  0  0  0
   11.7856    6.8851   19.2401 C   0  0  0  0  0  0  0  0  0  0  0  0
   10.5281    7.4276   19.5649 C   0  0  0  0  0  0  0  0  0  0  0  0
   10.0256    7.2907   20.8484 C   0  0  0  0  0  0  0  0  0  0  0  0
    9.3113    5.3049   14.4911 C   0  0  0  0  0  0  0  0  0  0  0  0
    9.4607    7.5646   16.0139 C   0  0  0  0  0  0  0  0  0  0  0  0
   10.4192    7.3157   15.0955 C   0  0  0  0  0  0  0  0  0  0  0  0
   10.2489    6.4227   23.0218 N   0  0  0  0  0  0  0  0  0  0  0  0
    7.2472    8.0746   23.5050 C   0  0  0  0  0  0  0  0  0  0  0  0
    9.2051    6.9101   23.4604 C   0  0  0  0  0  0  0  0  0  0  0  0
   11.9646    6.0299   21.4251 C   0  0  0  0  0  0  0  0  0  0  0  0
  1  5  1  0
  1 13  1  0
  2 20  2  0
  2 28  1  0
  2 29  1  0
  3 19  4  0
  3 25  4  0
  4 23  4  0
  4 27  1  0
  4 30  4  0
  5 17  1  0
  6  8  1  0
  6 29  1  0
  7 24  4  0
  7 26  4  0
  8 28  1  0
  9 13  2  0
 10 18  1  0
 10 21  4  0
 10 30  4  0
 11 17  2  0
 12 18  1  0
 13 15  1  0
 14 24  1  0
 15 25  1  0
 16 28  2  0
 17 20  1  0
 19 24  4  0
 20 23  1  0
 21 22  4  0
 22 23  4  0
 25 26  4  0
 27 29  2  0
M  END
$$$$

 Created by Python create_sdf_string function

 30 33  0  0  0  0  0  0  0  0999 V2000
    8.3036    9.8571   18.4133 C   0  0  0  0  0  0  0  0  0  0  0  0
    8.3694    7.6612   22.6703 C   0  0  0  0  0  0  0  0  0  0  0  0
    8.4143    6.6863   16.2273 C   0  0  0  0  0  0  0  0  0  0  0  0
   10.7581    6.5674   21.7636 C   0  0  0  0  0  0  0  0  0  0  0  0
    8.4452    8.7960   19.2958 O   0  0  0  0  0  0  0  0  0  0  0  0
    8.7122    6.7842   24.8569 C   0  0  0  0  0  0  0  0  0  0  0  0
   10.3400    6.1726   14.3081 C   0  0  0  0  0  0  0  0  0  0  0  0
    7.4297    7.5873   24.8962 C   0  0  0  0  0  0  0  0  0  0  0  0
    8.1566   10.0536   16.0516 O   0  0  0  0  0  0  0  0  0  0  0  0
   12.4989    6.2074   20.1776 C   0  0  0  0  0  0  0  0  0  0  0  0
    6.9192    9.1053   20.9073 O   0  0  0  0  0  0  0  0  0  0  0  0
   14.3979    6.0729   18.7784 C   0  0  0  0  0  0  0  0  0  0  0  0
    8.6811    9.5354   16.9998 C   0  0  0  0  0  0  0  0  0  0  0  0
    9.2512    4.2713   13.7653 O   0  0  0  0  0  0  0  0  0  0  0  0
    9.6495    8.6317   16.8332 N   0  0  0  0  0  0  0  0  0  0  0  0
    6.2934    8.6988   23.1988 O   0  0  0  0  0  0  0  0  0  0  0  0
    7.9806    8.6543   20.5437 C   0  0  0  0  0  0  0  0  0  0  0  0
   13.7270    5.7144   19.8610 O   0  0  0  0  0  0  0  0  0  0  0  0
    8.3351    5.5235   15.4478 C   0  0  0  0  0  0  0  0  0  0  0  0
    8.7700    7.8434   21.3915 C   0  0  0  0  0  0  0  0  0  0  0  0
   11.7856    6.8851   19.2401 C   0  0  0  0  0  0  0  0  0  0  0  0
   10.5281    7.4276   19.5649 C   0  0  0  0  0  0  0  0  0  0  0  0
   10.0256    7.2907   20.8484 C   0  0  0  0  0  0  0  0  0  0  0  0
    9.3113    5.3049   14.4911 C   0  0  0  0  0  0  0  0  0  0  0  0
    9.4607    7.5646   16.0139 C   0  0  0  0  0  0  0  0  0  0  0  0
   10.4192    7.3157   15.0955 C   0  0  0  0  0  0  0  0  0  0  0  0
   10.2489    6.4227   23.0218 N   0  0  0  0  0  0  0  0  0  0  0  0
    7.2472    8.0746   23.5050 C   0  0  0  0  0  0  0  0  0  0  0  0
    9.2051    6.9101   23.4604 C   0  0  0  0  0  0  0  0  0  0  0  0
   11.9646    6.0299   21.4251 C   0  0  0  0  0  0  0  0  0  0  0  0
  1  5  1  0
  1 13  1  0
  2 20  2  0
  2 28  1  0
  2 29  1  0
  3 19  4  0
  3 25  4  0
  4 23  4  0
  4 27  1  0
  4 30  4  0
  5 17  1  0
  6  8  1  0
  6 29  1  0
  7 24  4  0
  7 26  4  0
  8 28  1  0
  9 13  2  0
 10 18  1  0
 10 21  4  0
 10 30  4  0
 11 17  2  0
 12 18  1  0
 13 15  1  0
 14 24  1  0
 15 25  1  0
 16 28  2  0
 17 20  1  0
 19 24  4  0
 20 23  1  0
 21 22  4  0
 22 23  4  0
 25 26  4  0
 27 29  2  0
M  END
$$$$

 Created by Python create_sdf_string function

 30 33  0  0  0  0  0  0  0  0999 V2000
    8.3036    9.8571   18.4133 C   0  0  0  0  0  0  0  0  0  0  0  0
    8.3694    7.6612   22.6703 C   0  0  0  0  0  0  0  0  0  0  0  0
    8.4143    6.6863   16.2273 C   0  0  0  0  0  0  0  0  0  0  0  0
   10.7581    6.5674   21.7636 C   0  0  0  0  0  0  0  0  0  0  0  0
    8.4452    8.7960   19.2958 O   0  0  0  0  0  0  0  0  0  0  0  0
    8.7122    6.7842   24.8569 C   0  0  0  0  0  0  0  0  0  0  0  0
   10.3400    6.1726   14.3081 C   0  0  0  0  0  0  0  0  0  0  0  0
    7.4297    7.5873   24.8962 C   0  0  0  0  0  0  0  0  0  0  0  0
    8.1566   10.0536   16.0516 O   0  0  0  0  0  0  0  0  0  0  0  0
   12.4989    6.2074   20.1776 C   0  0  0  0  0  0  0  0  0  0  0  0
    6.9192    9.1053   20.9073 O   0  0  0  0  0  0  0  0  0  0  0  0
   14.3979    6.0729   18.7784 C   0  0  0  0  0  0  0  0  0  0  0  0
    8.6811    9.5354   16.9998 C   0  0  0  0  0  0  0  0  0  0  0  0
    9.2512    4.2713   13.7653 O   0  0  0  0  0  0  0  0  0  0  0  0
    9.6495    8.6317   16.8332 N   0  0  0  0  0  0  0  0  0  0  0  0
    6.2934    8.6988   23.1988 O   0  0  0  0  0  0  0  0  0  0  0  0
    7.9806    8.6543   20.5437 C   0  0  0  0  0  0  0  0  0  0  0  0
   13.7270    5.7144   19.8610 O   0  0  0  0  0  0  0  0  0  0  0  0
    8.3351    5.5235   15.4478 C   0  0  0  0  0  0  0  0  0  0  0  0
    8.7700    7.8434   21.3915 C   0  0  0  0  0  0  0  0  0  0  0  0
   11.7856    6.8851   19.2401 C   0  0  0  0  0  0  0  0  0  0  0  0
   10.5281    7.4276   19.5649 C   0  0  0  0  0  0  0  0  0  0  0  0
   10.0256    7.2907   20.8484 C   0  0  0  0  0  0  0  0  0  0  0  0
    9.3113    5.3049   14.4911 C   0  0  0  0  0  0  0  0  0  0  0  0
    9.4607    7.5646   16.0139 C   0  0  0  0  0  0  0  0  0  0  0  0
   10.4192    7.3157   15.0955 C   0  0  0  0  0  0  0  0  0  0  0  0
   10.2489    6.4227   23.0218 N   0  0  0  0  0  0  0  0  0  0  0  0
    7.2472    8.0746   23.5050 C   0  0  0  0  0  0  0  0  0  0  0  0
    9.2051    6.9101   23.4604 C   0  0  0  0  0  0  0  0  0  0  0  0
   11.9646    6.0299   21.4251 C   0  0  0  0  0  0  0  0  0  0  0  0
  1  5  1  0
  1 13  1  0
  2 20  2  0
  2 28  1  0
  2 29  1  0
  3 19  4  0
  3 25  4  0
  4 23  4  0
  4 27  1  0
  4 30  4  0
  5 17  1  0
  6  8  1  0
  6 29  1  0
  7 24  4  0
  7 26  4  0
  8 28  1  0
  9 13  2  0
 10 18  1  0
 10 21  4  0
 10 30  4  0
 11 17  2  0
 12 18  1  0
 13 15  1  0
 14 24  1  0
 15 25  1  0
 16 28  2  0
 17 20  1  0
 19 24  4  0
 20 23  1  0
 21 22  4  0
 22 23  4  0
 25 26  4  0
 27 29  2  0
M  END
$$$$

 Created by Python create_sdf_string function

 30 33  0  0  0  0  0  0  0  0999 V2000
    8.3036    9.8571   18.4133 C   0  0  0  0  0  0  0  0  0  0  0  0
    8.3694    7.6612   22.6703 C   0  0  0  0  0  0  0  0  0  0  0  0
    8.4143    6.6863   16.2273 C   0  0  0  0  0  0  0  0  0  0  0  0
   10.7581    6.5674   21.7636 C   0  0  0  0  0  0  0  0  0  0  0  0
    8.4452    8.7960   19.2958 O   0  0  0  0  0  0  0  0  0  0  0  0
    8.7122    6.7842   24.8569 C   0  0  0  0  0  0  0  0  0  0  0  0
   10.3400    6.1726   14.3081 C   0  0  0  0  0  0  0  0  0  0  0  0
    7.4297    7.5873   24.8962 C   0  0  0  0  0  0  0  0  0  0  0  0
    8.1566   10.0536   16.0516 O   0  0  0  0  0  0  0  0  0  0  0  0
   12.4989    6.2074   20.1776 C   0  0  0  0  0  0  0  0  0  0  0  0
    6.9192    9.1053   20.9073 O   0  0  0  0  0  0  0  0  0  0  0  0
   14.3979    6.0729   18.7784 C   0  0  0  0  0  0  0  0  0  0  0  0
    8.6811    9.5354   16.9998 C   0  0  0  0  0  0  0  0  0  0  0  0
    9.2512    4.2713   13.7653 O   0  0  0  0  0  0  0  0  0  0  0  0
    9.6495    8.6317   16.8332 N   0  0  0  0  0  0  0  0  0  0  0  0
    6.2934    8.6988   23.1988 O   0  0  0  0  0  0  0  0  0  0  0  0
    7.9806    8.6543   20.5437 C   0  0  0  0  0  0  0  0  0  0  0  0
   13.7270    5.7144   19.8610 O   0  0  0  0  0  0  0  0  0  0  0  0
    8.3351    5.5235   15.4478 C   0  0  0  0  0  0  0  0  0  0  0  0
    8.7700    7.8434   21.3915 C   0  0  0  0  0  0  0  0  0  0  0  0
   11.7856    6.8851   19.2401 C   0  0  0  0  0  0  0  0  0  0  0  0
   10.5281    7.4276   19.5649 C   0  0  0  0  0  0  0  0  0  0  0  0
   10.0256    7.2907   20.8484 C   0  0  0  0  0  0  0  0  0  0  0  0
    9.3113    5.3049   14.4911 C   0  0  0  0  0  0  0  0  0  0  0  0
    9.4607    7.5646   16.0139 C   0  0  0  0  0  0  0  0  0  0  0  0
   10.4192    7.3157   15.0955 C   0  0  0  0  0  0  0  0  0  0  0  0
   10.2489    6.4227   23.0218 N   0  0  0  0  0  0  0  0  0  0  0  0
    7.2472    8.0746   23.5050 C   0  0  0  0  0  0  0  0  0  0  0  0
    9.2051    6.9101   23.4604 C   0  0  0  0  0  0  0  0  0  0  0  0
   11.9646    6.0299   21.4251 C   0  0  0  0  0  0  0  0  0  0  0  0
  1  5  1  0
  1 13  1  0
  2 20  2  0
  2 28  1  0
  2 29  1  0
  3 19  4  0
  3 25  4  0
  4 23  4  0
  4 27  1  0
  4 30  4  0
  5 17  1  0
  6  8  1  0
  6 29  1  0
  7 24  4  0
  7 26  4  0
  8 28  1  0
  9 13  2  0
 10 18  1  0
 10 21  4  0
 10 30  4  0
 11 17  2  0
 12 18  1  0
 13 15  1  0
 14 24  1  0
 15 25  1  0
 16 28  2  0
 17 20  1  0
 19 24  4  0
 20 23  1  0
 21 22  4  0
 22 23  4  0
 25 26  4  0
 27 29  2  0
M  END
$$$$

 Created by Python create_sdf_string function

 30 33  0  0  0  0  0  0  0  0999 V2000
    8.3036    9.8571   18.4133 C   0  0  0  0  0  0  0  0  0  0  0  0
    8.3694    7.6612   22.6703 C   0  0  0  0  0  0  0  0  0  0  0  0
    8.4143    6.6863   16.2273 C   0  0  0  0  0  0  0  0  0  0  0  0
   10.7581    6.5674   21.7636 C   0  0  0  0  0  0  0  0  0  0  0  0
    8.4452    8.7960   19.2958 O   0  0  0  0  0  0  0  0  0  0  0  0
    8.7122    6.7842   24.8569 C   0  0  0  0  0  0  0  0  0  0  0  0
   10.3400    6.1726   14.3081 C   0  0  0  0  0  0  0  0  0  0  0  0
    7.4297    7.5873   24.8962 C   0  0  0  0  0  0  0  0  0  0  0  0
    8.1566   10.0536   16.0516 O   0  0  0  0  0  0  0  0  0  0  0  0
   12.4989    6.2074   20.1776 C   0  0  0  0  0  0  0  0  0  0  0  0
    6.9192    9.1053   20.9073 O   0  0  0  0  0  0  0  0  0  0  0  0
   14.3979    6.0729   18.7784 C   0  0  0  0  0  0  0  0  0  0  0  0
    8.6811    9.5354   16.9998 C   0  0  0  0  0  0  0  0  0  0  0  0
    9.2512    4.2713   13.7653 O   0  0  0  0  0  0  0  0  0  0  0  0
    9.6495    8.6317   16.8332 N   0  0  0  0  0  0  0  0  0  0  0  0
    6.2934    8.6988   23.1988 O   0  0  0  0  0  0  0  0  0  0  0  0
    7.9806    8.6543   20.5437 C   0  0  0  0  0  0  0  0  0  0  0  0
   13.7270    5.7144   19.8610 O   0  0  0  0  0  0  0  0  0  0  0  0
    8.3351    5.5235   15.4478 C   0  0  0  0  0  0  0  0  0  0  0  0
    8.7700    7.8434   21.3915 C   0  0  0  0  0  0  0  0  0  0  0  0
   11.7856    6.8851   19.2401 C   0  0  0  0  0  0  0  0  0  0  0  0
   10.5281    7.4276   19.5649 C   0  0  0  0  0  0  0  0  0  0  0  0
   10.0256    7.2907   20.8484 C   0  0  0  0  0  0  0  0  0  0  0  0
    9.3113    5.3049   14.4911 C   0  0  0  0  0  0  0  0  0  0  0  0
    9.4607    7.5646   16.0139 C   0  0  0  0  0  0  0  0  0  0  0  0
   10.4192    7.3157   15.0955 C   0  0  0  0  0  0  0  0  0  0  0  0
   10.2489    6.4227   23.0218 N   0  0  0  0  0  0  0  0  0  0  0  0
    7.2472    8.0746   23.5050 C   0  0  0  0  0  0  0  0  0  0  0  0
    9.2051    6.9101   23.4604 C   0  0  0  0  0  0  0  0  0  0  0  0
   11.9646    6.0299   21.4251 C   0  0  0  0  0  0  0  0  0  0  0  0
  1  5  1  0
  1 13  1  0
  2 20  2  0
  2 28  1  0
  2 29  1  0
  3 19  4  0
  3 25  4  0
  4 23  4  0
  4 27  1  0
  4 30  4  0
  5 17  1  0
  6  8  1  0
  6 29  1  0
  7 24  4  0
  7 26  4  0
  8 28  1  0
  9 13  2  0
 10 18  1  0
 10 21  4  0
 10 30  4  0
 11 17  2  0
 12 18  1  0
 13 15  1  0
 14 24  1  0
 15 25  1  0
 16 28  2  0
 17 20  1  0
 19 24  4  0
 20 23  1  0
 21 22  4  0
 22 23  4  0
 25 26  4  0
 27 29  2  0
M  END
$$$$

 Created by Python create_sdf_string function

 30 33  0  0  0  0  0  0  0  0999 V2000
    8.3036    9.8571   18.4133 C   0  0  0  0  0  0  0  0  0  0  0  0
    8.3694    7.6612   22.6703 C   0  0  0  0  0  0  0  0  0  0  0  0
    8.4143    6.6863   16.2273 C   0  0  0  0  0  0  0  0  0  0  0  0
   10.7581    6.5674   21.7636 C   0  0  0  0  0  0  0  0  0  0  0  0
    8.4452    8.7960   19.2958 O   0  0  0  0  0  0  0  0  0  0  0  0
    8.7122    6.7842   24.8569 C   0  0  0  0  0  0  0  0  0  0  0  0
   10.3400    6.1726   14.3081 C   0  0  0  0  0  0  0  0  0  0  0  0
    7.4297    7.5873   24.8962 C   0  0  0  0  0  0  0  0  0  0  0  0
    8.1566   10.0536   16.0516 O   0  0  0  0  0  0  0  0  0  0  0  0
   12.4989    6.2074   20.1776 C   0  0  0  0  0  0  0  0  0  0  0  0
    6.9192    9.1053   20.9073 O   0  0  0  0  0  0  0  0  0  0  0  0
   14.3979    6.0729   18.7784 C   0  0  0  0  0  0  0  0  0  0  0  0
    8.6811    9.5354   16.9998 C   0  0  0  0  0  0  0  0  0  0  0  0
    9.2512    4.2713   13.7653 O   0  0  0  0  0  0  0  0  0  0  0  0
    9.6495    8.6317   16.8332 N   0  0  0  0  0  0  0  0  0  0  0  0
    6.2934    8.6988   23.1988 O   0  0  0  0  0  0  0  0  0  0  0  0
    7.9806    8.6543   20.5437 C   0  0  0  0  0  0  0  0  0  0  0  0
   13.7270    5.7144   19.8610 O   0  0  0  0  0  0  0  0  0  0  0  0
    8.3351    5.5235   15.4478 C   0  0  0  0  0  0  0  0  0  0  0  0
    8.7700    7.8434   21.3915 C   0  0  0  0  0  0  0  0  0  0  0  0
   11.7856    6.8851   19.2401 C   0  0  0  0  0  0  0  0  0  0  0  0
   10.5281    7.4276   19.5649 C   0  0  0  0  0  0  0  0  0  0  0  0
   10.0256    7.2907   20.8484 C   0  0  0  0  0  0  0  0  0  0  0  0
    9.3113    5.3049   14.4911 C   0  0  0  0  0  0  0  0  0  0  0  0
    9.4607    7.5646   16.0139 C   0  0  0  0  0  0  0  0  0  0  0  0
   10.4192    7.3157   15.0955 C   0  0  0  0  0  0  0  0  0  0  0  0
   10.2489    6.4227   23.0218 N   0  0  0  0  0  0  0  0  0  0  0  0
    7.2472    8.0746   23.5050 C   0  0  0  0  0  0  0  0  0  0  0  0
    9.2051    6.9101   23.4604 C   0  0  0  0  0  0  0  0  0  0  0  0
   11.9646    6.0299   21.4251 C   0  0  0  0  0  0  0  0  0  0  0  0
  1  5  1  0
  1 13  1  0
  2 20  2  0
  2 28  1  0
  2 29  1  0
  3 19  4  0
  3 25  4  0
  4 23  4  0
  4 27  1  0
  4 30  4  0
  5 17  1  0
  6  8  1  0
  6 29  1  0
  7 24  4  0
  7 26  4  0
  8 28  1  0
  9 13  2  0
 10 18  1  0
 10 21  4  0
 10 30  4  0
 11 17  2  0
 12 18  1  0
 13 15  1  0
 14 24  1  0
 15 25  1  0
 16 28  2  0
 17 20  1  0
 19 24  4  0
 20 23  1  0
 21 22  4  0
 22 23  4  0
 25 26  4  0
 27 29  2  0
M  END
$$$$

 Created by Python create_sdf_string function

 30 33  0  0  0  0  0  0  0  0999 V2000
    8.3036    9.8571   18.4133 C   0  0  0  0  0  0  0  0  0  0  0  0
    8.3694    7.6612   22.6703 C   0  0  0  0  0  0  0  0  0  0  0  0
    8.4143    6.6863   16.2273 C   0  0  0  0  0  0  0  0  0  0  0  0
   10.7581    6.5674   21.7636 C   0  0  0  0  0  0  0  0  0  0  0  0
    8.4452    8.7960   19.2958 O   0  0  0  0  0  0  0  0  0  0  0  0
    8.7122    6.7842   24.8569 C   0  0  0  0  0  0  0  0  0  0  0  0
   10.3400    6.1726   14.3081 C   0  0  0  0  0  0  0  0  0  0  0  0
    7.4297    7.5873   24.8962 C   0  0  0  0  0  0  0  0  0  0  0  0
    8.1566   10.0536   16.0516 O   0  0  0  0  0  0  0  0  0  0  0  0
   12.4989    6.2074   20.1776 C   0  0  0  0  0  0  0  0  0  0  0  0
    6.9192    9.1053   20.9073 O   0  0  0  0  0  0  0  0  0  0  0  0
   14.3979    6.0729   18.7784 C   0  0  0  0  0  0  0  0  0  0  0  0
    8.6811    9.5354   16.9998 C   0  0  0  0  0  0  0  0  0  0  0  0
    9.2512    4.2713   13.7653 O   0  0  0  0  0  0  0  0  0  0  0  0
    9.6495    8.6317   16.8332 N   0  0  0  0  0  0  0  0  0  0  0  0
    6.2934    8.6988   23.1988 O   0  0  0  0  0  0  0  0  0  0  0  0
    7.9806    8.6543   20.5437 C   0  0  0  0  0  0  0  0  0  0  0  0
   13.7270    5.7144   19.8610 O   0  0  0  0  0  0  0  0  0  0  0  0
    8.3351    5.5235   15.4478 C   0  0  0  0  0  0  0  0  0  0  0  0
    8.7700    7.8434   21.3915 C   0  0  0  0  0  0  0  0  0  0  0  0
   11.7856    6.8851   19.2401 C   0  0  0  0  0  0  0  0  0  0  0  0
   10.5281    7.4276   19.5649 C   0  0  0  0  0  0  0  0  0  0  0  0
   10.0256    7.2907   20.8484 C   0  0  0  0  0  0  0  0  0  0  0  0
    9.3113    5.3049   14.4911 C   0  0  0  0  0  0  0  0  0  0  0  0
    9.4607    7.5646   16.0139 C   0  0  0  0  0  0  0  0  0  0  0  0
   10.4192    7.3157   15.0955 C   0  0  0  0  0  0  0  0  0  0  0  0
   10.2489    6.4227   23.0218 N   0  0  0  0  0  0  0  0  0  0  0  0
    7.2472    8.0746   23.5050 C   0  0  0  0  0  0  0  0  0  0  0  0
    9.2051    6.9101   23.4604 C   0  0  0  0  0  0  0  0  0  0  0  0
   11.9646    6.0299   21.4251 C   0  0  0  0  0  0  0  0  0  0  0  0
  1  5  1  0
  1 13  1  0
  2 20  2  0
  2 28  1  0
  2 29  1  0
  3 19  4  0
  3 25  4  0
  4 23  4  0
  4 27  1  0
  4 30  4  0
  5 17  1  0
  6  8  1  0
  6 29  1  0
  7 24  4  0
  7 26  4  0
  8 28  1  0
  9 13  2  0
 10 18  1  0
 10 21  4  0
 10 30  4  0
 11 17  2  0
 12 18  1  0
 13 15  1  0
 14 24  1  0
 15 25  1  0
 16 28  2  0
 17 20  1  0
 19 24  4  0
 20 23  1  0
 21 22  4  0
 22 23  4  0
 25 26  4  0
 27 29  2  0
M  END
$$$$

 Created by Python create_sdf_string function

 30 33  0  0  0  0  0  0  0  0999 V2000
    8.3036    9.8571   18.4133 C   0  0  0  0  0  0  0  0  0  0  0  0
    8.3694    7.6612   22.6703 C   0  0  0  0  0  0  0  0  0  0  0  0
    8.4143    6.6863   16.2273 C   0  0  0  0  0  0  0  0  0  0  0  0
   10.7581    6.5674   21.7636 C   0  0  0  0  0  0  0  0  0  0  0  0
    8.4452    8.7960   19.2958 O   0  0  0  0  0  0  0  0  0  0  0  0
    8.7122    6.7842   24.8569 C   0  0  0  0  0  0  0  0  0  0  0  0
   10.3400    6.1726   14.3081 C   0  0  0  0  0  0  0  0  0  0  0  0
    7.4297    7.5873   24.8962 C   0  0  0  0  0  0  0  0  0  0  0  0
    8.1566   10.0536   16.0516 O   0  0  0  0  0  0  0  0  0  0  0  0
   12.4989    6.2074   20.1776 C   0  0  0  0  0  0  0  0  0  0  0  0
    6.9192    9.1053   20.9073 O   0  0  0  0  0  0  0  0  0  0  0  0
   14.3979    6.0729   18.7784 C   0  0  0  0  0  0  0  0  0  0  0  0
    8.6811    9.5354   16.9998 C   0  0  0  0  0  0  0  0  0  0  0  0
    9.2512    4.2713   13.7653 O   0  0  0  0  0  0  0  0  0  0  0  0
    9.6495    8.6317   16.8332 N   0  0  0  0  0  0  0  0  0  0  0  0
    6.2934    8.6988   23.1988 O   0  0  0  0  0  0  0  0  0  0  0  0
    7.9806    8.6543   20.5437 C   0  0  0  0  0  0  0  0  0  0  0  0
   13.7270    5.7144   19.8610 O   0  0  0  0  0  0  0  0  0  0  0  0
    8.3351    5.5235   15.4478 C   0  0  0  0  0  0  0  0  0  0  0  0
    8.7700    7.8434   21.3915 C   0  0  0  0  0  0  0  0  0  0  0  0
   11.7856    6.8851   19.2401 C   0  0  0  0  0  0  0  0  0  0  0  0
   10.5281    7.4276   19.5649 C   0  0  0  0  0  0  0  0  0  0  0  0
   10.0256    7.2907   20.8484 C   0  0  0  0  0  0  0  0  0  0  0  0
    9.3113    5.3049   14.4911 C   0  0  0  0  0  0  0  0  0  0  0  0
    9.4607    7.5646   16.0139 C   0  0  0  0  0  0  0  0  0  0  0  0
   10.4192    7.3157   15.0955 C   0  0  0  0  0  0  0  0  0  0  0  0
   10.2489    6.4227   23.0218 N   0  0  0  0  0  0  0  0  0  0  0  0
    7.2472    8.0746   23.5050 C   0  0  0  0  0  0  0  0  0  0  0  0
    9.2051    6.9101   23.4604 C   0  0  0  0  0  0  0  0  0  0  0  0
   11.9646    6.0299   21.4251 C   0  0  0  0  0  0  0  0  0  0  0  0
  1  5  1  0
  1 13  1  0
  2 20  2  0
  2 28  1  0
  2 29  1  0
  3 19  4  0
  3 25  4  0
  4 23  4  0
  4 27  1  0
  4 30  4  0
  5 17  1  0
  6  8  1  0
  6 29  1  0
  7 24  4  0
  7 26  4  0
  8 28  1  0
  9 13  2  0
 10 18  1  0
 10 21  4  0
 10 30  4  0
 11 17  2  0
 12 18  1  0
 13 15  1  0
 14 24  1  0
 15 25  1  0
 16 28  2  0
 17 20  1  0
 19 24  4  0
 20 23  1  0
 21 22  4  0
 22 23  4  0
 25 26  4  0
 27 29  2  0
M  END
$$$$

 Created by Python create_sdf_string function

 30 33  0  0  0  0  0  0  0  0999 V2000
    8.3036    9.8571   18.4133 C   0  0  0  0  0  0  0  0  0  0  0  0
    8.3694    7.6612   22.6703 C   0  0  0  0  0  0  0  0  0  0  0  0
    8.4143    6.6863   16.2273 C   0  0  0  0  0  0  0  0  0  0  0  0
   10.7581    6.5674   21.7636 C   0  0  0  0  0  0  0  0  0  0  0  0
    8.4452    8.7960   19.2958 O   0  0  0  0  0  0  0  0  0  0  0  0
    8.7122    6.7842   24.8569 C   0  0  0  0  0  0  0  0  0  0  0  0
   10.3400    6.1726   14.3081 C   0  0  0  0  0  0  0  0  0  0  0  0
    7.4297    7.5873   24.8962 C   0  0  0  0  0  0  0  0  0  0  0  0
    8.1566   10.0536   16.0516 O   0  0  0  0  0  0  0  0  0  0  0  0
   12.4989    6.2074   20.1776 C   0  0  0  0  0  0  0  0  0  0  0  0
    6.9192    9.1053   20.9073 O   0  0  0  0  0  0  0  0  0  0  0  0
   14.3979    6.0729   18.7784 C   0  0  0  0  0  0  0  0  0  0  0  0
    8.6811    9.5354   16.9998 C   0  0  0  0  0  0  0  0  0  0  0  0
    9.2512    4.2713   13.7653 O   0  0  0  0  0  0  0  0  0  0  0  0
    9.6495    8.6317   16.8332 N   0  0  0  0  0  0  0  0  0  0  0  0
    6.2934    8.6988   23.1988 O   0  0  0  0  0  0  0  0  0  0  0  0
    7.9806    8.6543   20.5437 C   0  0  0  0  0  0  0  0  0  0  0  0
   13.7270    5.7144   19.8610 O   0  0  0  0  0  0  0  0  0  0  0  0
    8.3351    5.5235   15.4478 C   0  0  0  0  0  0  0  0  0  0  0  0
    8.7700    7.8434   21.3915 C   0  0  0  0  0  0  0  0  0  0  0  0
   11.7856    6.8851   19.2401 C   0  0  0  0  0  0  0  0  0  0  0  0
   10.5281    7.4276   19.5649 C   0  0  0  0  0  0  0  0  0  0  0  0
   10.0256    7.2907   20.8484 C   0  0  0  0  0  0  0  0  0  0  0  0
    9.3113    5.3049   14.4911 C   0  0  0  0  0  0  0  0  0  0  0  0
    9.4607    7.5646   16.0139 C   0  0  0  0  0  0  0  0  0  0  0  0
   10.4192    7.3157   15.0955 C   0  0  0  0  0  0  0  0  0  0  0  0
   10.2489    6.4227   23.0218 N   0  0  0  0  0  0  0  0  0  0  0  0
    7.2472    8.0746   23.5050 C   0  0  0  0  0  0  0  0  0  0  0  0
    9.2051    6.9101   23.4604 C   0  0  0  0  0  0  0  0  0  0  0  0
   11.9646    6.0299   21.4251 C   0  0  0  0  0  0  0  0  0  0  0  0
  1  5  1  0
  1 13  1  0
  2 20  2  0
  2 28  1  0
  2 29  1  0
  3 19  4  0
  3 25  4  0
  4 23  4  0
  4 27  1  0
  4 30  4  0
  5 17  1  0
  6  8  1  0
  6 29  1  0
  7 24  4  0
  7 26  4  0
  8 28  1  0
  9 13  2  0
 10 18  1  0
 10 21  4  0
 10 30  4  0
 11 17  2  0
 12 18  1  0
 13 15  1  0
 14 24  1  0
 15 25  1  0
 16 28  2  0
 17 20  1  0
 19 24  4  0
 20 23  1  0
 21 22  4  0
 22 23  4  0
 25 26  4  0
 27 29  2  0
M  END
$$$$

 Created by Python create_sdf_string function

 30 33  0  0  0  0  0  0  0  0999 V2000
    8.3036    9.8571   18.4133 C   0  0  0  0  0  0  0  0  0  0  0  0
    8.3694    7.6612   22.6703 C   0  0  0  0  0  0  0  0  0  0  0  0
    8.4143    6.6863   16.2273 C   0  0  0  0  0  0  0  0  0  0  0  0
   10.7581    6.5674   21.7636 C   0  0  0  0  0  0  0  0  0  0  0  0
    8.4452    8.7960   19.2958 O   0  0  0  0  0  0  0  0  0  0  0  0
    8.7122    6.7842   24.8569 C   0  0  0  0  0  0  0  0  0  0  0  0
   10.3400    6.1726   14.3081 C   0  0  0  0  0  0  0  0  0  0  0  0
    7.4297    7.5873   24.8962 C   0  0  0  0  0  0  0  0  0  0  0  0
    8.1566   10.0536   16.0516 O   0  0  0  0  0  0  0  0  0  0  0  0
   12.4989    6.2074   20.1776 C   0  0  0  0  0  0  0  0  0  0  0  0
    6.9192    9.1053   20.9073 O   0  0  0  0  0  0  0  0  0  0  0  0
   14.3979    6.0729   18.7784 C   0  0  0  0  0  0  0  0  0  0  0  0
    8.6811    9.5354   16.9998 C   0  0  0  0  0  0  0  0  0  0  0  0
    9.2512    4.2713   13.7653 O   0  0  0  0  0  0  0  0  0  0  0  0
    9.6495    8.6317   16.8332 N   0  0  0  0  0  0  0  0  0  0  0  0
    6.2934    8.6988   23.1988 O   0  0  0  0  0  0  0  0  0  0  0  0
    7.9806    8.6543   20.5437 C   0  0  0  0  0  0  0  0  0  0  0  0
   13.7270    5.7144   19.8610 O   0  0  0  0  0  0  0  0  0  0  0  0
    8.3351    5.5235   15.4478 C   0  0  0  0  0  0  0  0  0  0  0  0
    8.7700    7.8434   21.3915 C   0  0  0  0  0  0  0  0  0  0  0  0
   11.7856    6.8851   19.2401 C   0  0  0  0  0  0  0  0  0  0  0  0
   10.5281    7.4276   19.5649 C   0  0  0  0  0  0  0  0  0  0  0  0
   10.0256    7.2907   20.8484 C   0  0  0  0  0  0  0  0  0  0  0  0
    9.3113    5.3049   14.4911 C   0  0  0  0  0  0  0  0  0  0  0  0
    9.4607    7.5646   16.0139 C   0  0  0  0  0  0  0  0  0  0  0  0
   10.4192    7.3157   15.0955 C   0  0  0  0  0  0  0  0  0  0  0  0
   10.2489    6.4227   23.0218 N   0  0  0  0  0  0  0  0  0  0  0  0
    7.2472    8.0746   23.5050 C   0  0  0  0  0  0  0  0  0  0  0  0
    9.2051    6.9101   23.4604 C   0  0  0  0  0  0  0  0  0  0  0  0
   11.9646    6.0299   21.4251 C   0  0  0  0  0  0  0  0  0  0  0  0
  1  5  1  0
  1 13  1  0
  2 20  2  0
  2 28  1  0
  2 29  1  0
  3 19  4  0
  3 25  4  0
  4 23  4  0
  4 27  1  0
  4 30  4  0
  5 17  1  0
  6  8  1  0
  6 29  1  0
  7 24  4  0
  7 26  4  0
  8 28  1  0
  9 13  2  0
 10 18  1  0
 10 21  4  0
 10 30  4  0
 11 17  2  0
 12 18  1  0
 13 15  1  0
 14 24  1  0
 15 25  1  0
 16 28  2  0
 17 20  1  0
 19 24  4  0
 20 23  1  0
 21 22  4  0
 22 23  4  0
 25 26  4  0
 27 29  2  0
M  END
$$$$

 Created by Python create_sdf_string function

 30 33  0  0  0  0  0  0  0  0999 V2000
    8.3036    9.8571   18.4133 C   0  0  0  0  0  0  0  0  0  0  0  0
    8.3694    7.6612   22.6703 C   0  0  0  0  0  0  0  0  0  0  0  0
    8.4143    6.6863   16.2273 C   0  0  0  0  0  0  0  0  0  0  0  0
   10.7581    6.5674   21.7636 C   0  0  0  0  0  0  0  0  0  0  0  0
    8.4452    8.7960   19.2958 O   0  0  0  0  0  0  0  0  0  0  0  0
    8.7122    6.7842   24.8569 C   0  0  0  0  0  0  0  0  0  0  0  0
   10.3400    6.1726   14.3081 C   0  0  0  0  0  0  0  0  0  0  0  0
    7.4297    7.5873   24.8962 C   0  0  0  0  0  0  0  0  0  0  0  0
    8.1566   10.0536   16.0516 O   0  0  0  0  0  0  0  0  0  0  0  0
   12.4989    6.2074   20.1776 C   0  0  0  0  0  0  0  0  0  0  0  0
    6.9192    9.1053   20.9073 O   0  0  0  0  0  0  0  0  0  0  0  0
   14.3979    6.0729   18.7784 C   0  0  0  0  0  0  0  0  0  0  0  0
    8.6811    9.5354   16.9998 C   0  0  0  0  0  0  0  0  0  0  0  0
    9.2512    4.2713   13.7653 O   0  0  0  0  0  0  0  0  0  0  0  0
    9.6495    8.6317   16.8332 N   0  0  0  0  0  0  0  0  0  0  0  0
    6.2934    8.6988   23.1988 O   0  0  0  0  0  0  0  0  0  0  0  0
    7.9806    8.6543   20.5437 C   0  0  0  0  0  0  0  0  0  0  0  0
   13.7270    5.7144   19.8610 O   0  0  0  0  0  0  0  0  0  0  0  0
    8.3351    5.5235   15.4478 C   0  0  0  0  0  0  0  0  0  0  0  0
    8.7700    7.8434   21.3915 C   0  0  0  0  0  0  0  0  0  0  0  0
   11.7856    6.8851   19.2401 C   0  0  0  0  0  0  0  0  0  0  0  0
   10.5281    7.4276   19.5649 C   0  0  0  0  0  0  0  0  0  0  0  0
   10.0256    7.2907   20.8484 C   0  0  0  0  0  0  0  0  0  0  0  0
    9.3113    5.3049   14.4911 C   0  0  0  0  0  0  0  0  0  0  0  0
    9.4607    7.5646   16.0139 C   0  0  0  0  0  0  0  0  0  0  0  0
   10.4192    7.3157   15.0955 C   0  0  0  0  0  0  0  0  0  0  0  0
   10.2489    6.4227   23.0218 N   0  0  0  0  0  0  0  0  0  0  0  0
    7.2472    8.0746   23.5050 C   0  0  0  0  0  0  0  0  0  0  0  0
    9.2051    6.9101   23.4604 C   0  0  0  0  0  0  0  0  0  0  0  0
   11.9646    6.0299   21.4251 C   0  0  0  0  0  0  0  0  0  0  0  0
  1  5  1  0
  1 13  1  0
  2 20  2  0
  2 28  1  0
  2 29  1  0
  3 19  4  0
  3 25  4  0
  4 23  4  0
  4 27  1  0
  4 30  4  0
  5 17  1  0
  6  8  1  0
  6 29  1  0
  7 24  4  0
  7 26  4  0
  8 28  1  0
  9 13  2  0
 10 18  1  0
 10 21  4  0
 10 30  4  0
 11 17  2  0
 12 18  1  0
 13 15  1  0
 14 24  1  0
 15 25  1  0
 16 28  2  0
 17 20  1  0
 19 24  4  0
 20 23  1  0
 21 22  4  0
 22 23  4  0
 25 26  4  0
 27 29  2  0
M  END
$$$$

 Created by Python create_sdf_string function

 30 33  0  0  0  0  0  0  0  0999 V2000
    8.3036    9.8571   18.4133 C   0  0  0  0  0  0  0  0  0  0  0  0
    8.3694    7.6612   22.6703 C   0  0  0  0  0  0  0  0  0  0  0  0
    8.4143    6.6863   16.2273 C   0  0  0  0  0  0  0  0  0  0  0  0
   10.7581    6.5674   21.7636 C   0  0  0  0  0  0  0  0  0  0  0  0
    8.4452    8.7960   19.2958 O   0  0  0  0  0  0  0  0  0  0  0  0
    8.7122    6.7842   24.8569 C   0  0  0  0  0  0  0  0  0  0  0  0
   10.3400    6.1726   14.3081 C   0  0  0  0  0  0  0  0  0  0  0  0
    7.4297    7.5873   24.8962 C   0  0  0  0  0  0  0  0  0  0  0  0
    8.1566   10.0536   16.0516 O   0  0  0  0  0  0  0  0  0  0  0  0
   12.4989    6.2074   20.1776 C   0  0  0  0  0  0  0  0  0  0  0  0
    6.9192    9.1053   20.9073 O   0  0  0  0  0  0  0  0  0  0  0  0
   14.3979    6.0729   18.7784 C   0  0  0  0  0  0  0  0  0  0  0  0
    8.6811    9.5354   16.9998 C   0  0  0  0  0  0  0  0  0  0  0  0
    9.2512    4.2713   13.7653 O   0  0  0  0  0  0  0  0  0  0  0  0
    9.6495    8.6317   16.8332 N   0  0  0  0  0  0  0  0  0  0  0  0
    6.2934    8.6988   23.1988 O   0  0  0  0  0  0  0  0  0  0  0  0
    7.9806    8.6543   20.5437 C   0  0  0  0  0  0  0  0  0  0  0  0
   13.7270    5.7144   19.8610 O   0  0  0  0  0  0  0  0  0  0  0  0
    8.3351    5.5235   15.4478 C   0  0  0  0  0  0  0  0  0  0  0  0
    8.7700    7.8434   21.3915 C   0  0  0  0  0  0  0  0  0  0  0  0
   11.7856    6.8851   19.2401 C   0  0  0  0  0  0  0  0  0  0  0  0
   10.5281    7.4276   19.5649 C   0  0  0  0  0  0  0  0  0  0  0  0
   10.0256    7.2907   20.8484 C   0  0  0  0  0  0  0  0  0  0  0  0
    9.3113    5.3049   14.4911 C   0  0  0  0  0  0  0  0  0  0  0  0
    9.4607    7.5646   16.0139 C   0  0  0  0  0  0  0  0  0  0  0  0
   10.4192    7.3157   15.0955 C   0  0  0  0  0  0  0  0  0  0  0  0
   10.2489    6.4227   23.0218 N   0  0  0  0  0  0  0  0  0  0  0  0
    7.2472    8.0746   23.5050 C   0  0  0  0  0  0  0  0  0  0  0  0
    9.2051    6.9101   23.4604 C   0  0  0  0  0  0  0  0  0  0  0  0
   11.9646    6.0299   21.4251 C   0  0  0  0  0  0  0  0  0  0  0  0
  1  5  1  0
  1 13  1  0
  2 20  2  0
  2 28  1  0
  2 29  1  0
  3 19  4  0
  3 25  4  0
  4 23  4  0
  4 27  1  0
  4 30  4  0
  5 17  1  0
  6  8  1  0
  6 29  1  0
  7 24  4  0
  7 26  4  0
  8 28  1  0
  9 13  2  0
 10 18  1  0
 10 21  4  0
 10 30  4  0
 11 17  2  0
 12 18  1  0
 13 15  1  0
 14 24  1  0
 15 25  1  0
 16 28  2  0
 17 20  1  0
 19 24  4  0
 20 23  1  0
 21 22  4  0
 22 23  4  0
 25 26  4  0
 27 29  2  0
M  END
$$$$

 Created by Python create_sdf_string function

 30 33  0  0  0  0  0  0  0  0999 V2000
    8.3036    9.8571   18.4133 C   0  0  0  0  0  0  0  0  0  0  0  0
    8.3694    7.6612   22.6703 C   0  0  0  0  0  0  0  0  0  0  0  0
    8.4143    6.6863   16.2273 C   0  0  0  0  0  0  0  0  0  0  0  0
   10.7581    6.5674   21.7636 C   0  0  0  0  0  0  0  0  0  0  0  0
    8.4452    8.7960   19.2958 O   0  0  0  0  0  0  0  0  0  0  0  0
    8.7122    6.7842   24.8569 C   0  0  0  0  0  0  0  0  0  0  0  0
   10.3400    6.1726   14.3081 C   0  0  0  0  0  0  0  0  0  0  0  0
    7.4297    7.5873   24.8962 C   0  0  0  0  0  0  0  0  0  0  0  0
    8.1566   10.0536   16.0516 O   0  0  0  0  0  0  0  0  0  0  0  0
   12.4989    6.2074   20.1776 C   0  0  0  0  0  0  0  0  0  0  0  0
    6.9192    9.1053   20.9073 O   0  0  0  0  0  0  0  0  0  0  0  0
   14.3979    6.0729   18.7784 C   0  0  0  0  0  0  0  0  0  0  0  0
    8.6811    9.5354   16.9998 C   0  0  0  0  0  0  0  0  0  0  0  0
    9.2512    4.2713   13.7653 O   0  0  0  0  0  0  0  0  0  0  0  0
    9.6495    8.6317   16.8332 N   0  0  0  0  0  0  0  0  0  0  0  0
    6.2934    8.6988   23.1988 O   0  0  0  0  0  0  0  0  0  0  0  0
    7.9806    8.6543   20.5437 C   0  0  0  0  0  0  0  0  0  0  0  0
   13.7270    5.7144   19.8610 O   0  0  0  0  0  0  0  0  0  0  0  0
    8.3351    5.5235   15.4478 C   0  0  0  0  0  0  0  0  0  0  0  0
    8.7700    7.8434   21.3915 C   0  0  0  0  0  0  0  0  0  0  0  0
   11.7856    6.8851   19.2401 C   0  0  0  0  0  0  0  0  0  0  0  0
   10.5281    7.4276   19.5649 C   0  0  0  0  0  0  0  0  0  0  0  0
   10.0256    7.2907   20.8484 C   0  0  0  0  0  0  0  0  0  0  0  0
    9.3113    5.3049   14.4911 C   0  0  0  0  0  0  0  0  0  0  0  0
    9.4607    7.5646   16.0139 C   0  0  0  0  0  0  0  0  0  0  0  0
   10.4192    7.3157   15.0955 C   0  0  0  0  0  0  0  0  0  0  0  0
   10.2489    6.4227   23.0218 N   0  0  0  0  0  0  0  0  0  0  0  0
    7.2472    8.0746   23.5050 C   0  0  0  0  0  0  0  0  0  0  0  0
    9.2051    6.9101   23.4604 C   0  0  0  0  0  0  0  0  0  0  0  0
   11.9646    6.0299   21.4251 C   0  0  0  0  0  0  0  0  0  0  0  0
  1  5  1  0
  1 13  1  0
  2 20  2  0
  2 28  1  0
  2 29  1  0
  3 19  4  0
  3 25  4  0
  4 23  4  0
  4 27  1  0
  4 30  4  0
  5 17  1  0
  6  8  1  0
  6 29  1  0
  7 24  4  0
  7 26  4  0
  8 28  1  0
  9 13  2  0
 10 18  1  0
 10 21  4  0
 10 30  4  0
 11 17  2  0
 12 18  1  0
 13 15  1  0
 14 24  1  0
 15 25  1  0
 16 28  2  0
 17 20  1  0
 19 24  4  0
 20 23  1  0
 21 22  4  0
 22 23  4  0
 25 26  4  0
 27 29  2  0
M  END
$$$$

 Created by Python create_sdf_string function

 30 33  0  0  0  0  0  0  0  0999 V2000
    8.3036    9.8571   18.4133 C   0  0  0  0  0  0  0  0  0  0  0  0
    8.3694    7.6612   22.6703 C   0  0  0  0  0  0  0  0  0  0  0  0
    8.4143    6.6863   16.2273 C   0  0  0  0  0  0  0  0  0  0  0  0
   10.7581    6.5674   21.7636 C   0  0  0  0  0  0  0  0  0  0  0  0
    8.4452    8.7960   19.2958 O   0  0  0  0  0  0  0  0  0  0  0  0
    8.7122    6.7842   24.8569 C   0  0  0  0  0  0  0  0  0  0  0  0
   10.3400    6.1726   14.3081 C   0  0  0  0  0  0  0  0  0  0  0  0
    7.4297    7.5873   24.8962 C   0  0  0  0  0  0  0  0  0  0  0  0
    8.1566   10.0536   16.0516 O   0  0  0  0  0  0  0  0  0  0  0  0
   12.4989    6.2074   20.1776 C   0  0  0  0  0  0  0  0  0  0  0  0
    6.9192    9.1053   20.9073 O   0  0  0  0  0  0  0  0  0  0  0  0
   14.3979    6.0729   18.7784 C   0  0  0  0  0  0  0  0  0  0  0  0
    8.6811    9.5354   16.9998 C   0  0  0  0  0  0  0  0  0  0  0  0
    9.2512    4.2713   13.7653 O   0  0  0  0  0  0  0  0  0  0  0  0
    9.6495    8.6317   16.8332 N   0  0  0  0  0  0  0  0  0  0  0  0
    6.2934    8.6988   23.1988 O   0  0  0  0  0  0  0  0  0  0  0  0
    7.9806    8.6543   20.5437 C   0  0  0  0  0  0  0  0  0  0  0  0
   13.7270    5.7144   19.8610 O   0  0  0  0  0  0  0  0  0  0  0  0
    8.3351    5.5235   15.4478 C   0  0  0  0  0  0  0  0  0  0  0  0
    8.7700    7.8434   21.3915 C   0  0  0  0  0  0  0  0  0  0  0  0
   11.7856    6.8851   19.2401 C   0  0  0  0  0  0  0  0  0  0  0  0
   10.5281    7.4276   19.5649 C   0  0  0  0  0  0  0  0  0  0  0  0
   10.0256    7.2907   20.8484 C   0  0  0  0  0  0  0  0  0  0  0  0
    9.3113    5.3049   14.4911 C   0  0  0  0  0  0  0  0  0  0  0  0
    9.4607    7.5646   16.0139 C   0  0  0  0  0  0  0  0  0  0  0  0
   10.4192    7.3157   15.0955 C   0  0  0  0  0  0  0  0  0  0  0  0
   10.2489    6.4227   23.0218 N   0  0  0  0  0  0  0  0  0  0  0  0
    7.2472    8.0746   23.5050 C   0  0  0  0  0  0  0  0  0  0  0  0
    9.2051    6.9101   23.4604 C   0  0  0  0  0  0  0  0  0  0  0  0
   11.9646    6.0299   21.4251 C   0  0  0  0  0  0  0  0  0  0  0  0
  1  5  1  0
  1 13  1  0
  2 20  2  0
  2 28  1  0
  2 29  1  0
  3 19  4  0
  3 25  4  0
  4 23  4  0
  4 27  1  0
  4 30  4  0
  5 17  1  0
  6  8  1  0
  6 29  1  0
  7 24  4  0
  7 26  4  0
  8 28  1  0
  9 13  2  0
 10 18  1  0
 10 21  4  0
 10 30  4  0
 11 17  2  0
 12 18  1  0
 13 15  1  0
 14 24  1  0
 15 25  1  0
 16 28  2  0
 17 20  1  0
 19 24  4  0
 20 23  1  0
 21 22  4  0
 22 23  4  0
 25 26  4  0
 27 29  2  0
M  END
$$$$

 Created by Python create_sdf_string function

 30 33  0  0  0  0  0  0  0  0999 V2000
    8.3036    9.8571   18.4133 C   0  0  0  0  0  0  0  0  0  0  0  0
    8.3694    7.6612   22.6703 C   0  0  0  0  0  0  0  0  0  0  0  0
    8.4143    6.6863   16.2273 C   0  0  0  0  0  0  0  0  0  0  0  0
   10.7581    6.5674   21.7636 C   0  0  0  0  0  0  0  0  0  0  0  0
    8.4452    8.7960   19.2958 O   0  0  0  0  0  0  0  0  0  0  0  0
    8.7122    6.7842   24.8569 C   0  0  0  0  0  0  0  0  0  0  0  0
   10.3400    6.1726   14.3081 C   0  0  0  0  0  0  0  0  0  0  0  0
    7.4297    7.5873   24.8962 C   0  0  0  0  0  0  0  0  0  0  0  0
    8.1566   10.0536   16.0516 O   0  0  0  0  0  0  0  0  0  0  0  0
   12.4989    6.2074   20.1776 C   0  0  0  0  0  0  0  0  0  0  0  0
    6.9192    9.1053   20.9073 O   0  0  0  0  0  0  0  0  0  0  0  0
   14.3979    6.0729   18.7784 C   0  0  0  0  0  0  0  0  0  0  0  0
    8.6811    9.5354   16.9998 C   0  0  0  0  0  0  0  0  0  0  0  0
    9.2512    4.2713   13.7653 O   0  0  0  0  0  0  0  0  0  0  0  0
    9.6495    8.6317   16.8332 N   0  0  0  0  0  0  0  0  0  0  0  0
    6.2934    8.6988   23.1988 O   0  0  0  0  0  0  0  0  0  0  0  0
    7.9806    8.6543   20.5437 C   0  0  0  0  0  0  0  0  0  0  0  0
   13.7270    5.7144   19.8610 O   0  0  0  0  0  0  0  0  0  0  0  0
    8.3351    5.5235   15.4478 C   0  0  0  0  0  0  0  0  0  0  0  0
    8.7700    7.8434   21.3915 C   0  0  0  0  0  0  0  0  0  0  0  0
   11.7856    6.8851   19.2401 C   0  0  0  0  0  0  0  0  0  0  0  0
   10.5281    7.4276   19.5649 C   0  0  0  0  0  0  0  0  0  0  0  0
   10.0256    7.2907   20.8484 C   0  0  0  0  0  0  0  0  0  0  0  0
    9.3113    5.3049   14.4911 C   0  0  0  0  0  0  0  0  0  0  0  0
    9.4607    7.5646   16.0139 C   0  0  0  0  0  0  0  0  0  0  0  0
   10.4192    7.3157   15.0955 C   0  0  0  0  0  0  0  0  0  0  0  0
   10.2489    6.4227   23.0218 N   0  0  0  0  0  0  0  0  0  0  0  0
    7.2472    8.0746   23.5050 C   0  0  0  0  0  0  0  0  0  0  0  0
    9.2051    6.9101   23.4604 C   0  0  0  0  0  0  0  0  0  0  0  0
   11.9646    6.0299   21.4251 C   0  0  0  0  0  0  0  0  0  0  0  0
  1  5  1  0
  1 13  1  0
  2 20  2  0
  2 28  1  0
  2 29  1  0
  3 19  4  0
  3 25  4  0
  4 23  4  0
  4 27  1  0
  4 30  4  0
  5 17  1  0
  6  8  1  0
  6 29  1  0
  7 24  4  0
  7 26  4  0
  8 28  1  0
  9 13  2  0
 10 18  1  0
 10 21  4  0
 10 30  4  0
 11 17  2  0
 12 18  1  0
 13 15  1  0
 14 24  1  0
 15 25  1  0
 16 28  2  0
 17 20  1  0
 19 24  4  0
 20 23  1  0
 21 22  4  0
 22 23  4  0
 25 26  4  0
 27 29  2  0
M  END
$$$$

 Created by Python create_sdf_string function

 30 33  0  0  0  0  0  0  0  0999 V2000
    8.3036    9.8571   18.4133 C   0  0  0  0  0  0  0  0  0  0  0  0
    8.3694    7.6612   22.6703 C   0  0  0  0  0  0  0  0  0  0  0  0
    8.4143    6.6863   16.2273 C   0  0  0  0  0  0  0  0  0  0  0  0
   10.7581    6.5674   21.7636 C   0  0  0  0  0  0  0  0  0  0  0  0
    8.4452    8.7960   19.2958 O   0  0  0  0  0  0  0  0  0  0  0  0
    8.7122    6.7842   24.8569 C   0  0  0  0  0  0  0  0  0  0  0  0
   10.3400    6.1726   14.3081 C   0  0  0  0  0  0  0  0  0  0  0  0
    7.4297    7.5873   24.8962 C   0  0  0  0  0  0  0  0  0  0  0  0
    8.1566   10.0536   16.0516 O   0  0  0  0  0  0  0  0  0  0  0  0
   12.4989    6.2074   20.1776 C   0  0  0  0  0  0  0  0  0  0  0  0
    6.9192    9.1053   20.9073 O   0  0  0  0  0  0  0  0  0  0  0  0
   14.3979    6.0729   18.7784 C   0  0  0  0  0  0  0  0  0  0  0  0
    8.6811    9.5354   16.9998 C   0  0  0  0  0  0  0  0  0  0  0  0
    9.2512    4.2713   13.7653 O   0  0  0  0  0  0  0  0  0  0  0  0
    9.6495    8.6317   16.8332 N   0  0  0  0  0  0  0  0  0  0  0  0
    6.2934    8.6988   23.1988 O   0  0  0  0  0  0  0  0  0  0  0  0
    7.9806    8.6543   20.5437 C   0  0  0  0  0  0  0  0  0  0  0  0
   13.7270    5.7144   19.8610 O   0  0  0  0  0  0  0  0  0  0  0  0
    8.3351    5.5235   15.4478 C   0  0  0  0  0  0  0  0  0  0  0  0
    8.7700    7.8434   21.3915 C   0  0  0  0  0  0  0  0  0  0  0  0
   11.7856    6.8851   19.2401 C   0  0  0  0  0  0  0  0  0  0  0  0
   10.5281    7.4276   19.5649 C   0  0  0  0  0  0  0  0  0  0  0  0
   10.0256    7.2907   20.8484 C   0  0  0  0  0  0  0  0  0  0  0  0
    9.3113    5.3049   14.4911 C   0  0  0  0  0  0  0  0  0  0  0  0
    9.4607    7.5646   16.0139 C   0  0  0  0  0  0  0  0  0  0  0  0
   10.4192    7.3157   15.0955 C   0  0  0  0  0  0  0  0  0  0  0  0
   10.2489    6.4227   23.0218 N   0  0  0  0  0  0  0  0  0  0  0  0
    7.2472    8.0746   23.5050 C   0  0  0  0  0  0  0  0  0  0  0  0
    9.2051    6.9101   23.4604 C   0  0  0  0  0  0  0  0  0  0  0  0
   11.9646    6.0299   21.4251 C   0  0  0  0  0  0  0  0  0  0  0  0
  1  5  1  0
  1 13  1  0
  2 20  2  0
  2 28  1  0
  2 29  1  0
  3 19  4  0
  3 25  4  0
  4 23  4  0
  4 27  1  0
  4 30  4  0
  5 17  1  0
  6  8  1  0
  6 29  1  0
  7 24  4  0
  7 26  4  0
  8 28  1  0
  9 13  2  0
 10 18  1  0
 10 21  4  0
 10 30  4  0
 11 17  2  0
 12 18  1  0
 13 15  1  0
 14 24  1  0
 15 25  1  0
 16 28  2  0
 17 20  1  0
 19 24  4  0
 20 23  1  0
 21 22  4  0
 22 23  4  0
 25 26  4  0
 27 29  2  0
M  END
$$$$

 Created by Python create_sdf_string function

 30 33  0  0  0  0  0  0  0  0999 V2000
    8.3036    9.8571   18.4133 C   0  0  0  0  0  0  0  0  0  0  0  0
    8.3694    7.6612   22.6703 C   0  0  0  0  0  0  0  0  0  0  0  0
    8.4143    6.6863   16.2273 C   0  0  0  0  0  0  0  0  0  0  0  0
   10.7581    6.5674   21.7636 C   0  0  0  0  0  0  0  0  0  0  0  0
    8.4452    8.7960   19.2958 O   0  0  0  0  0  0  0  0  0  0  0  0
    8.7122    6.7842   24.8569 C   0  0  0  0  0  0  0  0  0  0  0  0
   10.3400    6.1726   14.3081 C   0  0  0  0  0  0  0  0  0  0  0  0
    7.4297    7.5873   24.8962 C   0  0  0  0  0  0  0  0  0  0  0  0
    8.1566   10.0536   16.0516 O   0  0  0  0  0  0  0  0  0  0  0  0
   12.4989    6.2074   20.1776 C   0  0  0  0  0  0  0  0  0  0  0  0
    6.9192    9.1053   20.9073 O   0  0  0  0  0  0  0  0  0  0  0  0
   14.3979    6.0729   18.7784 C   0  0  0  0  0  0  0  0  0  0  0  0
    8.6811    9.5354   16.9998 C   0  0  0  0  0  0  0  0  0  0  0  0
    9.2512    4.2713   13.7653 O   0  0  0  0  0  0  0  0  0  0  0  0
    9.6495    8.6317   16.8332 N   0  0  0  0  0  0  0  0  0  0  0  0
    6.2934    8.6988   23.1988 O   0  0  0  0  0  0  0  0  0  0  0  0
    7.9806    8.6543   20.5437 C   0  0  0  0  0  0  0  0  0  0  0  0
   13.7270    5.7144   19.8610 O   0  0  0  0  0  0  0  0  0  0  0  0
    8.3351    5.5235   15.4478 C   0  0  0  0  0  0  0  0  0  0  0  0
    8.7700    7.8434   21.3915 C   0  0  0  0  0  0  0  0  0  0  0  0
   11.7856    6.8851   19.2401 C   0  0  0  0  0  0  0  0  0  0  0  0
   10.5281    7.4276   19.5649 C   0  0  0  0  0  0  0  0  0  0  0  0
   10.0256    7.2907   20.8484 C   0  0  0  0  0  0  0  0  0  0  0  0
    9.3113    5.3049   14.4911 C   0  0  0  0  0  0  0  0  0  0  0  0
    9.4607    7.5646   16.0139 C   0  0  0  0  0  0  0  0  0  0  0  0
   10.4192    7.3157   15.0955 C   0  0  0  0  0  0  0  0  0  0  0  0
   10.2489    6.4227   23.0218 N   0  0  0  0  0  0  0  0  0  0  0  0
    7.2472    8.0746   23.5050 C   0  0  0  0  0  0  0  0  0  0  0  0
    9.2051    6.9101   23.4604 C   0  0  0  0  0  0  0  0  0  0  0  0
   11.9646    6.0299   21.4251 C   0  0  0  0  0  0  0  0  0  0  0  0
  1  5  1  0
  1 13  1  0
  2 20  2  0
  2 28  1  0
  2 29  1  0
  3 19  4  0
  3 25  4  0
  4 23  4  0
  4 27  1  0
  4 30  4  0
  5 17  1  0
  6  8  1  0
  6 29  1  0
  7 24  4  0
  7 26  4  0
  8 28  1  0
  9 13  2  0
 10 18  1  0
 10 21  4  0
 10 30  4  0
 11 17  2  0
 12 18  1  0
 13 15  1  0
 14 24  1  0
 15 25  1  0
 16 28  2  0
 17 20  1  0
 19 24  4  0
 20 23  1  0
 21 22  4  0
 22 23  4  0
 25 26  4  0
 27 29  2  0
M  END
$$$$

 Created by Python create_sdf_string function

 30 33  0  0  0  0  0  0  0  0999 V2000
    8.3036    9.8571   18.4133 C   0  0  0  0  0  0  0  0  0  0  0  0
    8.3694    7.6612   22.6703 C   0  0  0  0  0  0  0  0  0  0  0  0
    8.4143    6.6863   16.2273 C   0  0  0  0  0  0  0  0  0  0  0  0
   10.7581    6.5674   21.7636 C   0  0  0  0  0  0  0  0  0  0  0  0
    8.4452    8.7960   19.2958 O   0  0  0  0  0  0  0  0  0  0  0  0
    8.7122    6.7842   24.8569 C   0  0  0  0  0  0  0  0  0  0  0  0
   10.3400    6.1726   14.3081 C   0  0  0  0  0  0  0  0  0  0  0  0
    7.4297    7.5873   24.8962 C   0  0  0  0  0  0  0  0  0  0  0  0
    8.1566   10.0536   16.0516 O   0  0  0  0  0  0  0  0  0  0  0  0
   12.4989    6.2074   20.1776 C   0  0  0  0  0  0  0  0  0  0  0  0
    6.9192    9.1053   20.9073 O   0  0  0  0  0  0  0  0  0  0  0  0
   14.3979    6.0729   18.7784 C   0  0  0  0  0  0  0  0  0  0  0  0
    8.6811    9.5354   16.9998 C   0  0  0  0  0  0  0  0  0  0  0  0
    9.2512    4.2713   13.7653 O   0  0  0  0  0  0  0  0  0  0  0  0
    9.6495    8.6317   16.8332 N   0  0  0  0  0  0  0  0  0  0  0  0
    6.2934    8.6988   23.1988 O   0  0  0  0  0  0  0  0  0  0  0  0
    7.9806    8.6543   20.5437 C   0  0  0  0  0  0  0  0  0  0  0  0
   13.7270    5.7144   19.8610 O   0  0  0  0  0  0  0  0  0  0  0  0
    8.3351    5.5235   15.4478 C   0  0  0  0  0  0  0  0  0  0  0  0
    8.7700    7.8434   21.3915 C   0  0  0  0  0  0  0  0  0  0  0  0
   11.7856    6.8851   19.2401 C   0  0  0  0  0  0  0  0  0  0  0  0
   10.5281    7.4276   19.5649 C   0  0  0  0  0  0  0  0  0  0  0  0
   10.0256    7.2907   20.8484 C   0  0  0  0  0  0  0  0  0  0  0  0
    9.3113    5.3049   14.4911 C   0  0  0  0  0  0  0  0  0  0  0  0
    9.4607    7.5646   16.0139 C   0  0  0  0  0  0  0  0  0  0  0  0
   10.4192    7.3157   15.0955 C   0  0  0  0  0  0  0  0  0  0  0  0
   10.2489    6.4227   23.0218 N   0  0  0  0  0  0  0  0  0  0  0  0
    7.2472    8.0746   23.5050 C   0  0  0  0  0  0  0  0  0  0  0  0
    9.2051    6.9101   23.4604 C   0  0  0  0  0  0  0  0  0  0  0  0
   11.9646    6.0299   21.4251 C   0  0  0  0  0  0  0  0  0  0  0  0
  1  5  1  0
  1 13  1  0
  2 20  2  0
  2 28  1  0
  2 29  1  0
  3 19  4  0
  3 25  4  0
  4 23  4  0
  4 27  1  0
  4 30  4  0
  5 17  1  0
  6  8  1  0
  6 29  1  0
  7 24  4  0
  7 26  4  0
  8 28  1  0
  9 13  2  0
 10 18  1  0
 10 21  4  0
 10 30  4  0
 11 17  2  0
 12 18  1  0
 13 15  1  0
 14 24  1  0
 15 25  1  0
 16 28  2  0
 17 20  1  0
 19 24  4  0
 20 23  1  0
 21 22  4  0
 22 23  4  0
 25 26  4  0
 27 29  2  0
M  END
$$$$

 Created by Python create_sdf_string function

 30 33  0  0  0  0  0  0  0  0999 V2000
    8.3036    9.8571   18.4133 C   0  0  0  0  0  0  0  0  0  0  0  0
    8.3694    7.6612   22.6703 C   0  0  0  0  0  0  0  0  0  0  0  0
    8.4143    6.6863   16.2273 C   0  0  0  0  0  0  0  0  0  0  0  0
   10.7581    6.5674   21.7636 C   0  0  0  0  0  0  0  0  0  0  0  0
    8.4452    8.7960   19.2958 O   0  0  0  0  0  0  0  0  0  0  0  0
    8.7122    6.7842   24.8569 C   0  0  0  0  0  0  0  0  0  0  0  0
   10.3400    6.1726   14.3081 C   0  0  0  0  0  0  0  0  0  0  0  0
    7.4297    7.5873   24.8962 C   0  0  0  0  0  0  0  0  0  0  0  0
    8.1566   10.0536   16.0516 O   0  0  0  0  0  0  0  0  0  0  0  0
   12.4989    6.2074   20.1776 C   0  0  0  0  0  0  0  0  0  0  0  0
    6.9192    9.1053   20.9073 O   0  0  0  0  0  0  0  0  0  0  0  0
   14.3979    6.0729   18.7784 C   0  0  0  0  0  0  0  0  0  0  0  0
    8.6811    9.5354   16.9998 C   0  0  0  0  0  0  0  0  0  0  0  0
    9.2512    4.2713   13.7653 O   0  0  0  0  0  0  0  0  0  0  0  0
    9.6495    8.6317   16.8332 N   0  0  0  0  0  0  0  0  0  0  0  0
    6.2934    8.6988   23.1988 O   0  0  0  0  0  0  0  0  0  0  0  0
    7.9806    8.6543   20.5437 C   0  0  0  0  0  0  0  0  0  0  0  0
   13.7270    5.7144   19.8610 O   0  0  0  0  0  0  0  0  0  0  0  0
    8.3351    5.5235   15.4478 C   0  0  0  0  0  0  0  0  0  0  0  0
    8.7700    7.8434   21.3915 C   0  0  0  0  0  0  0  0  0  0  0  0
   11.7856    6.8851   19.2401 C   0  0  0  0  0  0  0  0  0  0  0  0
   10.5281    7.4276   19.5649 C   0  0  0  0  0  0  0  0  0  0  0  0
   10.0256    7.2907   20.8484 C   0  0  0  0  0  0  0  0  0  0  0  0
    9.3113    5.3049   14.4911 C   0  0  0  0  0  0  0  0  0  0  0  0
    9.4607    7.5646   16.0139 C   0  0  0  0  0  0  0  0  0  0  0  0
   10.4192    7.3157   15.0955 C   0  0  0  0  0  0  0  0  0  0  0  0
   10.2489    6.4227   23.0218 N   0  0  0  0  0  0  0  0  0  0  0  0
    7.2472    8.0746   23.5050 C   0  0  0  0  0  0  0  0  0  0  0  0
    9.2051    6.9101   23.4604 C   0  0  0  0  0  0  0  0  0  0  0  0
   11.9646    6.0299   21.4251 C   0  0  0  0  0  0  0  0  0  0  0  0
  1  5  1  0
  1 13  1  0
  2 20  2  0
  2 28  1  0
  2 29  1  0
  3 19  4  0
  3 25  4  0
  4 23  4  0
  4 27  1  0
  4 30  4  0
  5 17  1  0
  6  8  1  0
  6 29  1  0
  7 24  4  0
  7 26  4  0
  8 28  1  0
  9 13  2  0
 10 18  1  0
 10 21  4  0
 10 30  4  0
 11 17  2  0
 12 18  1  0
 13 15  1  0
 14 24  1  0
 15 25  1  0
 16 28  2  0
 17 20  1  0
 19 24  4  0
 20 23  1  0
 21 22  4  0
 22 23  4  0
 25 26  4  0
 27 29  2  0
M  END
$$$$

 Created by Python create_sdf_string function

 30 33  0  0  0  0  0  0  0  0999 V2000
    8.3036    9.8571   18.4133 C   0  0  0  0  0  0  0  0  0  0  0  0
    8.3694    7.6612   22.6703 C   0  0  0  0  0  0  0  0  0  0  0  0
    8.4143    6.6863   16.2273 C   0  0  0  0  0  0  0  0  0  0  0  0
   10.7581    6.5674   21.7636 C   0  0  0  0  0  0  0  0  0  0  0  0
    8.4452    8.7960   19.2958 O   0  0  0  0  0  0  0  0  0  0  0  0
    8.7122    6.7842   24.8569 C   0  0  0  0  0  0  0  0  0  0  0  0
   10.3400    6.1726   14.3081 C   0  0  0  0  0  0  0  0  0  0  0  0
    7.4297    7.5873   24.8962 C   0  0  0  0  0  0  0  0  0  0  0  0
    8.1566   10.0536   16.0516 O   0  0  0  0  0  0  0  0  0  0  0  0
   12.4989    6.2074   20.1776 C   0  0  0  0  0  0  0  0  0  0  0  0
    6.9192    9.1053   20.9073 O   0  0  0  0  0  0  0  0  0  0  0  0
   14.3979    6.0729   18.7784 C   0  0  0  0  0  0  0  0  0  0  0  0
    8.6811    9.5354   16.9998 C   0  0  0  0  0  0  0  0  0  0  0  0
    9.2512    4.2713   13.7653 O   0  0  0  0  0  0  0  0  0  0  0  0
    9.6495    8.6317   16.8332 N   0  0  0  0  0  0  0  0  0  0  0  0
    6.2934    8.6988   23.1988 O   0  0  0  0  0  0  0  0  0  0  0  0
    7.9806    8.6543   20.5437 C   0  0  0  0  0  0  0  0  0  0  0  0
   13.7270    5.7144   19.8610 O   0  0  0  0  0  0  0  0  0  0  0  0
    8.3351    5.5235   15.4478 C   0  0  0  0  0  0  0  0  0  0  0  0
    8.7700    7.8434   21.3915 C   0  0  0  0  0  0  0  0  0  0  0  0
   11.7856    6.8851   19.2401 C   0  0  0  0  0  0  0  0  0  0  0  0
   10.5281    7.4276   19.5649 C   0  0  0  0  0  0  0  0  0  0  0  0
   10.0256    7.2907   20.8484 C   0  0  0  0  0  0  0  0  0  0  0  0
    9.3113    5.3049   14.4911 C   0  0  0  0  0  0  0  0  0  0  0  0
    9.4607    7.5646   16.0139 C   0  0  0  0  0  0  0  0  0  0  0  0
   10.4192    7.3157   15.0955 C   0  0  0  0  0  0  0  0  0  0  0  0
   10.2489    6.4227   23.0218 N   0  0  0  0  0  0  0  0  0  0  0  0
    7.2472    8.0746   23.5050 C   0  0  0  0  0  0  0  0  0  0  0  0
    9.2051    6.9101   23.4604 C   0  0  0  0  0  0  0  0  0  0  0  0
   11.9646    6.0299   21.4251 C   0  0  0  0  0  0  0  0  0  0  0  0
  1  5  1  0
  1 13  1  0
  2 20  2  0
  2 28  1  0
  2 29  1  0
  3 19  4  0
  3 25  4  0
  4 23  4  0
  4 27  1  0
  4 30  4  0
  5 17  1  0
  6  8  1  0
  6 29  1  0
  7 24  4  0
  7 26  4  0
  8 28  1  0
  9 13  2  0
 10 18  1  0
 10 21  4  0
 10 30  4  0
 11 17  2  0
 12 18  1  0
 13 15  1  0
 14 24  1  0
 15 25  1  0
 16 28  2  0
 17 20  1  0
 19 24  4  0
 20 23  1  0
 21 22  4  0
 22 23  4  0
 25 26  4  0
 27 29  2  0
M  END
$$$$

 Created by Python create_sdf_string function

 30 33  0  0  0  0  0  0  0  0999 V2000
    8.3036    9.8571   18.4133 C   0  0  0  0  0  0  0  0  0  0  0  0
    8.3694    7.6612   22.6703 C   0  0  0  0  0  0  0  0  0  0  0  0
    8.4143    6.6863   16.2273 C   0  0  0  0  0  0  0  0  0  0  0  0
   10.7581    6.5674   21.7636 C   0  0  0  0  0  0  0  0  0  0  0  0
    8.4452    8.7960   19.2958 O   0  0  0  0  0  0  0  0  0  0  0  0
    8.7122    6.7842   24.8569 C   0  0  0  0  0  0  0  0  0  0  0  0
   10.3400    6.1726   14.3081 C   0  0  0  0  0  0  0  0  0  0  0  0
    7.4297    7.5873   24.8962 C   0  0  0  0  0  0  0  0  0  0  0  0
    8.1566   10.0536   16.0516 O   0  0  0  0  0  0  0  0  0  0  0  0
   12.4989    6.2074   20.1776 C   0  0  0  0  0  0  0  0  0  0  0  0
    6.9192    9.1053   20.9073 O   0  0  0  0  0  0  0  0  0  0  0  0
   14.3979    6.0729   18.7784 C   0  0  0  0  0  0  0  0  0  0  0  0
    8.6811    9.5354   16.9998 C   0  0  0  0  0  0  0  0  0  0  0  0
    9.2512    4.2713   13.7653 O   0  0  0  0  0  0  0  0  0  0  0  0
    9.6495    8.6317   16.8332 N   0  0  0  0  0  0  0  0  0  0  0  0
    6.2934    8.6988   23.1988 O   0  0  0  0  0  0  0  0  0  0  0  0
    7.9806    8.6543   20.5437 C   0  0  0  0  0  0  0  0  0  0  0  0
   13.7270    5.7144   19.8610 O   0  0  0  0  0  0  0  0  0  0  0  0
    8.3351    5.5235   15.4478 C   0  0  0  0  0  0  0  0  0  0  0  0
    8.7700    7.8434   21.3915 C   0  0  0  0  0  0  0  0  0  0  0  0
   11.7856    6.8851   19.2401 C   0  0  0  0  0  0  0  0  0  0  0  0
   10.5281    7.4276   19.5649 C   0  0  0  0  0  0  0  0  0  0  0  0
   10.0256    7.2907   20.8484 C   0  0  0  0  0  0  0  0  0  0  0  0
    9.3113    5.3049   14.4911 C   0  0  0  0  0  0  0  0  0  0  0  0
    9.4607    7.5646   16.0139 C   0  0  0  0  0  0  0  0  0  0  0  0
   10.4192    7.3157   15.0955 C   0  0  0  0  0  0  0  0  0  0  0  0
   10.2489    6.4227   23.0218 N   0  0  0  0  0  0  0  0  0  0  0  0
    7.2472    8.0746   23.5050 C   0  0  0  0  0  0  0  0  0  0  0  0
    9.2051    6.9101   23.4604 C   0  0  0  0  0  0  0  0  0  0  0  0
   11.9646    6.0299   21.4251 C   0  0  0  0  0  0  0  0  0  0  0  0
  1  5  1  0
  1 13  1  0
  2 20  2  0
  2 28  1  0
  2 29  1  0
  3 19  4  0
  3 25  4  0
  4 23  4  0
  4 27  1  0
  4 30  4  0
  5 17  1  0
  6  8  1  0
  6 29  1  0
  7 24  4  0
  7 26  4  0
  8 28  1  0
  9 13  2  0
 10 18  1  0
 10 21  4  0
 10 30  4  0
 11 17  2  0
 12 18  1  0
 13 15  1  0
 14 24  1  0
 15 25  1  0
 16 28  2  0
 17 20  1  0
 19 24  4  0
 20 23  1  0
 21 22  4  0
 22 23  4  0
 25 26  4  0
 27 29  2  0
M  END
$$$$

 Created by Python create_sdf_string function

 30 33  0  0  0  0  0  0  0  0999 V2000
    8.3036    9.8571   18.4133 C   0  0  0  0  0  0  0  0  0  0  0  0
    8.3694    7.6612   22.6703 C   0  0  0  0  0  0  0  0  0  0  0  0
    8.4143    6.6863   16.2273 C   0  0  0  0  0  0  0  0  0  0  0  0
   10.7581    6.5674   21.7636 C   0  0  0  0  0  0  0  0  0  0  0  0
    8.4452    8.7960   19.2958 O   0  0  0  0  0  0  0  0  0  0  0  0
    8.7122    6.7842   24.8569 C   0  0  0  0  0  0  0  0  0  0  0  0
   10.3400    6.1726   14.3081 C   0  0  0  0  0  0  0  0  0  0  0  0
    7.4297    7.5873   24.8962 C   0  0  0  0  0  0  0  0  0  0  0  0
    8.1566   10.0536   16.0516 O   0  0  0  0  0  0  0  0  0  0  0  0
   12.4989    6.2074   20.1776 C   0  0  0  0  0  0  0  0  0  0  0  0
    6.9192    9.1053   20.9073 O   0  0  0  0  0  0  0  0  0  0  0  0
   14.3979    6.0729   18.7784 C   0  0  0  0  0  0  0  0  0  0  0  0
    8.6811    9.5354   16.9998 C   0  0  0  0  0  0  0  0  0  0  0  0
    9.2512    4.2713   13.7653 O   0  0  0  0  0  0  0  0  0  0  0  0
    9.6495    8.6317   16.8332 N   0  0  0  0  0  0  0  0  0  0  0  0
    6.2934    8.6988   23.1988 O   0  0  0  0  0  0  0  0  0  0  0  0
    7.9806    8.6543   20.5437 C   0  0  0  0  0  0  0  0  0  0  0  0
   13.7270    5.7144   19.8610 O   0  0  0  0  0  0  0  0  0  0  0  0
    8.3351    5.5235   15.4478 C   0  0  0  0  0  0  0  0  0  0  0  0
    8.7700    7.8434   21.3915 C   0  0  0  0  0  0  0  0  0  0  0  0
   11.7856    6.8851   19.2401 C   0  0  0  0  0  0  0  0  0  0  0  0
   10.5281    7.4276   19.5649 C   0  0  0  0  0  0  0  0  0  0  0  0
   10.0256    7.2907   20.8484 C   0  0  0  0  0  0  0  0  0  0  0  0
    9.3113    5.3049   14.4911 C   0  0  0  0  0  0  0  0  0  0  0  0
    9.4607    7.5646   16.0139 C   0  0  0  0  0  0  0  0  0  0  0  0
   10.4192    7.3157   15.0955 C   0  0  0  0  0  0  0  0  0  0  0  0
   10.2489    6.4227   23.0218 N   0  0  0  0  0  0  0  0  0  0  0  0
    7.2472    8.0746   23.5050 C   0  0  0  0  0  0  0  0  0  0  0  0
    9.2051    6.9101   23.4604 C   0  0  0  0  0  0  0  0  0  0  0  0
   11.9646    6.0299   21.4251 C   0  0  0  0  0  0  0  0  0  0  0  0
  1  5  1  0
  1 13  1  0
  2 20  2  0
  2 28  1  0
  2 29  1  0
  3 19  4  0
  3 25  4  0
  4 23  4  0
  4 27  1  0
  4 30  4  0
  5 17  1  0
  6  8  1  0
  6 29  1  0
  7 24  4  0
  7 26  4  0
  8 28  1  0
  9 13  2  0
 10 18  1  0
 10 21  4  0
 10 30  4  0
 11 17  2  0
 12 18  1  0
 13 15  1  0
 14 24  1  0
 15 25  1  0
 16 28  2  0
 17 20  1  0
 19 24  4  0
 20 23  1  0
 21 22  4  0
 22 23  4  0
 25 26  4  0
 27 29  2  0
M  END
$$$$

 Created by Python create_sdf_string function

 30 33  0  0  0  0  0  0  0  0999 V2000
    8.3036    9.8571   18.4133 C   0  0  0  0  0  0  0  0  0  0  0  0
    8.3694    7.6612   22.6703 C   0  0  0  0  0  0  0  0  0  0  0  0
    8.4143    6.6863   16.2273 C   0  0  0  0  0  0  0  0  0  0  0  0
   10.7581    6.5674   21.7636 C   0  0  0  0  0  0  0  0  0  0  0  0
    8.4452    8.7960   19.2958 O   0  0  0  0  0  0  0  0  0  0  0  0
    8.7122    6.7842   24.8569 C   0  0  0  0  0  0  0  0  0  0  0  0
   10.3400    6.1726   14.3081 C   0  0  0  0  0  0  0  0  0  0  0  0
    7.4297    7.5873   24.8962 C   0  0  0  0  0  0  0  0  0  0  0  0
    8.1566   10.0536   16.0516 O   0  0  0  0  0  0  0  0  0  0  0  0
   12.4989    6.2074   20.1776 C   0  0  0  0  0  0  0  0  0  0  0  0
    6.9192    9.1053   20.9073 O   0  0  0  0  0  0  0  0  0  0  0  0
   14.3979    6.0729   18.7784 C   0  0  0  0  0  0  0  0  0  0  0  0
    8.6811    9.5354   16.9998 C   0  0  0  0  0  0  0  0  0  0  0  0
    9.2512    4.2713   13.7653 O   0  0  0  0  0  0  0  0  0  0  0  0
    9.6495    8.6317   16.8332 N   0  0  0  0  0  0  0  0  0  0  0  0
    6.2934    8.6988   23.1988 O   0  0  0  0  0  0  0  0  0  0  0  0
    7.9806    8.6543   20.5437 C   0  0  0  0  0  0  0  0  0  0  0  0
   13.7270    5.7144   19.8610 O   0  0  0  0  0  0  0  0  0  0  0  0
    8.3351    5.5235   15.4478 C   0  0  0  0  0  0  0  0  0  0  0  0
    8.7700    7.8434   21.3915 C   0  0  0  0  0  0  0  0  0  0  0  0
   11.7856    6.8851   19.2401 C   0  0  0  0  0  0  0  0  0  0  0  0
   10.5281    7.4276   19.5649 C   0  0  0  0  0  0  0  0  0  0  0  0
   10.0256    7.2907   20.8484 C   0  0  0  0  0  0  0  0  0  0  0  0
    9.3113    5.3049   14.4911 C   0  0  0  0  0  0  0  0  0  0  0  0
    9.4607    7.5646   16.0139 C   0  0  0  0  0  0  0  0  0  0  0  0
   10.4192    7.3157   15.0955 C   0  0  0  0  0  0  0  0  0  0  0  0
   10.2489    6.4227   23.0218 N   0  0  0  0  0  0  0  0  0  0  0  0
    7.2472    8.0746   23.5050 C   0  0  0  0  0  0  0  0  0  0  0  0
    9.2051    6.9101   23.4604 C   0  0  0  0  0  0  0  0  0  0  0  0
   11.9646    6.0299   21.4251 C   0  0  0  0  0  0  0  0  0  0  0  0
  1  5  1  0
  1 13  1  0
  2 20  2  0
  2 28  1  0
  2 29  1  0
  3 19  4  0
  3 25  4  0
  4 23  4  0
  4 27  1  0
  4 30  4  0
  5 17  1  0
  6  8  1  0
  6 29  1  0
  7 24  4  0
  7 26  4  0
  8 28  1  0
  9 13  2  0
 10 18  1  0
 10 21  4  0
 10 30  4  0
 11 17  2  0
 12 18  1  0
 13 15  1  0
 14 24  1  0
 15 25  1  0
 16 28  2  0
 17 20  1  0
 19 24  4  0
 20 23  1  0
 21 22  4  0
 22 23  4  0
 25 26  4  0
 27 29  2  0
M  END
$$$$

 Created by Python create_sdf_string function

 30 33  0  0  0  0  0  0  0  0999 V2000
    8.3036    9.8571   18.4133 C   0  0  0  0  0  0  0  0  0  0  0  0
    8.3694    7.6612   22.6703 C   0  0  0  0  0  0  0  0  0  0  0  0
    8.4143    6.6863   16.2273 C   0  0  0  0  0  0  0  0  0  0  0  0
   10.7581    6.5674   21.7636 C   0  0  0  0  0  0  0  0  0  0  0  0
    8.4452    8.7960   19.2958 O   0  0  0  0  0  0  0  0  0  0  0  0
    8.7122    6.7842   24.8569 C   0  0  0  0  0  0  0  0  0  0  0  0
   10.3400    6.1726   14.3081 C   0  0  0  0  0  0  0  0  0  0  0  0
    7.4297    7.5873   24.8962 C   0  0  0  0  0  0  0  0  0  0  0  0
    8.1566   10.0536   16.0516 O   0  0  0  0  0  0  0  0  0  0  0  0
   12.4989    6.2074   20.1776 C   0  0  0  0  0  0  0  0  0  0  0  0
    6.9192    9.1053   20.9073 O   0  0  0  0  0  0  0  0  0  0  0  0
   14.3979    6.0729   18.7784 C   0  0  0  0  0  0  0  0  0  0  0  0
    8.6811    9.5354   16.9998 C   0  0  0  0  0  0  0  0  0  0  0  0
    9.2512    4.2713   13.7653 O   0  0  0  0  0  0  0  0  0  0  0  0
    9.6495    8.6317   16.8332 N   0  0  0  0  0  0  0  0  0  0  0  0
    6.2934    8.6988   23.1988 O   0  0  0  0  0  0  0  0  0  0  0  0
    7.9806    8.6543   20.5437 C   0  0  0  0  0  0  0  0  0  0  0  0
   13.7270    5.7144   19.8610 O   0  0  0  0  0  0  0  0  0  0  0  0
    8.3351    5.5235   15.4478 C   0  0  0  0  0  0  0  0  0  0  0  0
    8.7700    7.8434   21.3915 C   0  0  0  0  0  0  0  0  0  0  0  0
   11.7856    6.8851   19.2401 C   0  0  0  0  0  0  0  0  0  0  0  0
   10.5281    7.4276   19.5649 C   0  0  0  0  0  0  0  0  0  0  0  0
   10.0256    7.2907   20.8484 C   0  0  0  0  0  0  0  0  0  0  0  0
    9.3113    5.3049   14.4911 C   0  0  0  0  0  0  0  0  0  0  0  0
    9.4607    7.5646   16.0139 C   0  0  0  0  0  0  0  0  0  0  0  0
   10.4192    7.3157   15.0955 C   0  0  0  0  0  0  0  0  0  0  0  0
   10.2489    6.4227   23.0218 N   0  0  0  0  0  0  0  0  0  0  0  0
    7.2472    8.0746   23.5050 C   0  0  0  0  0  0  0  0  0  0  0  0
    9.2051    6.9101   23.4604 C   0  0  0  0  0  0  0  0  0  0  0  0
   11.9646    6.0299   21.4251 C   0  0  0  0  0  0  0  0  0  0  0  0
  1  5  1  0
  1 13  1  0
  2 20  2  0
  2 28  1  0
  2 29  1  0
  3 19  4  0
  3 25  4  0
  4 23  4  0
  4 27  1  0
  4 30  4  0
  5 17  1  0
  6  8  1  0
  6 29  1  0
  7 24  4  0
  7 26  4  0
  8 28  1  0
  9 13  2  0
 10 18  1  0
 10 21  4  0
 10 30  4  0
 11 17  2  0
 12 18  1  0
 13 15  1  0
 14 24  1  0
 15 25  1  0
 16 28  2  0
 17 20  1  0
 19 24  4  0
 20 23  1  0
 21 22  4  0
 22 23  4  0
 25 26  4  0
 27 29  2  0
M  END
$$$$

 Created by Python create_sdf_string function

 30 33  0  0  0  0  0  0  0  0999 V2000
    8.3036    9.8571   18.4133 C   0  0  0  0  0  0  0  0  0  0  0  0
    8.3694    7.6612   22.6703 C   0  0  0  0  0  0  0  0  0  0  0  0
    8.4143    6.6863   16.2273 C   0  0  0  0  0  0  0  0  0  0  0  0
   10.7581    6.5674   21.7636 C   0  0  0  0  0  0  0  0  0  0  0  0
    8.4452    8.7960   19.2958 O   0  0  0  0  0  0  0  0  0  0  0  0
    8.7122    6.7842   24.8569 C   0  0  0  0  0  0  0  0  0  0  0  0
   10.3400    6.1726   14.3081 C   0  0  0  0  0  0  0  0  0  0  0  0
    7.4297    7.5873   24.8962 C   0  0  0  0  0  0  0  0  0  0  0  0
    8.1566   10.0536   16.0516 O   0  0  0  0  0  0  0  0  0  0  0  0
   12.4989    6.2074   20.1776 C   0  0  0  0  0  0  0  0  0  0  0  0
    6.9192    9.1053   20.9073 O   0  0  0  0  0  0  0  0  0  0  0  0
   14.3979    6.0729   18.7784 C   0  0  0  0  0  0  0  0  0  0  0  0
    8.6811    9.5354   16.9998 C   0  0  0  0  0  0  0  0  0  0  0  0
    9.2512    4.2713   13.7653 O   0  0  0  0  0  0  0  0  0  0  0  0
    9.6495    8.6317   16.8332 N   0  0  0  0  0  0  0  0  0  0  0  0
    6.2934    8.6988   23.1988 O   0  0  0  0  0  0  0  0  0  0  0  0
    7.9806    8.6543   20.5437 C   0  0  0  0  0  0  0  0  0  0  0  0
   13.7270    5.7144   19.8610 O   0  0  0  0  0  0  0  0  0  0  0  0
    8.3351    5.5235   15.4478 C   0  0  0  0  0  0  0  0  0  0  0  0
    8.7700    7.8434   21.3915 C   0  0  0  0  0  0  0  0  0  0  0  0
   11.7856    6.8851   19.2401 C   0  0  0  0  0  0  0  0  0  0  0  0
   10.5281    7.4276   19.5649 C   0  0  0  0  0  0  0  0  0  0  0  0
   10.0256    7.2907   20.8484 C   0  0  0  0  0  0  0  0  0  0  0  0
    9.3113    5.3049   14.4911 C   0  0  0  0  0  0  0  0  0  0  0  0
    9.4607    7.5646   16.0139 C   0  0  0  0  0  0  0  0  0  0  0  0
   10.4192    7.3157   15.0955 C   0  0  0  0  0  0  0  0  0  0  0  0
   10.2489    6.4227   23.0218 N   0  0  0  0  0  0  0  0  0  0  0  0
    7.2472    8.0746   23.5050 C   0  0  0  0  0  0  0  0  0  0  0  0
    9.2051    6.9101   23.4604 C   0  0  0  0  0  0  0  0  0  0  0  0
   11.9646    6.0299   21.4251 C   0  0  0  0  0  0  0  0  0  0  0  0
  1  5  1  0
  1 13  1  0
  2 20  2  0
  2 28  1  0
  2 29  1  0
  3 19  4  0
  3 25  4  0
  4 23  4  0
  4 27  1  0
  4 30  4  0
  5 17  1  0
  6  8  1  0
  6 29  1  0
  7 24  4  0
  7 26  4  0
  8 28  1  0
  9 13  2  0
 10 18  1  0
 10 21  4  0
 10 30  4  0
 11 17  2  0
 12 18  1  0
 13 15  1  0
 14 24  1  0
 15 25  1  0
 16 28  2  0
 17 20  1  0
 19 24  4  0
 20 23  1  0
 21 22  4  0
 22 23  4  0
 25 26  4  0
 27 29  2  0
M  END
$$$$

 Created by Python create_sdf_string function

 30 33  0  0  0  0  0  0  0  0999 V2000
    8.3036    9.8571   18.4133 C   0  0  0  0  0  0  0  0  0  0  0  0
    8.3694    7.6612   22.6703 C   0  0  0  0  0  0  0  0  0  0  0  0
    8.4143    6.6863   16.2273 C   0  0  0  0  0  0  0  0  0  0  0  0
   10.7581    6.5674   21.7636 C   0  0  0  0  0  0  0  0  0  0  0  0
    8.4452    8.7960   19.2958 O   0  0  0  0  0  0  0  0  0  0  0  0
    8.7122    6.7842   24.8569 C   0  0  0  0  0  0  0  0  0  0  0  0
   10.3400    6.1726   14.3081 C   0  0  0  0  0  0  0  0  0  0  0  0
    7.4297    7.5873   24.8962 C   0  0  0  0  0  0  0  0  0  0  0  0
    8.1566   10.0536   16.0516 O   0  0  0  0  0  0  0  0  0  0  0  0
   12.4989    6.2074   20.1776 C   0  0  0  0  0  0  0  0  0  0  0  0
    6.9192    9.1053   20.9073 O   0  0  0  0  0  0  0  0  0  0  0  0
   14.3979    6.0729   18.7784 C   0  0  0  0  0  0  0  0  0  0  0  0
    8.6811    9.5354   16.9998 C   0  0  0  0  0  0  0  0  0  0  0  0
    9.2512    4.2713   13.7653 O   0  0  0  0  0  0  0  0  0  0  0  0
    9.6495    8.6317   16.8332 N   0  0  0  0  0  0  0  0  0  0  0  0
    6.2934    8.6988   23.1988 O   0  0  0  0  0  0  0  0  0  0  0  0
    7.9806    8.6543   20.5437 C   0  0  0  0  0  0  0  0  0  0  0  0
   13.7270    5.7144   19.8610 O   0  0  0  0  0  0  0  0  0  0  0  0
    8.3351    5.5235   15.4478 C   0  0  0  0  0  0  0  0  0  0  0  0
    8.7700    7.8434   21.3915 C   0  0  0  0  0  0  0  0  0  0  0  0
   11.7856    6.8851   19.2401 C   0  0  0  0  0  0  0  0  0  0  0  0
   10.5281    7.4276   19.5649 C   0  0  0  0  0  0  0  0  0  0  0  0
   10.0256    7.2907   20.8484 C   0  0  0  0  0  0  0  0  0  0  0  0
    9.3113    5.3049   14.4911 C   0  0  0  0  0  0  0  0  0  0  0  0
    9.4607    7.5646   16.0139 C   0  0  0  0  0  0  0  0  0  0  0  0
   10.4192    7.3157   15.0955 C   0  0  0  0  0  0  0  0  0  0  0  0
   10.2489    6.4227   23.0218 N   0  0  0  0  0  0  0  0  0  0  0  0
    7.2472    8.0746   23.5050 C   0  0  0  0  0  0  0  0  0  0  0  0
    9.2051    6.9101   23.4604 C   0  0  0  0  0  0  0  0  0  0  0  0
   11.9646    6.0299   21.4251 C   0  0  0  0  0  0  0  0  0  0  0  0
  1  5  1  0
  1 13  1  0
  2 20  2  0
  2 28  1  0
  2 29  1  0
  3 19  4  0
  3 25  4  0
  4 23  4  0
  4 27  1  0
  4 30  4  0
  5 17  1  0
  6  8  1  0
  6 29  1  0
  7 24  4  0
  7 26  4  0
  8 28  1  0
  9 13  2  0
 10 18  1  0
 10 21  4  0
 10 30  4  0
 11 17  2  0
 12 18  1  0
 13 15  1  0
 14 24  1  0
 15 25  1  0
 16 28  2  0
 17 20  1  0
 19 24  4  0
 20 23  1  0
 21 22  4  0
 22 23  4  0
 25 26  4  0
 27 29  2  0
M  END
$$$$

 Created by Python create_sdf_string function

 30 33  0  0  0  0  0  0  0  0999 V2000
    8.3036    9.8571   18.4133 C   0  0  0  0  0  0  0  0  0  0  0  0
    8.3694    7.6612   22.6703 C   0  0  0  0  0  0  0  0  0  0  0  0
    8.4143    6.6863   16.2273 C   0  0  0  0  0  0  0  0  0  0  0  0
   10.7581    6.5674   21.7636 C   0  0  0  0  0  0  0  0  0  0  0  0
    8.4452    8.7960   19.2958 O   0  0  0  0  0  0  0  0  0  0  0  0
    8.7122    6.7842   24.8569 C   0  0  0  0  0  0  0  0  0  0  0  0
   10.3400    6.1726   14.3081 C   0  0  0  0  0  0  0  0  0  0  0  0
    7.4297    7.5873   24.8962 C   0  0  0  0  0  0  0  0  0  0  0  0
    8.1566   10.0536   16.0516 O   0  0  0  0  0  0  0  0  0  0  0  0
   12.4989    6.2074   20.1776 C   0  0  0  0  0  0  0  0  0  0  0  0
    6.9192    9.1053   20.9073 O   0  0  0  0  0  0  0  0  0  0  0  0
   14.3979    6.0729   18.7784 C   0  0  0  0  0  0  0  0  0  0  0  0
    8.6811    9.5354   16.9998 C   0  0  0  0  0  0  0  0  0  0  0  0
    9.2512    4.2713   13.7653 O   0  0  0  0  0  0  0  0  0  0  0  0
    9.6495    8.6317   16.8332 N   0  0  0  0  0  0  0  0  0  0  0  0
    6.2934    8.6988   23.1988 O   0  0  0  0  0  0  0  0  0  0  0  0
    7.9806    8.6543   20.5437 C   0  0  0  0  0  0  0  0  0  0  0  0
   13.7270    5.7144   19.8610 O   0  0  0  0  0  0  0  0  0  0  0  0
    8.3351    5.5235   15.4478 C   0  0  0  0  0  0  0  0  0  0  0  0
    8.7700    7.8434   21.3915 C   0  0  0  0  0  0  0  0  0  0  0  0
   11.7856    6.8851   19.2401 C   0  0  0  0  0  0  0  0  0  0  0  0
   10.5281    7.4276   19.5649 C   0  0  0  0  0  0  0  0  0  0  0  0
   10.0256    7.2907   20.8484 C   0  0  0  0  0  0  0  0  0  0  0  0
    9.3113    5.3049   14.4911 C   0  0  0  0  0  0  0  0  0  0  0  0
    9.4607    7.5646   16.0139 C   0  0  0  0  0  0  0  0  0  0  0  0
   10.4192    7.3157   15.0955 C   0  0  0  0  0  0  0  0  0  0  0  0
   10.2489    6.4227   23.0218 N   0  0  0  0  0  0  0  0  0  0  0  0
    7.2472    8.0746   23.5050 C   0  0  0  0  0  0  0  0  0  0  0  0
    9.2051    6.9101   23.4604 C   0  0  0  0  0  0  0  0  0  0  0  0
   11.9646    6.0299   21.4251 C   0  0  0  0  0  0  0  0  0  0  0  0
  1  5  1  0
  1 13  1  0
  2 20  2  0
  2 28  1  0
  2 29  1  0
  3 19  4  0
  3 25  4  0
  4 23  4  0
  4 27  1  0
  4 30  4  0
  5 17  1  0
  6  8  1  0
  6 29  1  0
  7 24  4  0
  7 26  4  0
  8 28  1  0
  9 13  2  0
 10 18  1  0
 10 21  4  0
 10 30  4  0
 11 17  2  0
 12 18  1  0
 13 15  1  0
 14 24  1  0
 15 25  1  0
 16 28  2  0
 17 20  1  0
 19 24  4  0
 20 23  1  0
 21 22  4  0
 22 23  4  0
 25 26  4  0
 27 29  2  0
M  END
$$$$

 Created by Python create_sdf_string function

 30 33  0  0  0  0  0  0  0  0999 V2000
    8.3036    9.8571   18.4133 C   0  0  0  0  0  0  0  0  0  0  0  0
    8.3694    7.6612   22.6703 C   0  0  0  0  0  0  0  0  0  0  0  0
    8.4143    6.6863   16.2273 C   0  0  0  0  0  0  0  0  0  0  0  0
   10.7581    6.5674   21.7636 C   0  0  0  0  0  0  0  0  0  0  0  0
    8.4452    8.7960   19.2958 O   0  0  0  0  0  0  0  0  0  0  0  0
    8.7122    6.7842   24.8569 C   0  0  0  0  0  0  0  0  0  0  0  0
   10.3400    6.1726   14.3081 C   0  0  0  0  0  0  0  0  0  0  0  0
    7.4297    7.5873   24.8962 C   0  0  0  0  0  0  0  0  0  0  0  0
    8.1566   10.0536   16.0516 O   0  0  0  0  0  0  0  0  0  0  0  0
   12.4989    6.2074   20.1776 C   0  0  0  0  0  0  0  0  0  0  0  0
    6.9192    9.1053   20.9073 O   0  0  0  0  0  0  0  0  0  0  0  0
   14.3979    6.0729   18.7784 C   0  0  0  0  0  0  0  0  0  0  0  0
    8.6811    9.5354   16.9998 C   0  0  0  0  0  0  0  0  0  0  0  0
    9.2512    4.2713   13.7653 O   0  0  0  0  0  0  0  0  0  0  0  0
    9.6495    8.6317   16.8332 N   0  0  0  0  0  0  0  0  0  0  0  0
    6.2934    8.6988   23.1988 O   0  0  0  0  0  0  0  0  0  0  0  0
    7.9806    8.6543   20.5437 C   0  0  0  0  0  0  0  0  0  0  0  0
   13.7270    5.7144   19.8610 O   0  0  0  0  0  0  0  0  0  0  0  0
    8.3351    5.5235   15.4478 C   0  0  0  0  0  0  0  0  0  0  0  0
    8.7700    7.8434   21.3915 C   0  0  0  0  0  0  0  0  0  0  0  0
   11.7856    6.8851   19.2401 C   0  0  0  0  0  0  0  0  0  0  0  0
   10.5281    7.4276   19.5649 C   0  0  0  0  0  0  0  0  0  0  0  0
   10.0256    7.2907   20.8484 C   0  0  0  0  0  0  0  0  0  0  0  0
    9.3113    5.3049   14.4911 C   0  0  0  0  0  0  0  0  0  0  0  0
    9.4607    7.5646   16.0139 C   0  0  0  0  0  0  0  0  0  0  0  0
   10.4192    7.3157   15.0955 C   0  0  0  0  0  0  0  0  0  0  0  0
   10.2489    6.4227   23.0218 N   0  0  0  0  0  0  0  0  0  0  0  0
    7.2472    8.0746   23.5050 C   0  0  0  0  0  0  0  0  0  0  0  0
    9.2051    6.9101   23.4604 C   0  0  0  0  0  0  0  0  0  0  0  0
   11.9646    6.0299   21.4251 C   0  0  0  0  0  0  0  0  0  0  0  0
  1  5  1  0
  1 13  1  0
  2 20  2  0
  2 28  1  0
  2 29  1  0
  3 19  4  0
  3 25  4  0
  4 23  4  0
  4 27  1  0
  4 30  4  0
  5 17  1  0
  6  8  1  0
  6 29  1  0
  7 24  4  0
  7 26  4  0
  8 28  1  0
  9 13  2  0
 10 18  1  0
 10 21  4  0
 10 30  4  0
 11 17  2  0
 12 18  1  0
 13 15  1  0
 14 24  1  0
 15 25  1  0
 16 28  2  0
 17 20  1  0
 19 24  4  0
 20 23  1  0
 21 22  4  0
 22 23  4  0
 25 26  4  0
 27 29  2  0
M  END
$$$$

 Created by Python create_sdf_string function

 30 33  0  0  0  0  0  0  0  0999 V2000
    8.3036    9.8571   18.4133 C   0  0  0  0  0  0  0  0  0  0  0  0
    8.3694    7.6612   22.6703 C   0  0  0  0  0  0  0  0  0  0  0  0
    8.4143    6.6863   16.2273 C   0  0  0  0  0  0  0  0  0  0  0  0
   10.7581    6.5674   21.7636 C   0  0  0  0  0  0  0  0  0  0  0  0
    8.4452    8.7960   19.2958 O   0  0  0  0  0  0  0  0  0  0  0  0
    8.7122    6.7842   24.8569 C   0  0  0  0  0  0  0  0  0  0  0  0
   10.3400    6.1726   14.3081 C   0  0  0  0  0  0  0  0  0  0  0  0
    7.4297    7.5873   24.8962 C   0  0  0  0  0  0  0  0  0  0  0  0
    8.1566   10.0536   16.0516 O   0  0  0  0  0  0  0  0  0  0  0  0
   12.4989    6.2074   20.1776 C   0  0  0  0  0  0  0  0  0  0  0  0
    6.9192    9.1053   20.9073 O   0  0  0  0  0  0  0  0  0  0  0  0
   14.3979    6.0729   18.7784 C   0  0  0  0  0  0  0  0  0  0  0  0
    8.6811    9.5354   16.9998 C   0  0  0  0  0  0  0  0  0  0  0  0
    9.2512    4.2713   13.7653 O   0  0  0  0  0  0  0  0  0  0  0  0
    9.6495    8.6317   16.8332 N   0  0  0  0  0  0  0  0  0  0  0  0
    6.2934    8.6988   23.1988 O   0  0  0  0  0  0  0  0  0  0  0  0
    7.9806    8.6543   20.5437 C   0  0  0  0  0  0  0  0  0  0  0  0
   13.7270    5.7144   19.8610 O   0  0  0  0  0  0  0  0  0  0  0  0
    8.3351    5.5235   15.4478 C   0  0  0  0  0  0  0  0  0  0  0  0
    8.7700    7.8434   21.3915 C   0  0  0  0  0  0  0  0  0  0  0  0
   11.7856    6.8851   19.2401 C   0  0  0  0  0  0  0  0  0  0  0  0
   10.5281    7.4276   19.5649 C   0  0  0  0  0  0  0  0  0  0  0  0
   10.0256    7.2907   20.8484 C   0  0  0  0  0  0  0  0  0  0  0  0
    9.3113    5.3049   14.4911 C   0  0  0  0  0  0  0  0  0  0  0  0
    9.4607    7.5646   16.0139 C   0  0  0  0  0  0  0  0  0  0  0  0
   10.4192    7.3157   15.0955 C   0  0  0  0  0  0  0  0  0  0  0  0
   10.2489    6.4227   23.0218 N   0  0  0  0  0  0  0  0  0  0  0  0
    7.2472    8.0746   23.5050 C   0  0  0  0  0  0  0  0  0  0  0  0
    9.2051    6.9101   23.4604 C   0  0  0  0  0  0  0  0  0  0  0  0
   11.9646    6.0299   21.4251 C   0  0  0  0  0  0  0  0  0  0  0  0
  1  5  1  0
  1 13  1  0
  2 20  2  0
  2 28  1  0
  2 29  1  0
  3 19  4  0
  3 25  4  0
  4 23  4  0
  4 27  1  0
  4 30  4  0
  5 17  1  0
  6  8  1  0
  6 29  1  0
  7 24  4  0
  7 26  4  0
  8 28  1  0
  9 13  2  0
 10 18  1  0
 10 21  4  0
 10 30  4  0
 11 17  2  0
 12 18  1  0
 13 15  1  0
 14 24  1  0
 15 25  1  0
 16 28  2  0
 17 20  1  0
 19 24  4  0
 20 23  1  0
 21 22  4  0
 22 23  4  0
 25 26  4  0
 27 29  2  0
M  END
$$$$

 Created by Python create_sdf_string function

 30 33  0  0  0  0  0  0  0  0999 V2000
    8.3036    9.8571   18.4133 C   0  0  0  0  0  0  0  0  0  0  0  0
    8.3694    7.6612   22.6703 C   0  0  0  0  0  0  0  0  0  0  0  0
    8.4143    6.6863   16.2273 C   0  0  0  0  0  0  0  0  0  0  0  0
   10.7581    6.5674   21.7636 C   0  0  0  0  0  0  0  0  0  0  0  0
    8.4452    8.7960   19.2958 O   0  0  0  0  0  0  0  0  0  0  0  0
    8.7122    6.7842   24.8569 C   0  0  0  0  0  0  0  0  0  0  0  0
   10.3400    6.1726   14.3081 C   0  0  0  0  0  0  0  0  0  0  0  0
    7.4297    7.5873   24.8962 C   0  0  0  0  0  0  0  0  0  0  0  0
    8.1566   10.0536   16.0516 O   0  0  0  0  0  0  0  0  0  0  0  0
   12.4989    6.2074   20.1776 C   0  0  0  0  0  0  0  0  0  0  0  0
    6.9192    9.1053   20.9073 O   0  0  0  0  0  0  0  0  0  0  0  0
   14.3979    6.0729   18.7784 C   0  0  0  0  0  0  0  0  0  0  0  0
    8.6811    9.5354   16.9998 C   0  0  0  0  0  0  0  0  0  0  0  0
    9.2512    4.2713   13.7653 O   0  0  0  0  0  0  0  0  0  0  0  0
    9.6495    8.6317   16.8332 N   0  0  0  0  0  0  0  0  0  0  0  0
    6.2934    8.6988   23.1988 O   0  0  0  0  0  0  0  0  0  0  0  0
    7.9806    8.6543   20.5437 C   0  0  0  0  0  0  0  0  0  0  0  0
   13.7270    5.7144   19.8610 O   0  0  0  0  0  0  0  0  0  0  0  0
    8.3351    5.5235   15.4478 C   0  0  0  0  0  0  0  0  0  0  0  0
    8.7700    7.8434   21.3915 C   0  0  0  0  0  0  0  0  0  0  0  0
   11.7856    6.8851   19.2401 C   0  0  0  0  0  0  0  0  0  0  0  0
   10.5281    7.4276   19.5649 C   0  0  0  0  0  0  0  0  0  0  0  0
   10.0256    7.2907   20.8484 C   0  0  0  0  0  0  0  0  0  0  0  0
    9.3113    5.3049   14.4911 C   0  0  0  0  0  0  0  0  0  0  0  0
    9.4607    7.5646   16.0139 C   0  0  0  0  0  0  0  0  0  0  0  0
   10.4192    7.3157   15.0955 C   0  0  0  0  0  0  0  0  0  0  0  0
   10.2489    6.4227   23.0218 N   0  0  0  0  0  0  0  0  0  0  0  0
    7.2472    8.0746   23.5050 C   0  0  0  0  0  0  0  0  0  0  0  0
    9.2051    6.9101   23.4604 C   0  0  0  0  0  0  0  0  0  0  0  0
   11.9646    6.0299   21.4251 C   0  0  0  0  0  0  0  0  0  0  0  0
  1  5  1  0
  1 13  1  0
  2 20  2  0
  2 28  1  0
  2 29  1  0
  3 19  4  0
  3 25  4  0
  4 23  4  0
  4 27  1  0
  4 30  4  0
  5 17  1  0
  6  8  1  0
  6 29  1  0
  7 24  4  0
  7 26  4  0
  8 28  1  0
  9 13  2  0
 10 18  1  0
 10 21  4  0
 10 30  4  0
 11 17  2  0
 12 18  1  0
 13 15  1  0
 14 24  1  0
 15 25  1  0
 16 28  2  0
 17 20  1  0
 19 24  4  0
 20 23  1  0
 21 22  4  0
 22 23  4  0
 25 26  4  0
 27 29  2  0
M  END
$$$$

 Created by Python create_sdf_string function

 30 33  0  0  0  0  0  0  0  0999 V2000
    8.3036    9.8571   18.4133 C   0  0  0  0  0  0  0  0  0  0  0  0
    8.3694    7.6612   22.6703 C   0  0  0  0  0  0  0  0  0  0  0  0
    8.4143    6.6863   16.2273 C   0  0  0  0  0  0  0  0  0  0  0  0
   10.7581    6.5674   21.7636 C   0  0  0  0  0  0  0  0  0  0  0  0
    8.4452    8.7960   19.2958 O   0  0  0  0  0  0  0  0  0  0  0  0
    8.7122    6.7842   24.8569 C   0  0  0  0  0  0  0  0  0  0  0  0
   10.3400    6.1726   14.3081 C   0  0  0  0  0  0  0  0  0  0  0  0
    7.4297    7.5873   24.8962 C   0  0  0  0  0  0  0  0  0  0  0  0
    8.1566   10.0536   16.0516 O   0  0  0  0  0  0  0  0  0  0  0  0
   12.4989    6.2074   20.1776 C   0  0  0  0  0  0  0  0  0  0  0  0
    6.9192    9.1053   20.9073 O   0  0  0  0  0  0  0  0  0  0  0  0
   14.3979    6.0729   18.7784 C   0  0  0  0  0  0  0  0  0  0  0  0
    8.6811    9.5354   16.9998 C   0  0  0  0  0  0  0  0  0  0  0  0
    9.2512    4.2713   13.7653 O   0  0  0  0  0  0  0  0  0  0  0  0
    9.6495    8.6317   16.8332 N   0  0  0  0  0  0  0  0  0  0  0  0
    6.2934    8.6988   23.1988 O   0  0  0  0  0  0  0  0  0  0  0  0
    7.9806    8.6543   20.5437 C   0  0  0  0  0  0  0  0  0  0  0  0
   13.7270    5.7144   19.8610 O   0  0  0  0  0  0  0  0  0  0  0  0
    8.3351    5.5235   15.4478 C   0  0  0  0  0  0  0  0  0  0  0  0
    8.7700    7.8434   21.3915 C   0  0  0  0  0  0  0  0  0  0  0  0
   11.7856    6.8851   19.2401 C   0  0  0  0  0  0  0  0  0  0  0  0
   10.5281    7.4276   19.5649 C   0  0  0  0  0  0  0  0  0  0  0  0
   10.0256    7.2907   20.8484 C   0  0  0  0  0  0  0  0  0  0  0  0
    9.3113    5.3049   14.4911 C   0  0  0  0  0  0  0  0  0  0  0  0
    9.4607    7.5646   16.0139 C   0  0  0  0  0  0  0  0  0  0  0  0
   10.4192    7.3157   15.0955 C   0  0  0  0  0  0  0  0  0  0  0  0
   10.2489    6.4227   23.0218 N   0  0  0  0  0  0  0  0  0  0  0  0
    7.2472    8.0746   23.5050 C   0  0  0  0  0  0  0  0  0  0  0  0
    9.2051    6.9101   23.4604 C   0  0  0  0  0  0  0  0  0  0  0  0
   11.9646    6.0299   21.4251 C   0  0  0  0  0  0  0  0  0  0  0  0
  1  5  1  0
  1 13  1  0
  2 20  2  0
  2 28  1  0
  2 29  1  0
  3 19  4  0
  3 25  4  0
  4 23  4  0
  4 27  1  0
  4 30  4  0
  5 17  1  0
  6  8  1  0
  6 29  1  0
  7 24  4  0
  7 26  4  0
  8 28  1  0
  9 13  2  0
 10 18  1  0
 10 21  4  0
 10 30  4  0
 11 17  2  0
 12 18  1  0
 13 15  1  0
 14 24  1  0
 15 25  1  0
 16 28  2  0
 17 20  1  0
 19 24  4  0
 20 23  1  0
 21 22  4  0
 22 23  4  0
 25 26  4  0
 27 29  2  0
M  END
$$$$

 Created by Python create_sdf_string function

 30 33  0  0  0  0  0  0  0  0999 V2000
    8.3036    9.8571   18.4133 C   0  0  0  0  0  0  0  0  0  0  0  0
    8.3694    7.6612   22.6703 C   0  0  0  0  0  0  0  0  0  0  0  0
    8.4143    6.6863   16.2273 C   0  0  0  0  0  0  0  0  0  0  0  0
   10.7581    6.5674   21.7636 C   0  0  0  0  0  0  0  0  0  0  0  0
    8.4452    8.7960   19.2958 O   0  0  0  0  0  0  0  0  0  0  0  0
    8.7122    6.7842   24.8569 C   0  0  0  0  0  0  0  0  0  0  0  0
   10.3400    6.1726   14.3081 C   0  0  0  0  0  0  0  0  0  0  0  0
    7.4297    7.5873   24.8962 C   0  0  0  0  0  0  0  0  0  0  0  0
    8.1566   10.0536   16.0516 O   0  0  0  0  0  0  0  0  0  0  0  0
   12.4989    6.2074   20.1776 C   0  0  0  0  0  0  0  0  0  0  0  0
    6.9192    9.1053   20.9073 O   0  0  0  0  0  0  0  0  0  0  0  0
   14.3979    6.0729   18.7784 C   0  0  0  0  0  0  0  0  0  0  0  0
    8.6811    9.5354   16.9998 C   0  0  0  0  0  0  0  0  0  0  0  0
    9.2512    4.2713   13.7653 O   0  0  0  0  0  0  0  0  0  0  0  0
    9.6495    8.6317   16.8332 N   0  0  0  0  0  0  0  0  0  0  0  0
    6.2934    8.6988   23.1988 O   0  0  0  0  0  0  0  0  0  0  0  0
    7.9806    8.6543   20.5437 C   0  0  0  0  0  0  0  0  0  0  0  0
   13.7270    5.7144   19.8610 O   0  0  0  0  0  0  0  0  0  0  0  0
    8.3351    5.5235   15.4478 C   0  0  0  0  0  0  0  0  0  0  0  0
    8.7700    7.8434   21.3915 C   0  0  0  0  0  0  0  0  0  0  0  0
   11.7856    6.8851   19.2401 C   0  0  0  0  0  0  0  0  0  0  0  0
   10.5281    7.4276   19.5649 C   0  0  0  0  0  0  0  0  0  0  0  0
   10.0256    7.2907   20.8484 C   0  0  0  0  0  0  0  0  0  0  0  0
    9.3113    5.3049   14.4911 C   0  0  0  0  0  0  0  0  0  0  0  0
    9.4607    7.5646   16.0139 C   0  0  0  0  0  0  0  0  0  0  0  0
   10.4192    7.3157   15.0955 C   0  0  0  0  0  0  0  0  0  0  0  0
   10.2489    6.4227   23.0218 N   0  0  0  0  0  0  0  0  0  0  0  0
    7.2472    8.0746   23.5050 C   0  0  0  0  0  0  0  0  0  0  0  0
    9.2051    6.9101   23.4604 C   0  0  0  0  0  0  0  0  0  0  0  0
   11.9646    6.0299   21.4251 C   0  0  0  0  0  0  0  0  0  0  0  0
  1  5  1  0
  1 13  1  0
  2 20  2  0
  2 28  1  0
  2 29  1  0
  3 19  4  0
  3 25  4  0
  4 23  4  0
  4 27  1  0
  4 30  4  0
  5 17  1  0
  6  8  1  0
  6 29  1  0
  7 24  4  0
  7 26  4  0
  8 28  1  0
  9 13  2  0
 10 18  1  0
 10 21  4  0
 10 30  4  0
 11 17  2  0
 12 18  1  0
 13 15  1  0
 14 24  1  0
 15 25  1  0
 16 28  2  0
 17 20  1  0
 19 24  4  0
 20 23  1  0
 21 22  4  0
 22 23  4  0
 25 26  4  0
 27 29  2  0
M  END
$$$$

 Created by Python create_sdf_string function

 30 33  0  0  0  0  0  0  0  0999 V2000
    8.3036    9.8571   18.4133 C   0  0  0  0  0  0  0  0  0  0  0  0
    8.3694    7.6612   22.6703 C   0  0  0  0  0  0  0  0  0  0  0  0
    8.4143    6.6863   16.2273 C   0  0  0  0  0  0  0  0  0  0  0  0
   10.7581    6.5674   21.7636 C   0  0  0  0  0  0  0  0  0  0  0  0
    8.4452    8.7960   19.2958 O   0  0  0  0  0  0  0  0  0  0  0  0
    8.7122    6.7842   24.8569 C   0  0  0  0  0  0  0  0  0  0  0  0
   10.3400    6.1726   14.3081 C   0  0  0  0  0  0  0  0  0  0  0  0
    7.4297    7.5873   24.8962 C   0  0  0  0  0  0  0  0  0  0  0  0
    8.1566   10.0536   16.0516 O   0  0  0  0  0  0  0  0  0  0  0  0
   12.4989    6.2074   20.1776 C   0  0  0  0  0  0  0  0  0  0  0  0
    6.9192    9.1053   20.9073 O   0  0  0  0  0  0  0  0  0  0  0  0
   14.3979    6.0729   18.7784 C   0  0  0  0  0  0  0  0  0  0  0  0
    8.6811    9.5354   16.9998 C   0  0  0  0  0  0  0  0  0  0  0  0
    9.2512    4.2713   13.7653 O   0  0  0  0  0  0  0  0  0  0  0  0
    9.6495    8.6317   16.8332 N   0  0  0  0  0  0  0  0  0  0  0  0
    6.2934    8.6988   23.1988 O   0  0  0  0  0  0  0  0  0  0  0  0
    7.9806    8.6543   20.5437 C   0  0  0  0  0  0  0  0  0  0  0  0
   13.7270    5.7144   19.8610 O   0  0  0  0  0  0  0  0  0  0  0  0
    8.3351    5.5235   15.4478 C   0  0  0  0  0  0  0  0  0  0  0  0
    8.7700    7.8434   21.3915 C   0  0  0  0  0  0  0  0  0  0  0  0
   11.7856    6.8851   19.2401 C   0  0  0  0  0  0  0  0  0  0  0  0
   10.5281    7.4276   19.5649 C   0  0  0  0  0  0  0  0  0  0  0  0
   10.0256    7.2907   20.8484 C   0  0  0  0  0  0  0  0  0  0  0  0
    9.3113    5.3049   14.4911 C   0  0  0  0  0  0  0  0  0  0  0  0
    9.4607    7.5646   16.0139 C   0  0  0  0  0  0  0  0  0  0  0  0
   10.4192    7.3157   15.0955 C   0  0  0  0  0  0  0  0  0  0  0  0
   10.2489    6.4227   23.0218 N   0  0  0  0  0  0  0  0  0  0  0  0
    7.2472    8.0746   23.5050 C   0  0  0  0  0  0  0  0  0  0  0  0
    9.2051    6.9101   23.4604 C   0  0  0  0  0  0  0  0  0  0  0  0
   11.9646    6.0299   21.4251 C   0  0  0  0  0  0  0  0  0  0  0  0
  1  5  1  0
  1 13  1  0
  2 20  2  0
  2 28  1  0
  2 29  1  0
  3 19  4  0
  3 25  4  0
  4 23  4  0
  4 27  1  0
  4 30  4  0
  5 17  1  0
  6  8  1  0
  6 29  1  0
  7 24  4  0
  7 26  4  0
  8 28  1  0
  9 13  2  0
 10 18  1  0
 10 21  4  0
 10 30  4  0
 11 17  2  0
 12 18  1  0
 13 15  1  0
 14 24  1  0
 15 25  1  0
 16 28  2  0
 17 20  1  0
 19 24  4  0
 20 23  1  0
 21 22  4  0
 22 23  4  0
 25 26  4  0
 27 29  2  0
M  END
$$$$

 Created by Python create_sdf_string function

 30 33  0  0  0  0  0  0  0  0999 V2000
    8.3036    9.8571   18.4133 C   0  0  0  0  0  0  0  0  0  0  0  0
    8.3694    7.6612   22.6703 C   0  0  0  0  0  0  0  0  0  0  0  0
    8.4143    6.6863   16.2273 C   0  0  0  0  0  0  0  0  0  0  0  0
   10.7581    6.5674   21.7636 C   0  0  0  0  0  0  0  0  0  0  0  0
    8.4452    8.7960   19.2958 O   0  0  0  0  0  0  0  0  0  0  0  0
    8.7122    6.7842   24.8569 C   0  0  0  0  0  0  0  0  0  0  0  0
   10.3400    6.1726   14.3081 C   0  0  0  0  0  0  0  0  0  0  0  0
    7.4297    7.5873   24.8962 C   0  0  0  0  0  0  0  0  0  0  0  0
    8.1566   10.0536   16.0516 O   0  0  0  0  0  0  0  0  0  0  0  0
   12.4989    6.2074   20.1776 C   0  0  0  0  0  0  0  0  0  0  0  0
    6.9192    9.1053   20.9073 O   0  0  0  0  0  0  0  0  0  0  0  0
   14.3979    6.0729   18.7784 C   0  0  0  0  0  0  0  0  0  0  0  0
    8.6811    9.5354   16.9998 C   0  0  0  0  0  0  0  0  0  0  0  0
    9.2512    4.2713   13.7653 O   0  0  0  0  0  0  0  0  0  0  0  0
    9.6495    8.6317   16.8332 N   0  0  0  0  0  0  0  0  0  0  0  0
    6.2934    8.6988   23.1988 O   0  0  0  0  0  0  0  0  0  0  0  0
    7.9806    8.6543   20.5437 C   0  0  0  0  0  0  0  0  0  0  0  0
   13.7270    5.7144   19.8610 O   0  0  0  0  0  0  0  0  0  0  0  0
    8.3351    5.5235   15.4478 C   0  0  0  0  0  0  0  0  0  0  0  0
    8.7700    7.8434   21.3915 C   0  0  0  0  0  0  0  0  0  0  0  0
   11.7856    6.8851   19.2401 C   0  0  0  0  0  0  0  0  0  0  0  0
   10.5281    7.4276   19.5649 C   0  0  0  0  0  0  0  0  0  0  0  0
   10.0256    7.2907   20.8484 C   0  0  0  0  0  0  0  0  0  0  0  0
    9.3113    5.3049   14.4911 C   0  0  0  0  0  0  0  0  0  0  0  0
    9.4607    7.5646   16.0139 C   0  0  0  0  0  0  0  0  0  0  0  0
   10.4192    7.3157   15.0955 C   0  0  0  0  0  0  0  0  0  0  0  0
   10.2489    6.4227   23.0218 N   0  0  0  0  0  0  0  0  0  0  0  0
    7.2472    8.0746   23.5050 C   0  0  0  0  0  0  0  0  0  0  0  0
    9.2051    6.9101   23.4604 C   0  0  0  0  0  0  0  0  0  0  0  0
   11.9646    6.0299   21.4251 C   0  0  0  0  0  0  0  0  0  0  0  0
  1  5  1  0
  1 13  1  0
  2 20  2  0
  2 28  1  0
  2 29  1  0
  3 19  4  0
  3 25  4  0
  4 23  4  0
  4 27  1  0
  4 30  4  0
  5 17  1  0
  6  8  1  0
  6 29  1  0
  7 24  4  0
  7 26  4  0
  8 28  1  0
  9 13  2  0
 10 18  1  0
 10 21  4  0
 10 30  4  0
 11 17  2  0
 12 18  1  0
 13 15  1  0
 14 24  1  0
 15 25  1  0
 16 28  2  0
 17 20  1  0
 19 24  4  0
 20 23  1  0
 21 22  4  0
 22 23  4  0
 25 26  4  0
 27 29  2  0
M  END
$$$$

 Created by Python create_sdf_string function

 30 33  0  0  0  0  0  0  0  0999 V2000
    8.3036    9.8571   18.4133 C   0  0  0  0  0  0  0  0  0  0  0  0
    8.3694    7.6612   22.6703 C   0  0  0  0  0  0  0  0  0  0  0  0
    8.4143    6.6863   16.2273 C   0  0  0  0  0  0  0  0  0  0  0  0
   10.7581    6.5674   21.7636 C   0  0  0  0  0  0  0  0  0  0  0  0
    8.4452    8.7960   19.2958 O   0  0  0  0  0  0  0  0  0  0  0  0
    8.7122    6.7842   24.8569 C   0  0  0  0  0  0  0  0  0  0  0  0
   10.3400    6.1726   14.3081 C   0  0  0  0  0  0  0  0  0  0  0  0
    7.4297    7.5873   24.8962 C   0  0  0  0  0  0  0  0  0  0  0  0
    8.1566   10.0536   16.0516 O   0  0  0  0  0  0  0  0  0  0  0  0
   12.4989    6.2074   20.1776 C   0  0  0  0  0  0  0  0  0  0  0  0
    6.9192    9.1053   20.9073 O   0  0  0  0  0  0  0  0  0  0  0  0
   14.3979    6.0729   18.7784 C   0  0  0  0  0  0  0  0  0  0  0  0
    8.6811    9.5354   16.9998 C   0  0  0  0  0  0  0  0  0  0  0  0
    9.2512    4.2713   13.7653 O   0  0  0  0  0  0  0  0  0  0  0  0
    9.6495    8.6317   16.8332 N   0  0  0  0  0  0  0  0  0  0  0  0
    6.2934    8.6988   23.1988 O   0  0  0  0  0  0  0  0  0  0  0  0
    7.9806    8.6543   20.5437 C   0  0  0  0  0  0  0  0  0  0  0  0
   13.7270    5.7144   19.8610 O   0  0  0  0  0  0  0  0  0  0  0  0
    8.3351    5.5235   15.4478 C   0  0  0  0  0  0  0  0  0  0  0  0
    8.7700    7.8434   21.3915 C   0  0  0  0  0  0  0  0  0  0  0  0
   11.7856    6.8851   19.2401 C   0  0  0  0  0  0  0  0  0  0  0  0
   10.5281    7.4276   19.5649 C   0  0  0  0  0  0  0  0  0  0  0  0
   10.0256    7.2907   20.8484 C   0  0  0  0  0  0  0  0  0  0  0  0
    9.3113    5.3049   14.4911 C   0  0  0  0  0  0  0  0  0  0  0  0
    9.4607    7.5646   16.0139 C   0  0  0  0  0  0  0  0  0  0  0  0
   10.4192    7.3157   15.0955 C   0  0  0  0  0  0  0  0  0  0  0  0
   10.2489    6.4227   23.0218 N   0  0  0  0  0  0  0  0  0  0  0  0
    7.2472    8.0746   23.5050 C   0  0  0  0  0  0  0  0  0  0  0  0
    9.2051    6.9101   23.4604 C   0  0  0  0  0  0  0  0  0  0  0  0
   11.9646    6.0299   21.4251 C   0  0  0  0  0  0  0  0  0  0  0  0
  1  5  1  0
  1 13  1  0
  2 20  2  0
  2 28  1  0
  2 29  1  0
  3 19  4  0
  3 25  4  0
  4 23  4  0
  4 27  1  0
  4 30  4  0
  5 17  1  0
  6  8  1  0
  6 29  1  0
  7 24  4  0
  7 26  4  0
  8 28  1  0
  9 13  2  0
 10 18  1  0
 10 21  4  0
 10 30  4  0
 11 17  2  0
 12 18  1  0
 13 15  1  0
 14 24  1  0
 15 25  1  0
 16 28  2  0
 17 20  1  0
 19 24  4  0
 20 23  1  0
 21 22  4  0
 22 23  4  0
 25 26  4  0
 27 29  2  0
M  END
$$$$

 Created by Python create_sdf_string function

 30 33  0  0  0  0  0  0  0  0999 V2000
    8.3036    9.8571   18.4133 C   0  0  0  0  0  0  0  0  0  0  0  0
    8.3694    7.6612   22.6703 C   0  0  0  0  0  0  0  0  0  0  0  0
    8.4143    6.6863   16.2273 C   0  0  0  0  0  0  0  0  0  0  0  0
   10.7581    6.5674   21.7636 C   0  0  0  0  0  0  0  0  0  0  0  0
    8.4452    8.7960   19.2958 O   0  0  0  0  0  0  0  0  0  0  0  0
    8.7122    6.7842   24.8569 C   0  0  0  0  0  0  0  0  0  0  0  0
   10.3400    6.1726   14.3081 C   0  0  0  0  0  0  0  0  0  0  0  0
    7.4297    7.5873   24.8962 C   0  0  0  0  0  0  0  0  0  0  0  0
    8.1566   10.0536   16.0516 O   0  0  0  0  0  0  0  0  0  0  0  0
   12.4989    6.2074   20.1776 C   0  0  0  0  0  0  0  0  0  0  0  0
    6.9192    9.1053   20.9073 O   0  0  0  0  0  0  0  0  0  0  0  0
   14.3979    6.0729   18.7784 C   0  0  0  0  0  0  0  0  0  0  0  0
    8.6811    9.5354   16.9998 C   0  0  0  0  0  0  0  0  0  0  0  0
    9.2512    4.2713   13.7653 O   0  0  0  0  0  0  0  0  0  0  0  0
    9.6495    8.6317   16.8332 N   0  0  0  0  0  0  0  0  0  0  0  0
    6.2934    8.6988   23.1988 O   0  0  0  0  0  0  0  0  0  0  0  0
    7.9806    8.6543   20.5437 C   0  0  0  0  0  0  0  0  0  0  0  0
   13.7270    5.7144   19.8610 O   0  0  0  0  0  0  0  0  0  0  0  0
    8.3351    5.5235   15.4478 C   0  0  0  0  0  0  0  0  0  0  0  0
    8.7700    7.8434   21.3915 C   0  0  0  0  0  0  0  0  0  0  0  0
   11.7856    6.8851   19.2401 C   0  0  0  0  0  0  0  0  0  0  0  0
   10.5281    7.4276   19.5649 C   0  0  0  0  0  0  0  0  0  0  0  0
   10.0256    7.2907   20.8484 C   0  0  0  0  0  0  0  0  0  0  0  0
    9.3113    5.3049   14.4911 C   0  0  0  0  0  0  0  0  0  0  0  0
    9.4607    7.5646   16.0139 C   0  0  0  0  0  0  0  0  0  0  0  0
   10.4192    7.3157   15.0955 C   0  0  0  0  0  0  0  0  0  0  0  0
   10.2489    6.4227   23.0218 N   0  0  0  0  0  0  0  0  0  0  0  0
    7.2472    8.0746   23.5050 C   0  0  0  0  0  0  0  0  0  0  0  0
    9.2051    6.9101   23.4604 C   0  0  0  0  0  0  0  0  0  0  0  0
   11.9646    6.0299   21.4251 C   0  0  0  0  0  0  0  0  0  0  0  0
  1  5  1  0
  1 13  1  0
  2 20  2  0
  2 28  1  0
  2 29  1  0
  3 19  4  0
  3 25  4  0
  4 23  4  0
  4 27  1  0
  4 30  4  0
  5 17  1  0
  6  8  1  0
  6 29  1  0
  7 24  4  0
  7 26  4  0
  8 28  1  0
  9 13  2  0
 10 18  1  0
 10 21  4  0
 10 30  4  0
 11 17  2  0
 12 18  1  0
 13 15  1  0
 14 24  1  0
 15 25  1  0
 16 28  2  0
 17 20  1  0
 19 24  4  0
 20 23  1  0
 21 22  4  0
 22 23  4  0
 25 26  4  0
 27 29  2  0
M  END
$$$$

 Created by Python create_sdf_string function

 30 33  0  0  0  0  0  0  0  0999 V2000
    8.3036    9.8571   18.4133 C   0  0  0  0  0  0  0  0  0  0  0  0
    8.3694    7.6612   22.6703 C   0  0  0  0  0  0  0  0  0  0  0  0
    8.4143    6.6863   16.2273 C   0  0  0  0  0  0  0  0  0  0  0  0
   10.7581    6.5674   21.7636 C   0  0  0  0  0  0  0  0  0  0  0  0
    8.4452    8.7960   19.2958 O   0  0  0  0  0  0  0  0  0  0  0  0
    8.7122    6.7842   24.8569 C   0  0  0  0  0  0  0  0  0  0  0  0
   10.3400    6.1726   14.3081 C   0  0  0  0  0  0  0  0  0  0  0  0
    7.4297    7.5873   24.8962 C   0  0  0  0  0  0  0  0  0  0  0  0
    8.1566   10.0536   16.0516 O   0  0  0  0  0  0  0  0  0  0  0  0
   12.4989    6.2074   20.1776 C   0  0  0  0  0  0  0  0  0  0  0  0
    6.9192    9.1053   20.9073 O   0  0  0  0  0  0  0  0  0  0  0  0
   14.3979    6.0729   18.7784 C   0  0  0  0  0  0  0  0  0  0  0  0
    8.6811    9.5354   16.9998 C   0  0  0  0  0  0  0  0  0  0  0  0
    9.2512    4.2713   13.7653 O   0  0  0  0  0  0  0  0  0  0  0  0
    9.6495    8.6317   16.8332 N   0  0  0  0  0  0  0  0  0  0  0  0
    6.2934    8.6988   23.1988 O   0  0  0  0  0  0  0  0  0  0  0  0
    7.9806    8.6543   20.5437 C   0  0  0  0  0  0  0  0  0  0  0  0
   13.7270    5.7144   19.8610 O   0  0  0  0  0  0  0  0  0  0  0  0
    8.3351    5.5235   15.4478 C   0  0  0  0  0  0  0  0  0  0  0  0
    8.7700    7.8434   21.3915 C   0  0  0  0  0  0  0  0  0  0  0  0
   11.7856    6.8851   19.2401 C   0  0  0  0  0  0  0  0  0  0  0  0
   10.5281    7.4276   19.5649 C   0  0  0  0  0  0  0  0  0  0  0  0
   10.0256    7.2907   20.8484 C   0  0  0  0  0  0  0  0  0  0  0  0
    9.3113    5.3049   14.4911 C   0  0  0  0  0  0  0  0  0  0  0  0
    9.4607    7.5646   16.0139 C   0  0  0  0  0  0  0  0  0  0  0  0
   10.4192    7.3157   15.0955 C   0  0  0  0  0  0  0  0  0  0  0  0
   10.2489    6.4227   23.0218 N   0  0  0  0  0  0  0  0  0  0  0  0
    7.2472    8.0746   23.5050 C   0  0  0  0  0  0  0  0  0  0  0  0
    9.2051    6.9101   23.4604 C   0  0  0  0  0  0  0  0  0  0  0  0
   11.9646    6.0299   21.4251 C   0  0  0  0  0  0  0  0  0  0  0  0
  1  5  1  0
  1 13  1  0
  2 20  2  0
  2 28  1  0
  2 29  1  0
  3 19  4  0
  3 25  4  0
  4 23  4  0
  4 27  1  0
  4 30  4  0
  5 17  1  0
  6  8  1  0
  6 29  1  0
  7 24  4  0
  7 26  4  0
  8 28  1  0
  9 13  2  0
 10 18  1  0
 10 21  4  0
 10 30  4  0
 11 17  2  0
 12 18  1  0
 13 15  1  0
 14 24  1  0
 15 25  1  0
 16 28  2  0
 17 20  1  0
 19 24  4  0
 20 23  1  0
 21 22  4  0
 22 23  4  0
 25 26  4  0
 27 29  2  0
M  END
$$$$

 Created by Python create_sdf_string function

 30 33  0  0  0  0  0  0  0  0999 V2000
    8.3036    9.8571   18.4133 C   0  0  0  0  0  0  0  0  0  0  0  0
    8.3694    7.6612   22.6703 C   0  0  0  0  0  0  0  0  0  0  0  0
    8.4143    6.6863   16.2273 C   0  0  0  0  0  0  0  0  0  0  0  0
   10.7581    6.5674   21.7636 C   0  0  0  0  0  0  0  0  0  0  0  0
    8.4452    8.7960   19.2958 O   0  0  0  0  0  0  0  0  0  0  0  0
    8.7122    6.7842   24.8569 C   0  0  0  0  0  0  0  0  0  0  0  0
   10.3400    6.1726   14.3081 C   0  0  0  0  0  0  0  0  0  0  0  0
    7.4297    7.5873   24.8962 C   0  0  0  0  0  0  0  0  0  0  0  0
    8.1566   10.0536   16.0516 O   0  0  0  0  0  0  0  0  0  0  0  0
   12.4989    6.2074   20.1776 C   0  0  0  0  0  0  0  0  0  0  0  0
    6.9192    9.1053   20.9073 O   0  0  0  0  0  0  0  0  0  0  0  0
   14.3979    6.0729   18.7784 C   0  0  0  0  0  0  0  0  0  0  0  0
    8.6811    9.5354   16.9998 C   0  0  0  0  0  0  0  0  0  0  0  0
    9.2512    4.2713   13.7653 O   0  0  0  0  0  0  0  0  0  0  0  0
    9.6495    8.6317   16.8332 N   0  0  0  0  0  0  0  0  0  0  0  0
    6.2934    8.6988   23.1988 O   0  0  0  0  0  0  0  0  0  0  0  0
    7.9806    8.6543   20.5437 C   0  0  0  0  0  0  0  0  0  0  0  0
   13.7270    5.7144   19.8610 O   0  0  0  0  0  0  0  0  0  0  0  0
    8.3351    5.5235   15.4478 C   0  0  0  0  0  0  0  0  0  0  0  0
    8.7700    7.8434   21.3915 C   0  0  0  0  0  0  0  0  0  0  0  0
   11.7856    6.8851   19.2401 C   0  0  0  0  0  0  0  0  0  0  0  0
   10.5281    7.4276   19.5649 C   0  0  0  0  0  0  0  0  0  0  0  0
   10.0256    7.2907   20.8484 C   0  0  0  0  0  0  0  0  0  0  0  0
    9.3113    5.3049   14.4911 C   0  0  0  0  0  0  0  0  0  0  0  0
    9.4607    7.5646   16.0139 C   0  0  0  0  0  0  0  0  0  0  0  0
   10.4192    7.3157   15.0955 C   0  0  0  0  0  0  0  0  0  0  0  0
   10.2489    6.4227   23.0218 N   0  0  0  0  0  0  0  0  0  0  0  0
    7.2472    8.0746   23.5050 C   0  0  0  0  0  0  0  0  0  0  0  0
    9.2051    6.9101   23.4604 C   0  0  0  0  0  0  0  0  0  0  0  0
   11.9646    6.0299   21.4251 C   0  0  0  0  0  0  0  0  0  0  0  0
  1  5  1  0
  1 13  1  0
  2 20  2  0
  2 28  1  0
  2 29  1  0
  3 19  4  0
  3 25  4  0
  4 23  4  0
  4 27  1  0
  4 30  4  0
  5 17  1  0
  6  8  1  0
  6 29  1  0
  7 24  4  0
  7 26  4  0
  8 28  1  0
  9 13  2  0
 10 18  1  0
 10 21  4  0
 10 30  4  0
 11 17  2  0
 12 18  1  0
 13 15  1  0
 14 24  1  0
 15 25  1  0
 16 28  2  0
 17 20  1  0
 19 24  4  0
 20 23  1  0
 21 22  4  0
 22 23  4  0
 25 26  4  0
 27 29  2  0
M  END
$$$$

 Created by Python create_sdf_string function

 30 33  0  0  0  0  0  0  0  0999 V2000
    8.3036    9.8571   18.4133 C   0  0  0  0  0  0  0  0  0  0  0  0
    8.3694    7.6612   22.6703 C   0  0  0  0  0  0  0  0  0  0  0  0
    8.4143    6.6863   16.2273 C   0  0  0  0  0  0  0  0  0  0  0  0
   10.7581    6.5674   21.7636 C   0  0  0  0  0  0  0  0  0  0  0  0
    8.4452    8.7960   19.2958 O   0  0  0  0  0  0  0  0  0  0  0  0
    8.7122    6.7842   24.8569 C   0  0  0  0  0  0  0  0  0  0  0  0
   10.3400    6.1726   14.3081 C   0  0  0  0  0  0  0  0  0  0  0  0
    7.4297    7.5873   24.8962 C   0  0  0  0  0  0  0  0  0  0  0  0
    8.1566   10.0536   16.0516 O   0  0  0  0  0  0  0  0  0  0  0  0
   12.4989    6.2074   20.1776 C   0  0  0  0  0  0  0  0  0  0  0  0
    6.9192    9.1053   20.9073 O   0  0  0  0  0  0  0  0  0  0  0  0
   14.3979    6.0729   18.7784 C   0  0  0  0  0  0  0  0  0  0  0  0
    8.6811    9.5354   16.9998 C   0  0  0  0  0  0  0  0  0  0  0  0
    9.2512    4.2713   13.7653 O   0  0  0  0  0  0  0  0  0  0  0  0
    9.6495    8.6317   16.8332 N   0  0  0  0  0  0  0  0  0  0  0  0
    6.2934    8.6988   23.1988 O   0  0  0  0  0  0  0  0  0  0  0  0
    7.9806    8.6543   20.5437 C   0  0  0  0  0  0  0  0  0  0  0  0
   13.7270    5.7144   19.8610 O   0  0  0  0  0  0  0  0  0  0  0  0
    8.3351    5.5235   15.4478 C   0  0  0  0  0  0  0  0  0  0  0  0
    8.7700    7.8434   21.3915 C   0  0  0  0  0  0  0  0  0  0  0  0
   11.7856    6.8851   19.2401 C   0  0  0  0  0  0  0  0  0  0  0  0
   10.5281    7.4276   19.5649 C   0  0  0  0  0  0  0  0  0  0  0  0
   10.0256    7.2907   20.8484 C   0  0  0  0  0  0  0  0  0  0  0  0
    9.3113    5.3049   14.4911 C   0  0  0  0  0  0  0  0  0  0  0  0
    9.4607    7.5646   16.0139 C   0  0  0  0  0  0  0  0  0  0  0  0
   10.4192    7.3157   15.0955 C   0  0  0  0  0  0  0  0  0  0  0  0
   10.2489    6.4227   23.0218 N   0  0  0  0  0  0  0  0  0  0  0  0
    7.2472    8.0746   23.5050 C   0  0  0  0  0  0  0  0  0  0  0  0
    9.2051    6.9101   23.4604 C   0  0  0  0  0  0  0  0  0  0  0  0
   11.9646    6.0299   21.4251 C   0  0  0  0  0  0  0  0  0  0  0  0
  1  5  1  0
  1 13  1  0
  2 20  2  0
  2 28  1  0
  2 29  1  0
  3 19  4  0
  3 25  4  0
  4 23  4  0
  4 27  1  0
  4 30  4  0
  5 17  1  0
  6  8  1  0
  6 29  1  0
  7 24  4  0
  7 26  4  0
  8 28  1  0
  9 13  2  0
 10 18  1  0
 10 21  4  0
 10 30  4  0
 11 17  2  0
 12 18  1  0
 13 15  1  0
 14 24  1  0
 15 25  1  0
 16 28  2  0
 17 20  1  0
 19 24  4  0
 20 23  1  0
 21 22  4  0
 22 23  4  0
 25 26  4  0
 27 29  2  0
M  END
$$$$

 Created by Python create_sdf_string function

 30 33  0  0  0  0  0  0  0  0999 V2000
    8.3036    9.8571   18.4133 C   0  0  0  0  0  0  0  0  0  0  0  0
    8.3694    7.6612   22.6703 C   0  0  0  0  0  0  0  0  0  0  0  0
    8.4143    6.6863   16.2273 C   0  0  0  0  0  0  0  0  0  0  0  0
   10.7581    6.5674   21.7636 C   0  0  0  0  0  0  0  0  0  0  0  0
    8.4452    8.7960   19.2958 O   0  0  0  0  0  0  0  0  0  0  0  0
    8.7122    6.7842   24.8569 C   0  0  0  0  0  0  0  0  0  0  0  0
   10.3400    6.1726   14.3081 C   0  0  0  0  0  0  0  0  0  0  0  0
    7.4297    7.5873   24.8962 C   0  0  0  0  0  0  0  0  0  0  0  0
    8.1566   10.0536   16.0516 O   0  0  0  0  0  0  0  0  0  0  0  0
   12.4989    6.2074   20.1776 C   0  0  0  0  0  0  0  0  0  0  0  0
    6.9192    9.1053   20.9073 O   0  0  0  0  0  0  0  0  0  0  0  0
   14.3979    6.0729   18.7784 C   0  0  0  0  0  0  0  0  0  0  0  0
    8.6811    9.5354   16.9998 C   0  0  0  0  0  0  0  0  0  0  0  0
    9.2512    4.2713   13.7653 O   0  0  0  0  0  0  0  0  0  0  0  0
    9.6495    8.6317   16.8332 N   0  0  0  0  0  0  0  0  0  0  0  0
    6.2934    8.6988   23.1988 O   0  0  0  0  0  0  0  0  0  0  0  0
    7.9806    8.6543   20.5437 C   0  0  0  0  0  0  0  0  0  0  0  0
   13.7270    5.7144   19.8610 O   0  0  0  0  0  0  0  0  0  0  0  0
    8.3351    5.5235   15.4478 C   0  0  0  0  0  0  0  0  0  0  0  0
    8.7700    7.8434   21.3915 C   0  0  0  0  0  0  0  0  0  0  0  0
   11.7856    6.8851   19.2401 C   0  0  0  0  0  0  0  0  0  0  0  0
   10.5281    7.4276   19.5649 C   0  0  0  0  0  0  0  0  0  0  0  0
   10.0256    7.2907   20.8484 C   0  0  0  0  0  0  0  0  0  0  0  0
    9.3113    5.3049   14.4911 C   0  0  0  0  0  0  0  0  0  0  0  0
    9.4607    7.5646   16.0139 C   0  0  0  0  0  0  0  0  0  0  0  0
   10.4192    7.3157   15.0955 C   0  0  0  0  0  0  0  0  0  0  0  0
   10.2489    6.4227   23.0218 N   0  0  0  0  0  0  0  0  0  0  0  0
    7.2472    8.0746   23.5050 C   0  0  0  0  0  0  0  0  0  0  0  0
    9.2051    6.9101   23.4604 C   0  0  0  0  0  0  0  0  0  0  0  0
   11.9646    6.0299   21.4251 C   0  0  0  0  0  0  0  0  0  0  0  0
  1  5  1  0
  1 13  1  0
  2 20  2  0
  2 28  1  0
  2 29  1  0
  3 19  4  0
  3 25  4  0
  4 23  4  0
  4 27  1  0
  4 30  4  0
  5 17  1  0
  6  8  1  0
  6 29  1  0
  7 24  4  0
  7 26  4  0
  8 28  1  0
  9 13  2  0
 10 18  1  0
 10 21  4  0
 10 30  4  0
 11 17  2  0
 12 18  1  0
 13 15  1  0
 14 24  1  0
 15 25  1  0
 16 28  2  0
 17 20  1  0
 19 24  4  0
 20 23  1  0
 21 22  4  0
 22 23  4  0
 25 26  4  0
 27 29  2  0
M  END
$$$$

 Created by Python create_sdf_string function

 30 33  0  0  0  0  0  0  0  0999 V2000
    8.3036    9.8571   18.4133 C   0  0  0  0  0  0  0  0  0  0  0  0
    8.3694    7.6612   22.6703 C   0  0  0  0  0  0  0  0  0  0  0  0
    8.4143    6.6863   16.2273 C   0  0  0  0  0  0  0  0  0  0  0  0
   10.7581    6.5674   21.7636 C   0  0  0  0  0  0  0  0  0  0  0  0
    8.4452    8.7960   19.2958 O   0  0  0  0  0  0  0  0  0  0  0  0
    8.7122    6.7842   24.8569 C   0  0  0  0  0  0  0  0  0  0  0  0
   10.3400    6.1726   14.3081 C   0  0  0  0  0  0  0  0  0  0  0  0
    7.4297    7.5873   24.8962 C   0  0  0  0  0  0  0  0  0  0  0  0
    8.1566   10.0536   16.0516 O   0  0  0  0  0  0  0  0  0  0  0  0
   12.4989    6.2074   20.1776 C   0  0  0  0  0  0  0  0  0  0  0  0
    6.9192    9.1053   20.9073 O   0  0  0  0  0  0  0  0  0  0  0  0
   14.3979    6.0729   18.7784 C   0  0  0  0  0  0  0  0  0  0  0  0
    8.6811    9.5354   16.9998 C   0  0  0  0  0  0  0  0  0  0  0  0
    9.2512    4.2713   13.7653 O   0  0  0  0  0  0  0  0  0  0  0  0
    9.6495    8.6317   16.8332 N   0  0  0  0  0  0  0  0  0  0  0  0
    6.2934    8.6988   23.1988 O   0  0  0  0  0  0  0  0  0  0  0  0
    7.9806    8.6543   20.5437 C   0  0  0  0  0  0  0  0  0  0  0  0
   13.7270    5.7144   19.8610 O   0  0  0  0  0  0  0  0  0  0  0  0
    8.3351    5.5235   15.4478 C   0  0  0  0  0  0  0  0  0  0  0  0
    8.7700    7.8434   21.3915 C   0  0  0  0  0  0  0  0  0  0  0  0
   11.7856    6.8851   19.2401 C   0  0  0  0  0  0  0  0  0  0  0  0
   10.5281    7.4276   19.5649 C   0  0  0  0  0  0  0  0  0  0  0  0
   10.0256    7.2907   20.8484 C   0  0  0  0  0  0  0  0  0  0  0  0
    9.3113    5.3049   14.4911 C   0  0  0  0  0  0  0  0  0  0  0  0
    9.4607    7.5646   16.0139 C   0  0  0  0  0  0  0  0  0  0  0  0
   10.4192    7.3157   15.0955 C   0  0  0  0  0  0  0  0  0  0  0  0
   10.2489    6.4227   23.0218 N   0  0  0  0  0  0  0  0  0  0  0  0
    7.2472    8.0746   23.5050 C   0  0  0  0  0  0  0  0  0  0  0  0
    9.2051    6.9101   23.4604 C   0  0  0  0  0  0  0  0  0  0  0  0
   11.9646    6.0299   21.4251 C   0  0  0  0  0  0  0  0  0  0  0  0
  1  5  1  0
  1 13  1  0
  2 20  2  0
  2 28  1  0
  2 29  1  0
  3 19  4  0
  3 25  4  0
  4 23  4  0
  4 27  1  0
  4 30  4  0
  5 17  1  0
  6  8  1  0
  6 29  1  0
  7 24  4  0
  7 26  4  0
  8 28  1  0
  9 13  2  0
 10 18  1  0
 10 21  4  0
 10 30  4  0
 11 17  2  0
 12 18  1  0
 13 15  1  0
 14 24  1  0
 15 25  1  0
 16 28  2  0
 17 20  1  0
 19 24  4  0
 20 23  1  0
 21 22  4  0
 22 23  4  0
 25 26  4  0
 27 29  2  0
M  END
$$$$

 Created by Python create_sdf_string function

 30 33  0  0  0  0  0  0  0  0999 V2000
    8.3036    9.8571   18.4133 C   0  0  0  0  0  0  0  0  0  0  0  0
    8.3694    7.6612   22.6703 C   0  0  0  0  0  0  0  0  0  0  0  0
    8.4143    6.6863   16.2273 C   0  0  0  0  0  0  0  0  0  0  0  0
   10.7581    6.5674   21.7636 C   0  0  0  0  0  0  0  0  0  0  0  0
    8.4452    8.7960   19.2958 O   0  0  0  0  0  0  0  0  0  0  0  0
    8.7122    6.7842   24.8569 C   0  0  0  0  0  0  0  0  0  0  0  0
   10.3400    6.1726   14.3081 C   0  0  0  0  0  0  0  0  0  0  0  0
    7.4297    7.5873   24.8962 C   0  0  0  0  0  0  0  0  0  0  0  0
    8.1566   10.0536   16.0516 O   0  0  0  0  0  0  0  0  0  0  0  0
   12.4989    6.2074   20.1776 C   0  0  0  0  0  0  0  0  0  0  0  0
    6.9192    9.1053   20.9073 O   0  0  0  0  0  0  0  0  0  0  0  0
   14.3979    6.0729   18.7784 C   0  0  0  0  0  0  0  0  0  0  0  0
    8.6811    9.5354   16.9998 C   0  0  0  0  0  0  0  0  0  0  0  0
    9.2512    4.2713   13.7653 O   0  0  0  0  0  0  0  0  0  0  0  0
    9.6495    8.6317   16.8332 N   0  0  0  0  0  0  0  0  0  0  0  0
    6.2934    8.6988   23.1988 O   0  0  0  0  0  0  0  0  0  0  0  0
    7.9806    8.6543   20.5437 C   0  0  0  0  0  0  0  0  0  0  0  0
   13.7270    5.7144   19.8610 O   0  0  0  0  0  0  0  0  0  0  0  0
    8.3351    5.5235   15.4478 C   0  0  0  0  0  0  0  0  0  0  0  0
    8.7700    7.8434   21.3915 C   0  0  0  0  0  0  0  0  0  0  0  0
   11.7856    6.8851   19.2401 C   0  0  0  0  0  0  0  0  0  0  0  0
   10.5281    7.4276   19.5649 C   0  0  0  0  0  0  0  0  0  0  0  0
   10.0256    7.2907   20.8484 C   0  0  0  0  0  0  0  0  0  0  0  0
    9.3113    5.3049   14.4911 C   0  0  0  0  0  0  0  0  0  0  0  0
    9.4607    7.5646   16.0139 C   0  0  0  0  0  0  0  0  0  0  0  0
   10.4192    7.3157   15.0955 C   0  0  0  0  0  0  0  0  0  0  0  0
   10.2489    6.4227   23.0218 N   0  0  0  0  0  0  0  0  0  0  0  0
    7.2472    8.0746   23.5050 C   0  0  0  0  0  0  0  0  0  0  0  0
    9.2051    6.9101   23.4604 C   0  0  0  0  0  0  0  0  0  0  0  0
   11.9646    6.0299   21.4251 C   0  0  0  0  0  0  0  0  0  0  0  0
  1  5  1  0
  1 13  1  0
  2 20  2  0
  2 28  1  0
  2 29  1  0
  3 19  4  0
  3 25  4  0
  4 23  4  0
  4 27  1  0
  4 30  4  0
  5 17  1  0
  6  8  1  0
  6 29  1  0
  7 24  4  0
  7 26  4  0
  8 28  1  0
  9 13  2  0
 10 18  1  0
 10 21  4  0
 10 30  4  0
 11 17  2  0
 12 18  1  0
 13 15  1  0
 14 24  1  0
 15 25  1  0
 16 28  2  0
 17 20  1  0
 19 24  4  0
 20 23  1  0
 21 22  4  0
 22 23  4  0
 25 26  4  0
 27 29  2  0
M  END
$$$$

 Created by Python create_sdf_string function

 30 33  0  0  0  0  0  0  0  0999 V2000
    8.3036    9.8571   18.4133 C   0  0  0  0  0  0  0  0  0  0  0  0
    8.3694    7.6612   22.6703 C   0  0  0  0  0  0  0  0  0  0  0  0
    8.4143    6.6863   16.2273 C   0  0  0  0  0  0  0  0  0  0  0  0
   10.7581    6.5674   21.7636 C   0  0  0  0  0  0  0  0  0  0  0  0
    8.4452    8.7960   19.2958 O   0  0  0  0  0  0  0  0  0  0  0  0
    8.7122    6.7842   24.8569 C   0  0  0  0  0  0  0  0  0  0  0  0
   10.3400    6.1726   14.3081 C   0  0  0  0  0  0  0  0  0  0  0  0
    7.4297    7.5873   24.8962 C   0  0  0  0  0  0  0  0  0  0  0  0
    8.1566   10.0536   16.0516 O   0  0  0  0  0  0  0  0  0  0  0  0
   12.4989    6.2074   20.1776 C   0  0  0  0  0  0  0  0  0  0  0  0
    6.9192    9.1053   20.9073 O   0  0  0  0  0  0  0  0  0  0  0  0
   14.3979    6.0729   18.7784 C   0  0  0  0  0  0  0  0  0  0  0  0
    8.6811    9.5354   16.9998 C   0  0  0  0  0  0  0  0  0  0  0  0
    9.2512    4.2713   13.7653 O   0  0  0  0  0  0  0  0  0  0  0  0
    9.6495    8.6317   16.8332 N   0  0  0  0  0  0  0  0  0  0  0  0
    6.2934    8.6988   23.1988 O   0  0  0  0  0  0  0  0  0  0  0  0
    7.9806    8.6543   20.5437 C   0  0  0  0  0  0  0  0  0  0  0  0
   13.7270    5.7144   19.8610 O   0  0  0  0  0  0  0  0  0  0  0  0
    8.3351    5.5235   15.4478 C   0  0  0  0  0  0  0  0  0  0  0  0
    8.7700    7.8434   21.3915 C   0  0  0  0  0  0  0  0  0  0  0  0
   11.7856    6.8851   19.2401 C   0  0  0  0  0  0  0  0  0  0  0  0
   10.5281    7.4276   19.5649 C   0  0  0  0  0  0  0  0  0  0  0  0
   10.0256    7.2907   20.8484 C   0  0  0  0  0  0  0  0  0  0  0  0
    9.3113    5.3049   14.4911 C   0  0  0  0  0  0  0  0  0  0  0  0
    9.4607    7.5646   16.0139 C   0  0  0  0  0  0  0  0  0  0  0  0
   10.4192    7.3157   15.0955 C   0  0  0  0  0  0  0  0  0  0  0  0
   10.2489    6.4227   23.0218 N   0  0  0  0  0  0  0  0  0  0  0  0
    7.2472    8.0746   23.5050 C   0  0  0  0  0  0  0  0  0  0  0  0
    9.2051    6.9101   23.4604 C   0  0  0  0  0  0  0  0  0  0  0  0
   11.9646    6.0299   21.4251 C   0  0  0  0  0  0  0  0  0  0  0  0
  1  5  1  0
  1 13  1  0
  2 20  2  0
  2 28  1  0
  2 29  1  0
  3 19  4  0
  3 25  4  0
  4 23  4  0
  4 27  1  0
  4 30  4  0
  5 17  1  0
  6  8  1  0
  6 29  1  0
  7 24  4  0
  7 26  4  0
  8 28  1  0
  9 13  2  0
 10 18  1  0
 10 21  4  0
 10 30  4  0
 11 17  2  0
 12 18  1  0
 13 15  1  0
 14 24  1  0
 15 25  1  0
 16 28  2  0
 17 20  1  0
 19 24  4  0
 20 23  1  0
 21 22  4  0
 22 23  4  0
 25 26  4  0
 27 29  2  0
M  END
$$$$

 Created by Python create_sdf_string function

 30 33  0  0  0  0  0  0  0  0999 V2000
    8.3036    9.8571   18.4133 C   0  0  0  0  0  0  0  0  0  0  0  0
    8.3694    7.6612   22.6703 C   0  0  0  0  0  0  0  0  0  0  0  0
    8.4143    6.6863   16.2273 C   0  0  0  0  0  0  0  0  0  0  0  0
   10.7581    6.5674   21.7636 C   0  0  0  0  0  0  0  0  0  0  0  0
    8.4452    8.7960   19.2958 O   0  0  0  0  0  0  0  0  0  0  0  0
    8.7122    6.7842   24.8569 C   0  0  0  0  0  0  0  0  0  0  0  0
   10.3400    6.1726   14.3081 C   0  0  0  0  0  0  0  0  0  0  0  0
    7.4297    7.5873   24.8962 C   0  0  0  0  0  0  0  0  0  0  0  0
    8.1566   10.0536   16.0516 O   0  0  0  0  0  0  0  0  0  0  0  0
   12.4989    6.2074   20.1776 C   0  0  0  0  0  0  0  0  0  0  0  0
    6.9192    9.1053   20.9073 O   0  0  0  0  0  0  0  0  0  0  0  0
   14.3979    6.0729   18.7784 C   0  0  0  0  0  0  0  0  0  0  0  0
    8.6811    9.5354   16.9998 C   0  0  0  0  0  0  0  0  0  0  0  0
    9.2512    4.2713   13.7653 O   0  0  0  0  0  0  0  0  0  0  0  0
    9.6495    8.6317   16.8332 N   0  0  0  0  0  0  0  0  0  0  0  0
    6.2934    8.6988   23.1988 O   0  0  0  0  0  0  0  0  0  0  0  0
    7.9806    8.6543   20.5437 C   0  0  0  0  0  0  0  0  0  0  0  0
   13.7270    5.7144   19.8610 O   0  0  0  0  0  0  0  0  0  0  0  0
    8.3351    5.5235   15.4478 C   0  0  0  0  0  0  0  0  0  0  0  0
    8.7700    7.8434   21.3915 C   0  0  0  0  0  0  0  0  0  0  0  0
   11.7856    6.8851   19.2401 C   0  0  0  0  0  0  0  0  0  0  0  0
   10.5281    7.4276   19.5649 C   0  0  0  0  0  0  0  0  0  0  0  0
   10.0256    7.2907   20.8484 C   0  0  0  0  0  0  0  0  0  0  0  0
    9.3113    5.3049   14.4911 C   0  0  0  0  0  0  0  0  0  0  0  0
    9.4607    7.5646   16.0139 C   0  0  0  0  0  0  0  0  0  0  0  0
   10.4192    7.3157   15.0955 C   0  0  0  0  0  0  0  0  0  0  0  0
   10.2489    6.4227   23.0218 N   0  0  0  0  0  0  0  0  0  0  0  0
    7.2472    8.0746   23.5050 C   0  0  0  0  0  0  0  0  0  0  0  0
    9.2051    6.9101   23.4604 C   0  0  0  0  0  0  0  0  0  0  0  0
   11.9646    6.0299   21.4251 C   0  0  0  0  0  0  0  0  0  0  0  0
  1  5  1  0
  1 13  1  0
  2 20  2  0
  2 28  1  0
  2 29  1  0
  3 19  4  0
  3 25  4  0
  4 23  4  0
  4 27  1  0
  4 30  4  0
  5 17  1  0
  6  8  1  0
  6 29  1  0
  7 24  4  0
  7 26  4  0
  8 28  1  0
  9 13  2  0
 10 18  1  0
 10 21  4  0
 10 30  4  0
 11 17  2  0
 12 18  1  0
 13 15  1  0
 14 24  1  0
 15 25  1  0
 16 28  2  0
 17 20  1  0
 19 24  4  0
 20 23  1  0
 21 22  4  0
 22 23  4  0
 25 26  4  0
 27 29  2  0
M  END
$$$$

 Created by Python create_sdf_string function

 30 33  0  0  0  0  0  0  0  0999 V2000
    8.3036    9.8571   18.4133 C   0  0  0  0  0  0  0  0  0  0  0  0
    8.3694    7.6612   22.6703 C   0  0  0  0  0  0  0  0  0  0  0  0
    8.4143    6.6863   16.2273 C   0  0  0  0  0  0  0  0  0  0  0  0
   10.7581    6.5674   21.7636 C   0  0  0  0  0  0  0  0  0  0  0  0
    8.4452    8.7960   19.2958 O   0  0  0  0  0  0  0  0  0  0  0  0
    8.7122    6.7842   24.8569 C   0  0  0  0  0  0  0  0  0  0  0  0
   10.3400    6.1726   14.3081 C   0  0  0  0  0  0  0  0  0  0  0  0
    7.4297    7.5873   24.8962 C   0  0  0  0  0  0  0  0  0  0  0  0
    8.1566   10.0536   16.0516 O   0  0  0  0  0  0  0  0  0  0  0  0
   12.4989    6.2074   20.1776 C   0  0  0  0  0  0  0  0  0  0  0  0
    6.9192    9.1053   20.9073 O   0  0  0  0  0  0  0  0  0  0  0  0
   14.3979    6.0729   18.7784 C   0  0  0  0  0  0  0  0  0  0  0  0
    8.6811    9.5354   16.9998 C   0  0  0  0  0  0  0  0  0  0  0  0
    9.2512    4.2713   13.7653 O   0  0  0  0  0  0  0  0  0  0  0  0
    9.6495    8.6317   16.8332 N   0  0  0  0  0  0  0  0  0  0  0  0
    6.2934    8.6988   23.1988 O   0  0  0  0  0  0  0  0  0  0  0  0
    7.9806    8.6543   20.5437 C   0  0  0  0  0  0  0  0  0  0  0  0
   13.7270    5.7144   19.8610 O   0  0  0  0  0  0  0  0  0  0  0  0
    8.3351    5.5235   15.4478 C   0  0  0  0  0  0  0  0  0  0  0  0
    8.7700    7.8434   21.3915 C   0  0  0  0  0  0  0  0  0  0  0  0
   11.7856    6.8851   19.2401 C   0  0  0  0  0  0  0  0  0  0  0  0
   10.5281    7.4276   19.5649 C   0  0  0  0  0  0  0  0  0  0  0  0
   10.0256    7.2907   20.8484 C   0  0  0  0  0  0  0  0  0  0  0  0
    9.3113    5.3049   14.4911 C   0  0  0  0  0  0  0  0  0  0  0  0
    9.4607    7.5646   16.0139 C   0  0  0  0  0  0  0  0  0  0  0  0
   10.4192    7.3157   15.0955 C   0  0  0  0  0  0  0  0  0  0  0  0
   10.2489    6.4227   23.0218 N   0  0  0  0  0  0  0  0  0  0  0  0
    7.2472    8.0746   23.5050 C   0  0  0  0  0  0  0  0  0  0  0  0
    9.2051    6.9101   23.4604 C   0  0  0  0  0  0  0  0  0  0  0  0
   11.9646    6.0299   21.4251 C   0  0  0  0  0  0  0  0  0  0  0  0
  1  5  1  0
  1 13  1  0
  2 20  2  0
  2 28  1  0
  2 29  1  0
  3 19  4  0
  3 25  4  0
  4 23  4  0
  4 27  1  0
  4 30  4  0
  5 17  1  0
  6  8  1  0
  6 29  1  0
  7 24  4  0
  7 26  4  0
  8 28  1  0
  9 13  2  0
 10 18  1  0
 10 21  4  0
 10 30  4  0
 11 17  2  0
 12 18  1  0
 13 15  1  0
 14 24  1  0
 15 25  1  0
 16 28  2  0
 17 20  1  0
 19 24  4  0
 20 23  1  0
 21 22  4  0
 22 23  4  0
 25 26  4  0
 27 29  2  0
M  END
$$$$

 Created by Python create_sdf_string function

 30 33  0  0  0  0  0  0  0  0999 V2000
    8.3036    9.8571   18.4133 C   0  0  0  0  0  0  0  0  0  0  0  0
    8.3694    7.6612   22.6703 C   0  0  0  0  0  0  0  0  0  0  0  0
    8.4143    6.6863   16.2273 C   0  0  0  0  0  0  0  0  0  0  0  0
   10.7581    6.5674   21.7636 C   0  0  0  0  0  0  0  0  0  0  0  0
    8.4452    8.7960   19.2958 O   0  0  0  0  0  0  0  0  0  0  0  0
    8.7122    6.7842   24.8569 C   0  0  0  0  0  0  0  0  0  0  0  0
   10.3400    6.1726   14.3081 C   0  0  0  0  0  0  0  0  0  0  0  0
    7.4297    7.5873   24.8962 C   0  0  0  0  0  0  0  0  0  0  0  0
    8.1566   10.0536   16.0516 O   0  0  0  0  0  0  0  0  0  0  0  0
   12.4989    6.2074   20.1776 C   0  0  0  0  0  0  0  0  0  0  0  0
    6.9192    9.1053   20.9073 O   0  0  0  0  0  0  0  0  0  0  0  0
   14.3979    6.0729   18.7784 C   0  0  0  0  0  0  0  0  0  0  0  0
    8.6811    9.5354   16.9998 C   0  0  0  0  0  0  0  0  0  0  0  0
    9.2512    4.2713   13.7653 O   0  0  0  0  0  0  0  0  0  0  0  0
    9.6495    8.6317   16.8332 N   0  0  0  0  0  0  0  0  0  0  0  0
    6.2934    8.6988   23.1988 O   0  0  0  0  0  0  0  0  0  0  0  0
    7.9806    8.6543   20.5437 C   0  0  0  0  0  0  0  0  0  0  0  0
   13.7270    5.7144   19.8610 O   0  0  0  0  0  0  0  0  0  0  0  0
    8.3351    5.5235   15.4478 C   0  0  0  0  0  0  0  0  0  0  0  0
    8.7700    7.8434   21.3915 C   0  0  0  0  0  0  0  0  0  0  0  0
   11.7856    6.8851   19.2401 C   0  0  0  0  0  0  0  0  0  0  0  0
   10.5281    7.4276   19.5649 C   0  0  0  0  0  0  0  0  0  0  0  0
   10.0256    7.2907   20.8484 C   0  0  0  0  0  0  0  0  0  0  0  0
    9.3113    5.3049   14.4911 C   0  0  0  0  0  0  0  0  0  0  0  0
    9.4607    7.5646   16.0139 C   0  0  0  0  0  0  0  0  0  0  0  0
   10.4192    7.3157   15.0955 C   0  0  0  0  0  0  0  0  0  0  0  0
   10.2489    6.4227   23.0218 N   0  0  0  0  0  0  0  0  0  0  0  0
    7.2472    8.0746   23.5050 C   0  0  0  0  0  0  0  0  0  0  0  0
    9.2051    6.9101   23.4604 C   0  0  0  0  0  0  0  0  0  0  0  0
   11.9646    6.0299   21.4251 C   0  0  0  0  0  0  0  0  0  0  0  0
  1  5  1  0
  1 13  1  0
  2 20  2  0
  2 28  1  0
  2 29  1  0
  3 19  4  0
  3 25  4  0
  4 23  4  0
  4 27  1  0
  4 30  4  0
  5 17  1  0
  6  8  1  0
  6 29  1  0
  7 24  4  0
  7 26  4  0
  8 28  1  0
  9 13  2  0
 10 18  1  0
 10 21  4  0
 10 30  4  0
 11 17  2  0
 12 18  1  0
 13 15  1  0
 14 24  1  0
 15 25  1  0
 16 28  2  0
 17 20  1  0
 19 24  4  0
 20 23  1  0
 21 22  4  0
 22 23  4  0
 25 26  4  0
 27 29  2  0
M  END
$$$$

 Created by Python create_sdf_string function

 30 33  0  0  0  0  0  0  0  0999 V2000
    8.3036    9.8571   18.4133 C   0  0  0  0  0  0  0  0  0  0  0  0
    8.3694    7.6612   22.6703 C   0  0  0  0  0  0  0  0  0  0  0  0
    8.4143    6.6863   16.2273 C   0  0  0  0  0  0  0  0  0  0  0  0
   10.7581    6.5674   21.7636 C   0  0  0  0  0  0  0  0  0  0  0  0
    8.4452    8.7960   19.2958 O   0  0  0  0  0  0  0  0  0  0  0  0
    8.7122    6.7842   24.8569 C   0  0  0  0  0  0  0  0  0  0  0  0
   10.3400    6.1726   14.3081 C   0  0  0  0  0  0  0  0  0  0  0  0
    7.4297    7.5873   24.8962 C   0  0  0  0  0  0  0  0  0  0  0  0
    8.1566   10.0536   16.0516 O   0  0  0  0  0  0  0  0  0  0  0  0
   12.4989    6.2074   20.1776 C   0  0  0  0  0  0  0  0  0  0  0  0
    6.9192    9.1053   20.9073 O   0  0  0  0  0  0  0  0  0  0  0  0
   14.3979    6.0729   18.7784 C   0  0  0  0  0  0  0  0  0  0  0  0
    8.6811    9.5354   16.9998 C   0  0  0  0  0  0  0  0  0  0  0  0
    9.2512    4.2713   13.7653 O   0  0  0  0  0  0  0  0  0  0  0  0
    9.6495    8.6317   16.8332 N   0  0  0  0  0  0  0  0  0  0  0  0
    6.2934    8.6988   23.1988 O   0  0  0  0  0  0  0  0  0  0  0  0
    7.9806    8.6543   20.5437 C   0  0  0  0  0  0  0  0  0  0  0  0
   13.7270    5.7144   19.8610 O   0  0  0  0  0  0  0  0  0  0  0  0
    8.3351    5.5235   15.4478 C   0  0  0  0  0  0  0  0  0  0  0  0
    8.7700    7.8434   21.3915 C   0  0  0  0  0  0  0  0  0  0  0  0
   11.7856    6.8851   19.2401 C   0  0  0  0  0  0  0  0  0  0  0  0
   10.5281    7.4276   19.5649 C   0  0  0  0  0  0  0  0  0  0  0  0
   10.0256    7.2907   20.8484 C   0  0  0  0  0  0  0  0  0  0  0  0
    9.3113    5.3049   14.4911 C   0  0  0  0  0  0  0  0  0  0  0  0
    9.4607    7.5646   16.0139 C   0  0  0  0  0  0  0  0  0  0  0  0
   10.4192    7.3157   15.0955 C   0  0  0  0  0  0  0  0  0  0  0  0
   10.2489    6.4227   23.0218 N   0  0  0  0  0  0  0  0  0  0  0  0
    7.2472    8.0746   23.5050 C   0  0  0  0  0  0  0  0  0  0  0  0
    9.2051    6.9101   23.4604 C   0  0  0  0  0  0  0  0  0  0  0  0
   11.9646    6.0299   21.4251 C   0  0  0  0  0  0  0  0  0  0  0  0
  1  5  1  0
  1 13  1  0
  2 20  2  0
  2 28  1  0
  2 29  1  0
  3 19  4  0
  3 25  4  0
  4 23  4  0
  4 27  1  0
  4 30  4  0
  5 17  1  0
  6  8  1  0
  6 29  1  0
  7 24  4  0
  7 26  4  0
  8 28  1  0
  9 13  2  0
 10 18  1  0
 10 21  4  0
 10 30  4  0
 11 17  2  0
 12 18  1  0
 13 15  1  0
 14 24  1  0
 15 25  1  0
 16 28  2  0
 17 20  1  0
 19 24  4  0
 20 23  1  0
 21 22  4  0
 22 23  4  0
 25 26  4  0
 27 29  2  0
M  END
$$$$

 Created by Python create_sdf_string function

 30 33  0  0  0  0  0  0  0  0999 V2000
    8.3036    9.8571   18.4133 C   0  0  0  0  0  0  0  0  0  0  0  0
    8.3694    7.6612   22.6703 C   0  0  0  0  0  0  0  0  0  0  0  0
    8.4143    6.6863   16.2273 C   0  0  0  0  0  0  0  0  0  0  0  0
   10.7581    6.5674   21.7636 C   0  0  0  0  0  0  0  0  0  0  0  0
    8.4452    8.7960   19.2958 O   0  0  0  0  0  0  0  0  0  0  0  0
    8.7122    6.7842   24.8569 C   0  0  0  0  0  0  0  0  0  0  0  0
   10.3400    6.1726   14.3081 C   0  0  0  0  0  0  0  0  0  0  0  0
    7.4297    7.5873   24.8962 C   0  0  0  0  0  0  0  0  0  0  0  0
    8.1566   10.0536   16.0516 O   0  0  0  0  0  0  0  0  0  0  0  0
   12.4989    6.2074   20.1776 C   0  0  0  0  0  0  0  0  0  0  0  0
    6.9192    9.1053   20.9073 O   0  0  0  0  0  0  0  0  0  0  0  0
   14.3979    6.0729   18.7784 C   0  0  0  0  0  0  0  0  0  0  0  0
    8.6811    9.5354   16.9998 C   0  0  0  0  0  0  0  0  0  0  0  0
    9.2512    4.2713   13.7653 O   0  0  0  0  0  0  0  0  0  0  0  0
    9.6495    8.6317   16.8332 N   0  0  0  0  0  0  0  0  0  0  0  0
    6.2934    8.6988   23.1988 O   0  0  0  0  0  0  0  0  0  0  0  0
    7.9806    8.6543   20.5437 C   0  0  0  0  0  0  0  0  0  0  0  0
   13.7270    5.7144   19.8610 O   0  0  0  0  0  0  0  0  0  0  0  0
    8.3351    5.5235   15.4478 C   0  0  0  0  0  0  0  0  0  0  0  0
    8.7700    7.8434   21.3915 C   0  0  0  0  0  0  0  0  0  0  0  0
   11.7856    6.8851   19.2401 C   0  0  0  0  0  0  0  0  0  0  0  0
   10.5281    7.4276   19.5649 C   0  0  0  0  0  0  0  0  0  0  0  0
   10.0256    7.2907   20.8484 C   0  0  0  0  0  0  0  0  0  0  0  0
    9.3113    5.3049   14.4911 C   0  0  0  0  0  0  0  0  0  0  0  0
    9.4607    7.5646   16.0139 C   0  0  0  0  0  0  0  0  0  0  0  0
   10.4192    7.3157   15.0955 C   0  0  0  0  0  0  0  0  0  0  0  0
   10.2489    6.4227   23.0218 N   0  0  0  0  0  0  0  0  0  0  0  0
    7.2472    8.0746   23.5050 C   0  0  0  0  0  0  0  0  0  0  0  0
    9.2051    6.9101   23.4604 C   0  0  0  0  0  0  0  0  0  0  0  0
   11.9646    6.0299   21.4251 C   0  0  0  0  0  0  0  0  0  0  0  0
  1  5  1  0
  1 13  1  0
  2 20  2  0
  2 28  1  0
  2 29  1  0
  3 19  4  0
  3 25  4  0
  4 23  4  0
  4 27  1  0
  4 30  4  0
  5 17  1  0
  6  8  1  0
  6 29  1  0
  7 24  4  0
  7 26  4  0
  8 28  1  0
  9 13  2  0
 10 18  1  0
 10 21  4  0
 10 30  4  0
 11 17  2  0
 12 18  1  0
 13 15  1  0
 14 24  1  0
 15 25  1  0
 16 28  2  0
 17 20  1  0
 19 24  4  0
 20 23  1  0
 21 22  4  0
 22 23  4  0
 25 26  4  0
 27 29  2  0
M  END
$$$$

 Created by Python create_sdf_string function

 30 33  0  0  0  0  0  0  0  0999 V2000
    8.3036    9.8571   18.4133 C   0  0  0  0  0  0  0  0  0  0  0  0
    8.3694    7.6612   22.6703 C   0  0  0  0  0  0  0  0  0  0  0  0
    8.4143    6.6863   16.2273 C   0  0  0  0  0  0  0  0  0  0  0  0
   10.7581    6.5674   21.7636 C   0  0  0  0  0  0  0  0  0  0  0  0
    8.4452    8.7960   19.2958 O   0  0  0  0  0  0  0  0  0  0  0  0
    8.7122    6.7842   24.8569 C   0  0  0  0  0  0  0  0  0  0  0  0
   10.3400    6.1726   14.3081 C   0  0  0  0  0  0  0  0  0  0  0  0
    7.4297    7.5873   24.8962 C   0  0  0  0  0  0  0  0  0  0  0  0
    8.1566   10.0536   16.0516 O   0  0  0  0  0  0  0  0  0  0  0  0
   12.4989    6.2074   20.1776 C   0  0  0  0  0  0  0  0  0  0  0  0
    6.9192    9.1053   20.9073 O   0  0  0  0  0  0  0  0  0  0  0  0
   14.3979    6.0729   18.7784 C   0  0  0  0  0  0  0  0  0  0  0  0
    8.6811    9.5354   16.9998 C   0  0  0  0  0  0  0  0  0  0  0  0
    9.2512    4.2713   13.7653 O   0  0  0  0  0  0  0  0  0  0  0  0
    9.6495    8.6317   16.8332 N   0  0  0  0  0  0  0  0  0  0  0  0
    6.2934    8.6988   23.1988 O   0  0  0  0  0  0  0  0  0  0  0  0
    7.9806    8.6543   20.5437 C   0  0  0  0  0  0  0  0  0  0  0  0
   13.7270    5.7144   19.8610 O   0  0  0  0  0  0  0  0  0  0  0  0
    8.3351    5.5235   15.4478 C   0  0  0  0  0  0  0  0  0  0  0  0
    8.7700    7.8434   21.3915 C   0  0  0  0  0  0  0  0  0  0  0  0
   11.7856    6.8851   19.2401 C   0  0  0  0  0  0  0  0  0  0  0  0
   10.5281    7.4276   19.5649 C   0  0  0  0  0  0  0  0  0  0  0  0
   10.0256    7.2907   20.8484 C   0  0  0  0  0  0  0  0  0  0  0  0
    9.3113    5.3049   14.4911 C   0  0  0  0  0  0  0  0  0  0  0  0
    9.4607    7.5646   16.0139 C   0  0  0  0  0  0  0  0  0  0  0  0
   10.4192    7.3157   15.0955 C   0  0  0  0  0  0  0  0  0  0  0  0
   10.2489    6.4227   23.0218 N   0  0  0  0  0  0  0  0  0  0  0  0
    7.2472    8.0746   23.5050 C   0  0  0  0  0  0  0  0  0  0  0  0
    9.2051    6.9101   23.4604 C   0  0  0  0  0  0  0  0  0  0  0  0
   11.9646    6.0299   21.4251 C   0  0  0  0  0  0  0  0  0  0  0  0
  1  5  1  0
  1 13  1  0
  2 20  2  0
  2 28  1  0
  2 29  1  0
  3 19  4  0
  3 25  4  0
  4 23  4  0
  4 27  1  0
  4 30  4  0
  5 17  1  0
  6  8  1  0
  6 29  1  0
  7 24  4  0
  7 26  4  0
  8 28  1  0
  9 13  2  0
 10 18  1  0
 10 21  4  0
 10 30  4  0
 11 17  2  0
 12 18  1  0
 13 15  1  0
 14 24  1  0
 15 25  1  0
 16 28  2  0
 17 20  1  0
 19 24  4  0
 20 23  1  0
 21 22  4  0
 22 23  4  0
 25 26  4  0
 27 29  2  0
M  END
$$$$

 Created by Python create_sdf_string function

 30 33  0  0  0  0  0  0  0  0999 V2000
    8.3036    9.8571   18.4133 C   0  0  0  0  0  0  0  0  0  0  0  0
    8.3694    7.6612   22.6703 C   0  0  0  0  0  0  0  0  0  0  0  0
    8.4143    6.6863   16.2273 C   0  0  0  0  0  0  0  0  0  0  0  0
   10.7581    6.5674   21.7636 C   0  0  0  0  0  0  0  0  0  0  0  0
    8.4452    8.7960   19.2958 O   0  0  0  0  0  0  0  0  0  0  0  0
    8.7122    6.7842   24.8569 C   0  0  0  0  0  0  0  0  0  0  0  0
   10.3400    6.1726   14.3081 C   0  0  0  0  0  0  0  0  0  0  0  0
    7.4297    7.5873   24.8962 C   0  0  0  0  0  0  0  0  0  0  0  0
    8.1566   10.0536   16.0516 O   0  0  0  0  0  0  0  0  0  0  0  0
   12.4989    6.2074   20.1776 C   0  0  0  0  0  0  0  0  0  0  0  0
    6.9192    9.1053   20.9073 O   0  0  0  0  0  0  0  0  0  0  0  0
   14.3979    6.0729   18.7784 C   0  0  0  0  0  0  0  0  0  0  0  0
    8.6811    9.5354   16.9998 C   0  0  0  0  0  0  0  0  0  0  0  0
    9.2512    4.2713   13.7653 O   0  0  0  0  0  0  0  0  0  0  0  0
    9.6495    8.6317   16.8332 N   0  0  0  0  0  0  0  0  0  0  0  0
    6.2934    8.6988   23.1988 O   0  0  0  0  0  0  0  0  0  0  0  0
    7.9806    8.6543   20.5437 C   0  0  0  0  0  0  0  0  0  0  0  0
   13.7270    5.7144   19.8610 O   0  0  0  0  0  0  0  0  0  0  0  0
    8.3351    5.5235   15.4478 C   0  0  0  0  0  0  0  0  0  0  0  0
    8.7700    7.8434   21.3915 C   0  0  0  0  0  0  0  0  0  0  0  0
   11.7856    6.8851   19.2401 C   0  0  0  0  0  0  0  0  0  0  0  0
   10.5281    7.4276   19.5649 C   0  0  0  0  0  0  0  0  0  0  0  0
   10.0256    7.2907   20.8484 C   0  0  0  0  0  0  0  0  0  0  0  0
    9.3113    5.3049   14.4911 C   0  0  0  0  0  0  0  0  0  0  0  0
    9.4607    7.5646   16.0139 C   0  0  0  0  0  0  0  0  0  0  0  0
   10.4192    7.3157   15.0955 C   0  0  0  0  0  0  0  0  0  0  0  0
   10.2489    6.4227   23.0218 N   0  0  0  0  0  0  0  0  0  0  0  0
    7.2472    8.0746   23.5050 C   0  0  0  0  0  0  0  0  0  0  0  0
    9.2051    6.9101   23.4604 C   0  0  0  0  0  0  0  0  0  0  0  0
   11.9646    6.0299   21.4251 C   0  0  0  0  0  0  0  0  0  0  0  0
  1  5  1  0
  1 13  1  0
  2 20  2  0
  2 28  1  0
  2 29  1  0
  3 19  4  0
  3 25  4  0
  4 23  4  0
  4 27  1  0
  4 30  4  0
  5 17  1  0
  6  8  1  0
  6 29  1  0
  7 24  4  0
  7 26  4  0
  8 28  1  0
  9 13  2  0
 10 18  1  0
 10 21  4  0
 10 30  4  0
 11 17  2  0
 12 18  1  0
 13 15  1  0
 14 24  1  0
 15 25  1  0
 16 28  2  0
 17 20  1  0
 19 24  4  0
 20 23  1  0
 21 22  4  0
 22 23  4  0
 25 26  4  0
 27 29  2  0
M  END
$$$$

 Created by Python create_sdf_string function

 30 33  0  0  0  0  0  0  0  0999 V2000
    8.3036    9.8571   18.4133 C   0  0  0  0  0  0  0  0  0  0  0  0
    8.3694    7.6612   22.6703 C   0  0  0  0  0  0  0  0  0  0  0  0
    8.4143    6.6863   16.2273 C   0  0  0  0  0  0  0  0  0  0  0  0
   10.7581    6.5674   21.7636 C   0  0  0  0  0  0  0  0  0  0  0  0
    8.4452    8.7960   19.2958 O   0  0  0  0  0  0  0  0  0  0  0  0
    8.7122    6.7842   24.8569 C   0  0  0  0  0  0  0  0  0  0  0  0
   10.3400    6.1726   14.3081 C   0  0  0  0  0  0  0  0  0  0  0  0
    7.4297    7.5873   24.8962 C   0  0  0  0  0  0  0  0  0  0  0  0
    8.1566   10.0536   16.0516 O   0  0  0  0  0  0  0  0  0  0  0  0
   12.4989    6.2074   20.1776 C   0  0  0  0  0  0  0  0  0  0  0  0
    6.9192    9.1053   20.9073 O   0  0  0  0  0  0  0  0  0  0  0  0
   14.3979    6.0729   18.7784 C   0  0  0  0  0  0  0  0  0  0  0  0
    8.6811    9.5354   16.9998 C   0  0  0  0  0  0  0  0  0  0  0  0
    9.2512    4.2713   13.7653 O   0  0  0  0  0  0  0  0  0  0  0  0
    9.6495    8.6317   16.8332 N   0  0  0  0  0  0  0  0  0  0  0  0
    6.2934    8.6988   23.1988 O   0  0  0  0  0  0  0  0  0  0  0  0
    7.9806    8.6543   20.5437 C   0  0  0  0  0  0  0  0  0  0  0  0
   13.7270    5.7144   19.8610 O   0  0  0  0  0  0  0  0  0  0  0  0
    8.3351    5.5235   15.4478 C   0  0  0  0  0  0  0  0  0  0  0  0
    8.7700    7.8434   21.3915 C   0  0  0  0  0  0  0  0  0  0  0  0
   11.7856    6.8851   19.2401 C   0  0  0  0  0  0  0  0  0  0  0  0
   10.5281    7.4276   19.5649 C   0  0  0  0  0  0  0  0  0  0  0  0
   10.0256    7.2907   20.8484 C   0  0  0  0  0  0  0  0  0  0  0  0
    9.3113    5.3049   14.4911 C   0  0  0  0  0  0  0  0  0  0  0  0
    9.4607    7.5646   16.0139 C   0  0  0  0  0  0  0  0  0  0  0  0
   10.4192    7.3157   15.0955 C   0  0  0  0  0  0  0  0  0  0  0  0
   10.2489    6.4227   23.0218 N   0  0  0  0  0  0  0  0  0  0  0  0
    7.2472    8.0746   23.5050 C   0  0  0  0  0  0  0  0  0  0  0  0
    9.2051    6.9101   23.4604 C   0  0  0  0  0  0  0  0  0  0  0  0
   11.9646    6.0299   21.4251 C   0  0  0  0  0  0  0  0  0  0  0  0
  1  5  1  0
  1 13  1  0
  2 20  2  0
  2 28  1  0
  2 29  1  0
  3 19  4  0
  3 25  4  0
  4 23  4  0
  4 27  1  0
  4 30  4  0
  5 17  1  0
  6  8  1  0
  6 29  1  0
  7 24  4  0
  7 26  4  0
  8 28  1  0
  9 13  2  0
 10 18  1  0
 10 21  4  0
 10 30  4  0
 11 17  2  0
 12 18  1  0
 13 15  1  0
 14 24  1  0
 15 25  1  0
 16 28  2  0
 17 20  1  0
 19 24  4  0
 20 23  1  0
 21 22  4  0
 22 23  4  0
 25 26  4  0
 27 29  2  0
M  END
$$$$

 Created by Python create_sdf_string function

 30 33  0  0  0  0  0  0  0  0999 V2000
    8.3036    9.8571   18.4133 C   0  0  0  0  0  0  0  0  0  0  0  0
    8.3694    7.6612   22.6703 C   0  0  0  0  0  0  0  0  0  0  0  0
    8.4143    6.6863   16.2273 C   0  0  0  0  0  0  0  0  0  0  0  0
   10.7581    6.5674   21.7636 C   0  0  0  0  0  0  0  0  0  0  0  0
    8.4452    8.7960   19.2958 O   0  0  0  0  0  0  0  0  0  0  0  0
    8.7122    6.7842   24.8569 C   0  0  0  0  0  0  0  0  0  0  0  0
   10.3400    6.1726   14.3081 C   0  0  0  0  0  0  0  0  0  0  0  0
    7.4297    7.5873   24.8962 C   0  0  0  0  0  0  0  0  0  0  0  0
    8.1566   10.0536   16.0516 O   0  0  0  0  0  0  0  0  0  0  0  0
   12.4989    6.2074   20.1776 C   0  0  0  0  0  0  0  0  0  0  0  0
    6.9192    9.1053   20.9073 O   0  0  0  0  0  0  0  0  0  0  0  0
   14.3979    6.0729   18.7784 C   0  0  0  0  0  0  0  0  0  0  0  0
    8.6811    9.5354   16.9998 C   0  0  0  0  0  0  0  0  0  0  0  0
    9.2512    4.2713   13.7653 O   0  0  0  0  0  0  0  0  0  0  0  0
    9.6495    8.6317   16.8332 N   0  0  0  0  0  0  0  0  0  0  0  0
    6.2934    8.6988   23.1988 O   0  0  0  0  0  0  0  0  0  0  0  0
    7.9806    8.6543   20.5437 C   0  0  0  0  0  0  0  0  0  0  0  0
   13.7270    5.7144   19.8610 O   0  0  0  0  0  0  0  0  0  0  0  0
    8.3351    5.5235   15.4478 C   0  0  0  0  0  0  0  0  0  0  0  0
    8.7700    7.8434   21.3915 C   0  0  0  0  0  0  0  0  0  0  0  0
   11.7856    6.8851   19.2401 C   0  0  0  0  0  0  0  0  0  0  0  0
   10.5281    7.4276   19.5649 C   0  0  0  0  0  0  0  0  0  0  0  0
   10.0256    7.2907   20.8484 C   0  0  0  0  0  0  0  0  0  0  0  0
    9.3113    5.3049   14.4911 C   0  0  0  0  0  0  0  0  0  0  0  0
    9.4607    7.5646   16.0139 C   0  0  0  0  0  0  0  0  0  0  0  0
   10.4192    7.3157   15.0955 C   0  0  0  0  0  0  0  0  0  0  0  0
   10.2489    6.4227   23.0218 N   0  0  0  0  0  0  0  0  0  0  0  0
    7.2472    8.0746   23.5050 C   0  0  0  0  0  0  0  0  0  0  0  0
    9.2051    6.9101   23.4604 C   0  0  0  0  0  0  0  0  0  0  0  0
   11.9646    6.0299   21.4251 C   0  0  0  0  0  0  0  0  0  0  0  0
  1  5  1  0
  1 13  1  0
  2 20  2  0
  2 28  1  0
  2 29  1  0
  3 19  4  0
  3 25  4  0
  4 23  4  0
  4 27  1  0
  4 30  4  0
  5 17  1  0
  6  8  1  0
  6 29  1  0
  7 24  4  0
  7 26  4  0
  8 28  1  0
  9 13  2  0
 10 18  1  0
 10 21  4  0
 10 30  4  0
 11 17  2  0
 12 18  1  0
 13 15  1  0
 14 24  1  0
 15 25  1  0
 16 28  2  0
 17 20  1  0
 19 24  4  0
 20 23  1  0
 21 22  4  0
 22 23  4  0
 25 26  4  0
 27 29  2  0
M  END
$$$$

 Created by Python create_sdf_string function

 30 33  0  0  0  0  0  0  0  0999 V2000
    8.3036    9.8571   18.4133 C   0  0  0  0  0  0  0  0  0  0  0  0
    8.3694    7.6612   22.6703 C   0  0  0  0  0  0  0  0  0  0  0  0
    8.4143    6.6863   16.2273 C   0  0  0  0  0  0  0  0  0  0  0  0
   10.7581    6.5674   21.7636 C   0  0  0  0  0  0  0  0  0  0  0  0
    8.4452    8.7960   19.2958 O   0  0  0  0  0  0  0  0  0  0  0  0
    8.7122    6.7842   24.8569 C   0  0  0  0  0  0  0  0  0  0  0  0
   10.3400    6.1726   14.3081 C   0  0  0  0  0  0  0  0  0  0  0  0
    7.4297    7.5873   24.8962 C   0  0  0  0  0  0  0  0  0  0  0  0
    8.1566   10.0536   16.0516 O   0  0  0  0  0  0  0  0  0  0  0  0
   12.4989    6.2074   20.1776 C   0  0  0  0  0  0  0  0  0  0  0  0
    6.9192    9.1053   20.9073 O   0  0  0  0  0  0  0  0  0  0  0  0
   14.3979    6.0729   18.7784 C   0  0  0  0  0  0  0  0  0  0  0  0
    8.6811    9.5354   16.9998 C   0  0  0  0  0  0  0  0  0  0  0  0
    9.2512    4.2713   13.7653 O   0  0  0  0  0  0  0  0  0  0  0  0
    9.6495    8.6317   16.8332 N   0  0  0  0  0  0  0  0  0  0  0  0
    6.2934    8.6988   23.1988 O   0  0  0  0  0  0  0  0  0  0  0  0
    7.9806    8.6543   20.5437 C   0  0  0  0  0  0  0  0  0  0  0  0
   13.7270    5.7144   19.8610 O   0  0  0  0  0  0  0  0  0  0  0  0
    8.3351    5.5235   15.4478 C   0  0  0  0  0  0  0  0  0  0  0  0
    8.7700    7.8434   21.3915 C   0  0  0  0  0  0  0  0  0  0  0  0
   11.7856    6.8851   19.2401 C   0  0  0  0  0  0  0  0  0  0  0  0
   10.5281    7.4276   19.5649 C   0  0  0  0  0  0  0  0  0  0  0  0
   10.0256    7.2907   20.8484 C   0  0  0  0  0  0  0  0  0  0  0  0
    9.3113    5.3049   14.4911 C   0  0  0  0  0  0  0  0  0  0  0  0
    9.4607    7.5646   16.0139 C   0  0  0  0  0  0  0  0  0  0  0  0
   10.4192    7.3157   15.0955 C   0  0  0  0  0  0  0  0  0  0  0  0
   10.2489    6.4227   23.0218 N   0  0  0  0  0  0  0  0  0  0  0  0
    7.2472    8.0746   23.5050 C   0  0  0  0  0  0  0  0  0  0  0  0
    9.2051    6.9101   23.4604 C   0  0  0  0  0  0  0  0  0  0  0  0
   11.9646    6.0299   21.4251 C   0  0  0  0  0  0  0  0  0  0  0  0
  1  5  1  0
  1 13  1  0
  2 20  2  0
  2 28  1  0
  2 29  1  0
  3 19  4  0
  3 25  4  0
  4 23  4  0
  4 27  1  0
  4 30  4  0
  5 17  1  0
  6  8  1  0
  6 29  1  0
  7 24  4  0
  7 26  4  0
  8 28  1  0
  9 13  2  0
 10 18  1  0
 10 21  4  0
 10 30  4  0
 11 17  2  0
 12 18  1  0
 13 15  1  0
 14 24  1  0
 15 25  1  0
 16 28  2  0
 17 20  1  0
 19 24  4  0
 20 23  1  0
 21 22  4  0
 22 23  4  0
 25 26  4  0
 27 29  2  0
M  END
$$$$

 Created by Python create_sdf_string function

 30 33  0  0  0  0  0  0  0  0999 V2000
    8.3036    9.8571   18.4133 C   0  0  0  0  0  0  0  0  0  0  0  0
    8.3694    7.6612   22.6703 C   0  0  0  0  0  0  0  0  0  0  0  0
    8.4143    6.6863   16.2273 C   0  0  0  0  0  0  0  0  0  0  0  0
   10.7581    6.5674   21.7636 C   0  0  0  0  0  0  0  0  0  0  0  0
    8.4452    8.7960   19.2958 O   0  0  0  0  0  0  0  0  0  0  0  0
    8.7122    6.7842   24.8569 C   0  0  0  0  0  0  0  0  0  0  0  0
   10.3400    6.1726   14.3081 C   0  0  0  0  0  0  0  0  0  0  0  0
    7.4297    7.5873   24.8962 C   0  0  0  0  0  0  0  0  0  0  0  0
    8.1566   10.0536   16.0516 O   0  0  0  0  0  0  0  0  0  0  0  0
   12.4989    6.2074   20.1776 C   0  0  0  0  0  0  0  0  0  0  0  0
    6.9192    9.1053   20.9073 O   0  0  0  0  0  0  0  0  0  0  0  0
   14.3979    6.0729   18.7784 C   0  0  0  0  0  0  0  0  0  0  0  0
    8.6811    9.5354   16.9998 C   0  0  0  0  0  0  0  0  0  0  0  0
    9.2512    4.2713   13.7653 O   0  0  0  0  0  0  0  0  0  0  0  0
    9.6495    8.6317   16.8332 N   0  0  0  0  0  0  0  0  0  0  0  0
    6.2934    8.6988   23.1988 O   0  0  0  0  0  0  0  0  0  0  0  0
    7.9806    8.6543   20.5437 C   0  0  0  0  0  0  0  0  0  0  0  0
   13.7270    5.7144   19.8610 O   0  0  0  0  0  0  0  0  0  0  0  0
    8.3351    5.5235   15.4478 C   0  0  0  0  0  0  0  0  0  0  0  0
    8.7700    7.8434   21.3915 C   0  0  0  0  0  0  0  0  0  0  0  0
   11.7856    6.8851   19.2401 C   0  0  0  0  0  0  0  0  0  0  0  0
   10.5281    7.4276   19.5649 C   0  0  0  0  0  0  0  0  0  0  0  0
   10.0256    7.2907   20.8484 C   0  0  0  0  0  0  0  0  0  0  0  0
    9.3113    5.3049   14.4911 C   0  0  0  0  0  0  0  0  0  0  0  0
    9.4607    7.5646   16.0139 C   0  0  0  0  0  0  0  0  0  0  0  0
   10.4192    7.3157   15.0955 C   0  0  0  0  0  0  0  0  0  0  0  0
   10.2489    6.4227   23.0218 N   0  0  0  0  0  0  0  0  0  0  0  0
    7.2472    8.0746   23.5050 C   0  0  0  0  0  0  0  0  0  0  0  0
    9.2051    6.9101   23.4604 C   0  0  0  0  0  0  0  0  0  0  0  0
   11.9646    6.0299   21.4251 C   0  0  0  0  0  0  0  0  0  0  0  0
  1  5  1  0
  1 13  1  0
  2 20  2  0
  2 28  1  0
  2 29  1  0
  3 19  4  0
  3 25  4  0
  4 23  4  0
  4 27  1  0
  4 30  4  0
  5 17  1  0
  6  8  1  0
  6 29  1  0
  7 24  4  0
  7 26  4  0
  8 28  1  0
  9 13  2  0
 10 18  1  0
 10 21  4  0
 10 30  4  0
 11 17  2  0
 12 18  1  0
 13 15  1  0
 14 24  1  0
 15 25  1  0
 16 28  2  0
 17 20  1  0
 19 24  4  0
 20 23  1  0
 21 22  4  0
 22 23  4  0
 25 26  4  0
 27 29  2  0
M  END
$$$$

 Created by Python create_sdf_string function

 30 33  0  0  0  0  0  0  0  0999 V2000
    8.3036    9.8571   18.4133 C   0  0  0  0  0  0  0  0  0  0  0  0
    8.3694    7.6612   22.6703 C   0  0  0  0  0  0  0  0  0  0  0  0
    8.4143    6.6863   16.2273 C   0  0  0  0  0  0  0  0  0  0  0  0
   10.7581    6.5674   21.7636 C   0  0  0  0  0  0  0  0  0  0  0  0
    8.4452    8.7960   19.2958 O   0  0  0  0  0  0  0  0  0  0  0  0
    8.7122    6.7842   24.8569 C   0  0  0  0  0  0  0  0  0  0  0  0
   10.3400    6.1726   14.3081 C   0  0  0  0  0  0  0  0  0  0  0  0
    7.4297    7.5873   24.8962 C   0  0  0  0  0  0  0  0  0  0  0  0
    8.1566   10.0536   16.0516 O   0  0  0  0  0  0  0  0  0  0  0  0
   12.4989    6.2074   20.1776 C   0  0  0  0  0  0  0  0  0  0  0  0
    6.9192    9.1053   20.9073 O   0  0  0  0  0  0  0  0  0  0  0  0
   14.3979    6.0729   18.7784 C   0  0  0  0  0  0  0  0  0  0  0  0
    8.6811    9.5354   16.9998 C   0  0  0  0  0  0  0  0  0  0  0  0
    9.2512    4.2713   13.7653 O   0  0  0  0  0  0  0  0  0  0  0  0
    9.6495    8.6317   16.8332 N   0  0  0  0  0  0  0  0  0  0  0  0
    6.2934    8.6988   23.1988 O   0  0  0  0  0  0  0  0  0  0  0  0
    7.9806    8.6543   20.5437 C   0  0  0  0  0  0  0  0  0  0  0  0
   13.7270    5.7144   19.8610 O   0  0  0  0  0  0  0  0  0  0  0  0
    8.3351    5.5235   15.4478 C   0  0  0  0  0  0  0  0  0  0  0  0
    8.7700    7.8434   21.3915 C   0  0  0  0  0  0  0  0  0  0  0  0
   11.7856    6.8851   19.2401 C   0  0  0  0  0  0  0  0  0  0  0  0
   10.5281    7.4276   19.5649 C   0  0  0  0  0  0  0  0  0  0  0  0
   10.0256    7.2907   20.8484 C   0  0  0  0  0  0  0  0  0  0  0  0
    9.3113    5.3049   14.4911 C   0  0  0  0  0  0  0  0  0  0  0  0
    9.4607    7.5646   16.0139 C   0  0  0  0  0  0  0  0  0  0  0  0
   10.4192    7.3157   15.0955 C   0  0  0  0  0  0  0  0  0  0  0  0
   10.2489    6.4227   23.0218 N   0  0  0  0  0  0  0  0  0  0  0  0
    7.2472    8.0746   23.5050 C   0  0  0  0  0  0  0  0  0  0  0  0
    9.2051    6.9101   23.4604 C   0  0  0  0  0  0  0  0  0  0  0  0
   11.9646    6.0299   21.4251 C   0  0  0  0  0  0  0  0  0  0  0  0
  1  5  1  0
  1 13  1  0
  2 20  2  0
  2 28  1  0
  2 29  1  0
  3 19  4  0
  3 25  4  0
  4 23  4  0
  4 27  1  0
  4 30  4  0
  5 17  1  0
  6  8  1  0
  6 29  1  0
  7 24  4  0
  7 26  4  0
  8 28  1  0
  9 13  2  0
 10 18  1  0
 10 21  4  0
 10 30  4  0
 11 17  2  0
 12 18  1  0
 13 15  1  0
 14 24  1  0
 15 25  1  0
 16 28  2  0
 17 20  1  0
 19 24  4  0
 20 23  1  0
 21 22  4  0
 22 23  4  0
 25 26  4  0
 27 29  2  0
M  END
$$$$

 Created by Python create_sdf_string function

 30 33  0  0  0  0  0  0  0  0999 V2000
    8.3036    9.8571   18.4133 C   0  0  0  0  0  0  0  0  0  0  0  0
    8.3694    7.6612   22.6703 C   0  0  0  0  0  0  0  0  0  0  0  0
    8.4143    6.6863   16.2273 C   0  0  0  0  0  0  0  0  0  0  0  0
   10.7581    6.5674   21.7636 C   0  0  0  0  0  0  0  0  0  0  0  0
    8.4452    8.7960   19.2958 O   0  0  0  0  0  0  0  0  0  0  0  0
    8.7122    6.7842   24.8569 C   0  0  0  0  0  0  0  0  0  0  0  0
   10.3400    6.1726   14.3081 C   0  0  0  0  0  0  0  0  0  0  0  0
    7.4297    7.5873   24.8962 C   0  0  0  0  0  0  0  0  0  0  0  0
    8.1566   10.0536   16.0516 O   0  0  0  0  0  0  0  0  0  0  0  0
   12.4989    6.2074   20.1776 C   0  0  0  0  0  0  0  0  0  0  0  0
    6.9192    9.1053   20.9073 O   0  0  0  0  0  0  0  0  0  0  0  0
   14.3979    6.0729   18.7784 C   0  0  0  0  0  0  0  0  0  0  0  0
    8.6811    9.5354   16.9998 C   0  0  0  0  0  0  0  0  0  0  0  0
    9.2512    4.2713   13.7653 O   0  0  0  0  0  0  0  0  0  0  0  0
    9.6495    8.6317   16.8332 N   0  0  0  0  0  0  0  0  0  0  0  0
    6.2934    8.6988   23.1988 O   0  0  0  0  0  0  0  0  0  0  0  0
    7.9806    8.6543   20.5437 C   0  0  0  0  0  0  0  0  0  0  0  0
   13.7270    5.7144   19.8610 O   0  0  0  0  0  0  0  0  0  0  0  0
    8.3351    5.5235   15.4478 C   0  0  0  0  0  0  0  0  0  0  0  0
    8.7700    7.8434   21.3915 C   0  0  0  0  0  0  0  0  0  0  0  0
   11.7856    6.8851   19.2401 C   0  0  0  0  0  0  0  0  0  0  0  0
   10.5281    7.4276   19.5649 C   0  0  0  0  0  0  0  0  0  0  0  0
   10.0256    7.2907   20.8484 C   0  0  0  0  0  0  0  0  0  0  0  0
    9.3113    5.3049   14.4911 C   0  0  0  0  0  0  0  0  0  0  0  0
    9.4607    7.5646   16.0139 C   0  0  0  0  0  0  0  0  0  0  0  0
   10.4192    7.3157   15.0955 C   0  0  0  0  0  0  0  0  0  0  0  0
   10.2489    6.4227   23.0218 N   0  0  0  0  0  0  0  0  0  0  0  0
    7.2472    8.0746   23.5050 C   0  0  0  0  0  0  0  0  0  0  0  0
    9.2051    6.9101   23.4604 C   0  0  0  0  0  0  0  0  0  0  0  0
   11.9646    6.0299   21.4251 C   0  0  0  0  0  0  0  0  0  0  0  0
  1  5  1  0
  1 13  1  0
  2 20  2  0
  2 28  1  0
  2 29  1  0
  3 19  4  0
  3 25  4  0
  4 23  4  0
  4 27  1  0
  4 30  4  0
  5 17  1  0
  6  8  1  0
  6 29  1  0
  7 24  4  0
  7 26  4  0
  8 28  1  0
  9 13  2  0
 10 18  1  0
 10 21  4  0
 10 30  4  0
 11 17  2  0
 12 18  1  0
 13 15  1  0
 14 24  1  0
 15 25  1  0
 16 28  2  0
 17 20  1  0
 19 24  4  0
 20 23  1  0
 21 22  4  0
 22 23  4  0
 25 26  4  0
 27 29  2  0
M  END
$$$$

 Created by Python create_sdf_string function

 30 33  0  0  0  0  0  0  0  0999 V2000
    8.3036    9.8571   18.4133 C   0  0  0  0  0  0  0  0  0  0  0  0
    8.3694    7.6612   22.6703 C   0  0  0  0  0  0  0  0  0  0  0  0
    8.4143    6.6863   16.2273 C   0  0  0  0  0  0  0  0  0  0  0  0
   10.7581    6.5674   21.7636 C   0  0  0  0  0  0  0  0  0  0  0  0
    8.4452    8.7960   19.2958 O   0  0  0  0  0  0  0  0  0  0  0  0
    8.7122    6.7842   24.8569 C   0  0  0  0  0  0  0  0  0  0  0  0
   10.3400    6.1726   14.3081 C   0  0  0  0  0  0  0  0  0  0  0  0
    7.4297    7.5873   24.8962 C   0  0  0  0  0  0  0  0  0  0  0  0
    8.1566   10.0536   16.0516 O   0  0  0  0  0  0  0  0  0  0  0  0
   12.4989    6.2074   20.1776 C   0  0  0  0  0  0  0  0  0  0  0  0
    6.9192    9.1053   20.9073 O   0  0  0  0  0  0  0  0  0  0  0  0
   14.3979    6.0729   18.7784 C   0  0  0  0  0  0  0  0  0  0  0  0
    8.6811    9.5354   16.9998 C   0  0  0  0  0  0  0  0  0  0  0  0
    9.2512    4.2713   13.7653 O   0  0  0  0  0  0  0  0  0  0  0  0
    9.6495    8.6317   16.8332 N   0  0  0  0  0  0  0  0  0  0  0  0
    6.2934    8.6988   23.1988 O   0  0  0  0  0  0  0  0  0  0  0  0
    7.9806    8.6543   20.5437 C   0  0  0  0  0  0  0  0  0  0  0  0
   13.7270    5.7144   19.8610 O   0  0  0  0  0  0  0  0  0  0  0  0
    8.3351    5.5235   15.4478 C   0  0  0  0  0  0  0  0  0  0  0  0
    8.7700    7.8434   21.3915 C   0  0  0  0  0  0  0  0  0  0  0  0
   11.7856    6.8851   19.2401 C   0  0  0  0  0  0  0  0  0  0  0  0
   10.5281    7.4276   19.5649 C   0  0  0  0  0  0  0  0  0  0  0  0
   10.0256    7.2907   20.8484 C   0  0  0  0  0  0  0  0  0  0  0  0
    9.3113    5.3049   14.4911 C   0  0  0  0  0  0  0  0  0  0  0  0
    9.4607    7.5646   16.0139 C   0  0  0  0  0  0  0  0  0  0  0  0
   10.4192    7.3157   15.0955 C   0  0  0  0  0  0  0  0  0  0  0  0
   10.2489    6.4227   23.0218 N   0  0  0  0  0  0  0  0  0  0  0  0
    7.2472    8.0746   23.5050 C   0  0  0  0  0  0  0  0  0  0  0  0
    9.2051    6.9101   23.4604 C   0  0  0  0  0  0  0  0  0  0  0  0
   11.9646    6.0299   21.4251 C   0  0  0  0  0  0  0  0  0  0  0  0
  1  5  1  0
  1 13  1  0
  2 20  2  0
  2 28  1  0
  2 29  1  0
  3 19  4  0
  3 25  4  0
  4 23  4  0
  4 27  1  0
  4 30  4  0
  5 17  1  0
  6  8  1  0
  6 29  1  0
  7 24  4  0
  7 26  4  0
  8 28  1  0
  9 13  2  0
 10 18  1  0
 10 21  4  0
 10 30  4  0
 11 17  2  0
 12 18  1  0
 13 15  1  0
 14 24  1  0
 15 25  1  0
 16 28  2  0
 17 20  1  0
 19 24  4  0
 20 23  1  0
 21 22  4  0
 22 23  4  0
 25 26  4  0
 27 29  2  0
M  END
$$$$

 Created by Python create_sdf_string function

 30 33  0  0  0  0  0  0  0  0999 V2000
    8.3036    9.8571   18.4133 C   0  0  0  0  0  0  0  0  0  0  0  0
    8.3694    7.6612   22.6703 C   0  0  0  0  0  0  0  0  0  0  0  0
    8.4143    6.6863   16.2273 C   0  0  0  0  0  0  0  0  0  0  0  0
   10.7581    6.5674   21.7636 C   0  0  0  0  0  0  0  0  0  0  0  0
    8.4452    8.7960   19.2958 O   0  0  0  0  0  0  0  0  0  0  0  0
    8.7122    6.7842   24.8569 C   0  0  0  0  0  0  0  0  0  0  0  0
   10.3400    6.1726   14.3081 C   0  0  0  0  0  0  0  0  0  0  0  0
    7.4297    7.5873   24.8962 C   0  0  0  0  0  0  0  0  0  0  0  0
    8.1566   10.0536   16.0516 O   0  0  0  0  0  0  0  0  0  0  0  0
   12.4989    6.2074   20.1776 C   0  0  0  0  0  0  0  0  0  0  0  0
    6.9192    9.1053   20.9073 O   0  0  0  0  0  0  0  0  0  0  0  0
   14.3979    6.0729   18.7784 C   0  0  0  0  0  0  0  0  0  0  0  0
    8.6811    9.5354   16.9998 C   0  0  0  0  0  0  0  0  0  0  0  0
    9.2512    4.2713   13.7653 O   0  0  0  0  0  0  0  0  0  0  0  0
    9.6495    8.6317   16.8332 N   0  0  0  0  0  0  0  0  0  0  0  0
    6.2934    8.6988   23.1988 O   0  0  0  0  0  0  0  0  0  0  0  0
    7.9806    8.6543   20.5437 C   0  0  0  0  0  0  0  0  0  0  0  0
   13.7270    5.7144   19.8610 O   0  0  0  0  0  0  0  0  0  0  0  0
    8.3351    5.5235   15.4478 C   0  0  0  0  0  0  0  0  0  0  0  0
    8.7700    7.8434   21.3915 C   0  0  0  0  0  0  0  0  0  0  0  0
   11.7856    6.8851   19.2401 C   0  0  0  0  0  0  0  0  0  0  0  0
   10.5281    7.4276   19.5649 C   0  0  0  0  0  0  0  0  0  0  0  0
   10.0256    7.2907   20.8484 C   0  0  0  0  0  0  0  0  0  0  0  0
    9.3113    5.3049   14.4911 C   0  0  0  0  0  0  0  0  0  0  0  0
    9.4607    7.5646   16.0139 C   0  0  0  0  0  0  0  0  0  0  0  0
   10.4192    7.3157   15.0955 C   0  0  0  0  0  0  0  0  0  0  0  0
   10.2489    6.4227   23.0218 N   0  0  0  0  0  0  0  0  0  0  0  0
    7.2472    8.0746   23.5050 C   0  0  0  0  0  0  0  0  0  0  0  0
    9.2051    6.9101   23.4604 C   0  0  0  0  0  0  0  0  0  0  0  0
   11.9646    6.0299   21.4251 C   0  0  0  0  0  0  0  0  0  0  0  0
  1  5  1  0
  1 13  1  0
  2 20  2  0
  2 28  1  0
  2 29  1  0
  3 19  4  0
  3 25  4  0
  4 23  4  0
  4 27  1  0
  4 30  4  0
  5 17  1  0
  6  8  1  0
  6 29  1  0
  7 24  4  0
  7 26  4  0
  8 28  1  0
  9 13  2  0
 10 18  1  0
 10 21  4  0
 10 30  4  0
 11 17  2  0
 12 18  1  0
 13 15  1  0
 14 24  1  0
 15 25  1  0
 16 28  2  0
 17 20  1  0
 19 24  4  0
 20 23  1  0
 21 22  4  0
 22 23  4  0
 25 26  4  0
 27 29  2  0
M  END
$$$$

 Created by Python create_sdf_string function

 30 33  0  0  0  0  0  0  0  0999 V2000
    8.3036    9.8571   18.4133 C   0  0  0  0  0  0  0  0  0  0  0  0
    8.3694    7.6612   22.6703 C   0  0  0  0  0  0  0  0  0  0  0  0
    8.4143    6.6863   16.2273 C   0  0  0  0  0  0  0  0  0  0  0  0
   10.7581    6.5674   21.7636 C   0  0  0  0  0  0  0  0  0  0  0  0
    8.4452    8.7960   19.2958 O   0  0  0  0  0  0  0  0  0  0  0  0
    8.7122    6.7842   24.8569 C   0  0  0  0  0  0  0  0  0  0  0  0
   10.3400    6.1726   14.3081 C   0  0  0  0  0  0  0  0  0  0  0  0
    7.4297    7.5873   24.8962 C   0  0  0  0  0  0  0  0  0  0  0  0
    8.1566   10.0536   16.0516 O   0  0  0  0  0  0  0  0  0  0  0  0
   12.4989    6.2074   20.1776 C   0  0  0  0  0  0  0  0  0  0  0  0
    6.9192    9.1053   20.9073 O   0  0  0  0  0  0  0  0  0  0  0  0
   14.3979    6.0729   18.7784 C   0  0  0  0  0  0  0  0  0  0  0  0
    8.6811    9.5354   16.9998 C   0  0  0  0  0  0  0  0  0  0  0  0
    9.2512    4.2713   13.7653 O   0  0  0  0  0  0  0  0  0  0  0  0
    9.6495    8.6317   16.8332 N   0  0  0  0  0  0  0  0  0  0  0  0
    6.2934    8.6988   23.1988 O   0  0  0  0  0  0  0  0  0  0  0  0
    7.9806    8.6543   20.5437 C   0  0  0  0  0  0  0  0  0  0  0  0
   13.7270    5.7144   19.8610 O   0  0  0  0  0  0  0  0  0  0  0  0
    8.3351    5.5235   15.4478 C   0  0  0  0  0  0  0  0  0  0  0  0
    8.7700    7.8434   21.3915 C   0  0  0  0  0  0  0  0  0  0  0  0
   11.7856    6.8851   19.2401 C   0  0  0  0  0  0  0  0  0  0  0  0
   10.5281    7.4276   19.5649 C   0  0  0  0  0  0  0  0  0  0  0  0
   10.0256    7.2907   20.8484 C   0  0  0  0  0  0  0  0  0  0  0  0
    9.3113    5.3049   14.4911 C   0  0  0  0  0  0  0  0  0  0  0  0
    9.4607    7.5646   16.0139 C   0  0  0  0  0  0  0  0  0  0  0  0
   10.4192    7.3157   15.0955 C   0  0  0  0  0  0  0  0  0  0  0  0
   10.2489    6.4227   23.0218 N   0  0  0  0  0  0  0  0  0  0  0  0
    7.2472    8.0746   23.5050 C   0  0  0  0  0  0  0  0  0  0  0  0
    9.2051    6.9101   23.4604 C   0  0  0  0  0  0  0  0  0  0  0  0
   11.9646    6.0299   21.4251 C   0  0  0  0  0  0  0  0  0  0  0  0
  1  5  1  0
  1 13  1  0
  2 20  2  0
  2 28  1  0
  2 29  1  0
  3 19  4  0
  3 25  4  0
  4 23  4  0
  4 27  1  0
  4 30  4  0
  5 17  1  0
  6  8  1  0
  6 29  1  0
  7 24  4  0
  7 26  4  0
  8 28  1  0
  9 13  2  0
 10 18  1  0
 10 21  4  0
 10 30  4  0
 11 17  2  0
 12 18  1  0
 13 15  1  0
 14 24  1  0
 15 25  1  0
 16 28  2  0
 17 20  1  0
 19 24  4  0
 20 23  1  0
 21 22  4  0
 22 23  4  0
 25 26  4  0
 27 29  2  0
M  END
$$$$

 Created by Python create_sdf_string function

 30 33  0  0  0  0  0  0  0  0999 V2000
    8.3036    9.8571   18.4133 C   0  0  0  0  0  0  0  0  0  0  0  0
    8.3694    7.6612   22.6703 C   0  0  0  0  0  0  0  0  0  0  0  0
    8.4143    6.6863   16.2273 C   0  0  0  0  0  0  0  0  0  0  0  0
   10.7581    6.5674   21.7636 C   0  0  0  0  0  0  0  0  0  0  0  0
    8.4452    8.7960   19.2958 O   0  0  0  0  0  0  0  0  0  0  0  0
    8.7122    6.7842   24.8569 C   0  0  0  0  0  0  0  0  0  0  0  0
   10.3400    6.1726   14.3081 C   0  0  0  0  0  0  0  0  0  0  0  0
    7.4297    7.5873   24.8962 C   0  0  0  0  0  0  0  0  0  0  0  0
    8.1566   10.0536   16.0516 O   0  0  0  0  0  0  0  0  0  0  0  0
   12.4989    6.2074   20.1776 C   0  0  0  0  0  0  0  0  0  0  0  0
    6.9192    9.1053   20.9073 O   0  0  0  0  0  0  0  0  0  0  0  0
   14.3979    6.0729   18.7784 C   0  0  0  0  0  0  0  0  0  0  0  0
    8.6811    9.5354   16.9998 C   0  0  0  0  0  0  0  0  0  0  0  0
    9.2512    4.2713   13.7653 O   0  0  0  0  0  0  0  0  0  0  0  0
    9.6495    8.6317   16.8332 N   0  0  0  0  0  0  0  0  0  0  0  0
    6.2934    8.6988   23.1988 O   0  0  0  0  0  0  0  0  0  0  0  0
    7.9806    8.6543   20.5437 C   0  0  0  0  0  0  0  0  0  0  0  0
   13.7270    5.7144   19.8610 O   0  0  0  0  0  0  0  0  0  0  0  0
    8.3351    5.5235   15.4478 C   0  0  0  0  0  0  0  0  0  0  0  0
    8.7700    7.8434   21.3915 C   0  0  0  0  0  0  0  0  0  0  0  0
   11.7856    6.8851   19.2401 C   0  0  0  0  0  0  0  0  0  0  0  0
   10.5281    7.4276   19.5649 C   0  0  0  0  0  0  0  0  0  0  0  0
   10.0256    7.2907   20.8484 C   0  0  0  0  0  0  0  0  0  0  0  0
    9.3113    5.3049   14.4911 C   0  0  0  0  0  0  0  0  0  0  0  0
    9.4607    7.5646   16.0139 C   0  0  0  0  0  0  0  0  0  0  0  0
   10.4192    7.3157   15.0955 C   0  0  0  0  0  0  0  0  0  0  0  0
   10.2489    6.4227   23.0218 N   0  0  0  0  0  0  0  0  0  0  0  0
    7.2472    8.0746   23.5050 C   0  0  0  0  0  0  0  0  0  0  0  0
    9.2051    6.9101   23.4604 C   0  0  0  0  0  0  0  0  0  0  0  0
   11.9646    6.0299   21.4251 C   0  0  0  0  0  0  0  0  0  0  0  0
  1  5  1  0
  1 13  1  0
  2 20  2  0
  2 28  1  0
  2 29  1  0
  3 19  4  0
  3 25  4  0
  4 23  4  0
  4 27  1  0
  4 30  4  0
  5 17  1  0
  6  8  1  0
  6 29  1  0
  7 24  4  0
  7 26  4  0
  8 28  1  0
  9 13  2  0
 10 18  1  0
 10 21  4  0
 10 30  4  0
 11 17  2  0
 12 18  1  0
 13 15  1  0
 14 24  1  0
 15 25  1  0
 16 28  2  0
 17 20  1  0
 19 24  4  0
 20 23  1  0
 21 22  4  0
 22 23  4  0
 25 26  4  0
 27 29  2  0
M  END
$$$$

 Created by Python create_sdf_string function

 30 33  0  0  0  0  0  0  0  0999 V2000
    8.3036    9.8571   18.4133 C   0  0  0  0  0  0  0  0  0  0  0  0
    8.3694    7.6612   22.6703 C   0  0  0  0  0  0  0  0  0  0  0  0
    8.4143    6.6863   16.2273 C   0  0  0  0  0  0  0  0  0  0  0  0
   10.7581    6.5674   21.7636 C   0  0  0  0  0  0  0  0  0  0  0  0
    8.4452    8.7960   19.2958 O   0  0  0  0  0  0  0  0  0  0  0  0
    8.7122    6.7842   24.8569 C   0  0  0  0  0  0  0  0  0  0  0  0
   10.3400    6.1726   14.3081 C   0  0  0  0  0  0  0  0  0  0  0  0
    7.4297    7.5873   24.8962 C   0  0  0  0  0  0  0  0  0  0  0  0
    8.1566   10.0536   16.0516 O   0  0  0  0  0  0  0  0  0  0  0  0
   12.4989    6.2074   20.1776 C   0  0  0  0  0  0  0  0  0  0  0  0
    6.9192    9.1053   20.9073 O   0  0  0  0  0  0  0  0  0  0  0  0
   14.3979    6.0729   18.7784 C   0  0  0  0  0  0  0  0  0  0  0  0
    8.6811    9.5354   16.9998 C   0  0  0  0  0  0  0  0  0  0  0  0
    9.2512    4.2713   13.7653 O   0  0  0  0  0  0  0  0  0  0  0  0
    9.6495    8.6317   16.8332 N   0  0  0  0  0  0  0  0  0  0  0  0
    6.2934    8.6988   23.1988 O   0  0  0  0  0  0  0  0  0  0  0  0
    7.9806    8.6543   20.5437 C   0  0  0  0  0  0  0  0  0  0  0  0
   13.7270    5.7144   19.8610 O   0  0  0  0  0  0  0  0  0  0  0  0
    8.3351    5.5235   15.4478 C   0  0  0  0  0  0  0  0  0  0  0  0
    8.7700    7.8434   21.3915 C   0  0  0  0  0  0  0  0  0  0  0  0
   11.7856    6.8851   19.2401 C   0  0  0  0  0  0  0  0  0  0  0  0
   10.5281    7.4276   19.5649 C   0  0  0  0  0  0  0  0  0  0  0  0
   10.0256    7.2907   20.8484 C   0  0  0  0  0  0  0  0  0  0  0  0
    9.3113    5.3049   14.4911 C   0  0  0  0  0  0  0  0  0  0  0  0
    9.4607    7.5646   16.0139 C   0  0  0  0  0  0  0  0  0  0  0  0
   10.4192    7.3157   15.0955 C   0  0  0  0  0  0  0  0  0  0  0  0
   10.2489    6.4227   23.0218 N   0  0  0  0  0  0  0  0  0  0  0  0
    7.2472    8.0746   23.5050 C   0  0  0  0  0  0  0  0  0  0  0  0
    9.2051    6.9101   23.4604 C   0  0  0  0  0  0  0  0  0  0  0  0
   11.9646    6.0299   21.4251 C   0  0  0  0  0  0  0  0  0  0  0  0
  1  5  1  0
  1 13  1  0
  2 20  2  0
  2 28  1  0
  2 29  1  0
  3 19  4  0
  3 25  4  0
  4 23  4  0
  4 27  1  0
  4 30  4  0
  5 17  1  0
  6  8  1  0
  6 29  1  0
  7 24  4  0
  7 26  4  0
  8 28  1  0
  9 13  2  0
 10 18  1  0
 10 21  4  0
 10 30  4  0
 11 17  2  0
 12 18  1  0
 13 15  1  0
 14 24  1  0
 15 25  1  0
 16 28  2  0
 17 20  1  0
 19 24  4  0
 20 23  1  0
 21 22  4  0
 22 23  4  0
 25 26  4  0
 27 29  2  0
M  END
$$$$

 Created by Python create_sdf_string function

 30 33  0  0  0  0  0  0  0  0999 V2000
    8.3036    9.8571   18.4133 C   0  0  0  0  0  0  0  0  0  0  0  0
    8.3694    7.6612   22.6703 C   0  0  0  0  0  0  0  0  0  0  0  0
    8.4143    6.6863   16.2273 C   0  0  0  0  0  0  0  0  0  0  0  0
   10.7581    6.5674   21.7636 C   0  0  0  0  0  0  0  0  0  0  0  0
    8.4452    8.7960   19.2958 O   0  0  0  0  0  0  0  0  0  0  0  0
    8.7122    6.7842   24.8569 C   0  0  0  0  0  0  0  0  0  0  0  0
   10.3400    6.1726   14.3081 C   0  0  0  0  0  0  0  0  0  0  0  0
    7.4297    7.5873   24.8962 C   0  0  0  0  0  0  0  0  0  0  0  0
    8.1566   10.0536   16.0516 O   0  0  0  0  0  0  0  0  0  0  0  0
   12.4989    6.2074   20.1776 C   0  0  0  0  0  0  0  0  0  0  0  0
    6.9192    9.1053   20.9073 O   0  0  0  0  0  0  0  0  0  0  0  0
   14.3979    6.0729   18.7784 C   0  0  0  0  0  0  0  0  0  0  0  0
    8.6811    9.5354   16.9998 C   0  0  0  0  0  0  0  0  0  0  0  0
    9.2512    4.2713   13.7653 O   0  0  0  0  0  0  0  0  0  0  0  0
    9.6495    8.6317   16.8332 N   0  0  0  0  0  0  0  0  0  0  0  0
    6.2934    8.6988   23.1988 O   0  0  0  0  0  0  0  0  0  0  0  0
    7.9806    8.6543   20.5437 C   0  0  0  0  0  0  0  0  0  0  0  0
   13.7270    5.7144   19.8610 O   0  0  0  0  0  0  0  0  0  0  0  0
    8.3351    5.5235   15.4478 C   0  0  0  0  0  0  0  0  0  0  0  0
    8.7700    7.8434   21.3915 C   0  0  0  0  0  0  0  0  0  0  0  0
   11.7856    6.8851   19.2401 C   0  0  0  0  0  0  0  0  0  0  0  0
   10.5281    7.4276   19.5649 C   0  0  0  0  0  0  0  0  0  0  0  0
   10.0256    7.2907   20.8484 C   0  0  0  0  0  0  0  0  0  0  0  0
    9.3113    5.3049   14.4911 C   0  0  0  0  0  0  0  0  0  0  0  0
    9.4607    7.5646   16.0139 C   0  0  0  0  0  0  0  0  0  0  0  0
   10.4192    7.3157   15.0955 C   0  0  0  0  0  0  0  0  0  0  0  0
   10.2489    6.4227   23.0218 N   0  0  0  0  0  0  0  0  0  0  0  0
    7.2472    8.0746   23.5050 C   0  0  0  0  0  0  0  0  0  0  0  0
    9.2051    6.9101   23.4604 C   0  0  0  0  0  0  0  0  0  0  0  0
   11.9646    6.0299   21.4251 C   0  0  0  0  0  0  0  0  0  0  0  0
  1  5  1  0
  1 13  1  0
  2 20  2  0
  2 28  1  0
  2 29  1  0
  3 19  4  0
  3 25  4  0
  4 23  4  0
  4 27  1  0
  4 30  4  0
  5 17  1  0
  6  8  1  0
  6 29  1  0
  7 24  4  0
  7 26  4  0
  8 28  1  0
  9 13  2  0
 10 18  1  0
 10 21  4  0
 10 30  4  0
 11 17  2  0
 12 18  1  0
 13 15  1  0
 14 24  1  0
 15 25  1  0
 16 28  2  0
 17 20  1  0
 19 24  4  0
 20 23  1  0
 21 22  4  0
 22 23  4  0
 25 26  4  0
 27 29  2  0
M  END
$$$$

 Created by Python create_sdf_string function

 30 33  0  0  0  0  0  0  0  0999 V2000
    8.3036    9.8571   18.4133 C   0  0  0  0  0  0  0  0  0  0  0  0
    8.3694    7.6612   22.6703 C   0  0  0  0  0  0  0  0  0  0  0  0
    8.4143    6.6863   16.2273 C   0  0  0  0  0  0  0  0  0  0  0  0
   10.7581    6.5674   21.7636 C   0  0  0  0  0  0  0  0  0  0  0  0
    8.4452    8.7960   19.2958 O   0  0  0  0  0  0  0  0  0  0  0  0
    8.7122    6.7842   24.8569 C   0  0  0  0  0  0  0  0  0  0  0  0
   10.3400    6.1726   14.3081 C   0  0  0  0  0  0  0  0  0  0  0  0
    7.4297    7.5873   24.8962 C   0  0  0  0  0  0  0  0  0  0  0  0
    8.1566   10.0536   16.0516 O   0  0  0  0  0  0  0  0  0  0  0  0
   12.4989    6.2074   20.1776 C   0  0  0  0  0  0  0  0  0  0  0  0
    6.9192    9.1053   20.9073 O   0  0  0  0  0  0  0  0  0  0  0  0
   14.3979    6.0729   18.7784 C   0  0  0  0  0  0  0  0  0  0  0  0
    8.6811    9.5354   16.9998 C   0  0  0  0  0  0  0  0  0  0  0  0
    9.2512    4.2713   13.7653 O   0  0  0  0  0  0  0  0  0  0  0  0
    9.6495    8.6317   16.8332 N   0  0  0  0  0  0  0  0  0  0  0  0
    6.2934    8.6988   23.1988 O   0  0  0  0  0  0  0  0  0  0  0  0
    7.9806    8.6543   20.5437 C   0  0  0  0  0  0  0  0  0  0  0  0
   13.7270    5.7144   19.8610 O   0  0  0  0  0  0  0  0  0  0  0  0
    8.3351    5.5235   15.4478 C   0  0  0  0  0  0  0  0  0  0  0  0
    8.7700    7.8434   21.3915 C   0  0  0  0  0  0  0  0  0  0  0  0
   11.7856    6.8851   19.2401 C   0  0  0  0  0  0  0  0  0  0  0  0
   10.5281    7.4276   19.5649 C   0  0  0  0  0  0  0  0  0  0  0  0
   10.0256    7.2907   20.8484 C   0  0  0  0  0  0  0  0  0  0  0  0
    9.3113    5.3049   14.4911 C   0  0  0  0  0  0  0  0  0  0  0  0
    9.4607    7.5646   16.0139 C   0  0  0  0  0  0  0  0  0  0  0  0
   10.4192    7.3157   15.0955 C   0  0  0  0  0  0  0  0  0  0  0  0
   10.2489    6.4227   23.0218 N   0  0  0  0  0  0  0  0  0  0  0  0
    7.2472    8.0746   23.5050 C   0  0  0  0  0  0  0  0  0  0  0  0
    9.2051    6.9101   23.4604 C   0  0  0  0  0  0  0  0  0  0  0  0
   11.9646    6.0299   21.4251 C   0  0  0  0  0  0  0  0  0  0  0  0
  1  5  1  0
  1 13  1  0
  2 20  2  0
  2 28  1  0
  2 29  1  0
  3 19  4  0
  3 25  4  0
  4 23  4  0
  4 27  1  0
  4 30  4  0
  5 17  1  0
  6  8  1  0
  6 29  1  0
  7 24  4  0
  7 26  4  0
  8 28  1  0
  9 13  2  0
 10 18  1  0
 10 21  4  0
 10 30  4  0
 11 17  2  0
 12 18  1  0
 13 15  1  0
 14 24  1  0
 15 25  1  0
 16 28  2  0
 17 20  1  0
 19 24  4  0
 20 23  1  0
 21 22  4  0
 22 23  4  0
 25 26  4  0
 27 29  2  0
M  END
$$$$

 Created by Python create_sdf_string function

 30 33  0  0  0  0  0  0  0  0999 V2000
    8.3036    9.8571   18.4133 C   0  0  0  0  0  0  0  0  0  0  0  0
    8.3694    7.6612   22.6703 C   0  0  0  0  0  0  0  0  0  0  0  0
    8.4143    6.6863   16.2273 C   0  0  0  0  0  0  0  0  0  0  0  0
   10.7581    6.5674   21.7636 C   0  0  0  0  0  0  0  0  0  0  0  0
    8.4452    8.7960   19.2958 O   0  0  0  0  0  0  0  0  0  0  0  0
    8.7122    6.7842   24.8569 C   0  0  0  0  0  0  0  0  0  0  0  0
   10.3400    6.1726   14.3081 C   0  0  0  0  0  0  0  0  0  0  0  0
    7.4297    7.5873   24.8962 C   0  0  0  0  0  0  0  0  0  0  0  0
    8.1566   10.0536   16.0516 O   0  0  0  0  0  0  0  0  0  0  0  0
   12.4989    6.2074   20.1776 C   0  0  0  0  0  0  0  0  0  0  0  0
    6.9192    9.1053   20.9073 O   0  0  0  0  0  0  0  0  0  0  0  0
   14.3979    6.0729   18.7784 C   0  0  0  0  0  0  0  0  0  0  0  0
    8.6811    9.5354   16.9998 C   0  0  0  0  0  0  0  0  0  0  0  0
    9.2512    4.2713   13.7653 O   0  0  0  0  0  0  0  0  0  0  0  0
    9.6495    8.6317   16.8332 N   0  0  0  0  0  0  0  0  0  0  0  0
    6.2934    8.6988   23.1988 O   0  0  0  0  0  0  0  0  0  0  0  0
    7.9806    8.6543   20.5437 C   0  0  0  0  0  0  0  0  0  0  0  0
   13.7270    5.7144   19.8610 O   0  0  0  0  0  0  0  0  0  0  0  0
    8.3351    5.5235   15.4478 C   0  0  0  0  0  0  0  0  0  0  0  0
    8.7700    7.8434   21.3915 C   0  0  0  0  0  0  0  0  0  0  0  0
   11.7856    6.8851   19.2401 C   0  0  0  0  0  0  0  0  0  0  0  0
   10.5281    7.4276   19.5649 C   0  0  0  0  0  0  0  0  0  0  0  0
   10.0256    7.2907   20.8484 C   0  0  0  0  0  0  0  0  0  0  0  0
    9.3113    5.3049   14.4911 C   0  0  0  0  0  0  0  0  0  0  0  0
    9.4607    7.5646   16.0139 C   0  0  0  0  0  0  0  0  0  0  0  0
   10.4192    7.3157   15.0955 C   0  0  0  0  0  0  0  0  0  0  0  0
   10.2489    6.4227   23.0218 N   0  0  0  0  0  0  0  0  0  0  0  0
    7.2472    8.0746   23.5050 C   0  0  0  0  0  0  0  0  0  0  0  0
    9.2051    6.9101   23.4604 C   0  0  0  0  0  0  0  0  0  0  0  0
   11.9646    6.0299   21.4251 C   0  0  0  0  0  0  0  0  0  0  0  0
  1  5  1  0
  1 13  1  0
  2 20  2  0
  2 28  1  0
  2 29  1  0
  3 19  4  0
  3 25  4  0
  4 23  4  0
  4 27  1  0
  4 30  4  0
  5 17  1  0
  6  8  1  0
  6 29  1  0
  7 24  4  0
  7 26  4  0
  8 28  1  0
  9 13  2  0
 10 18  1  0
 10 21  4  0
 10 30  4  0
 11 17  2  0
 12 18  1  0
 13 15  1  0
 14 24  1  0
 15 25  1  0
 16 28  2  0
 17 20  1  0
 19 24  4  0
 20 23  1  0
 21 22  4  0
 22 23  4  0
 25 26  4  0
 27 29  2  0
M  END
$$$$

 Created by Python create_sdf_string function

 30 33  0  0  0  0  0  0  0  0999 V2000
    8.3036    9.8571   18.4133 C   0  0  0  0  0  0  0  0  0  0  0  0
    8.3694    7.6612   22.6703 C   0  0  0  0  0  0  0  0  0  0  0  0
    8.4143    6.6863   16.2273 C   0  0  0  0  0  0  0  0  0  0  0  0
   10.7581    6.5674   21.7636 C   0  0  0  0  0  0  0  0  0  0  0  0
    8.4452    8.7960   19.2958 O   0  0  0  0  0  0  0  0  0  0  0  0
    8.7122    6.7842   24.8569 C   0  0  0  0  0  0  0  0  0  0  0  0
   10.3400    6.1726   14.3081 C   0  0  0  0  0  0  0  0  0  0  0  0
    7.4297    7.5873   24.8962 C   0  0  0  0  0  0  0  0  0  0  0  0
    8.1566   10.0536   16.0516 O   0  0  0  0  0  0  0  0  0  0  0  0
   12.4989    6.2074   20.1776 C   0  0  0  0  0  0  0  0  0  0  0  0
    6.9192    9.1053   20.9073 O   0  0  0  0  0  0  0  0  0  0  0  0
   14.3979    6.0729   18.7784 C   0  0  0  0  0  0  0  0  0  0  0  0
    8.6811    9.5354   16.9998 C   0  0  0  0  0  0  0  0  0  0  0  0
    9.2512    4.2713   13.7653 O   0  0  0  0  0  0  0  0  0  0  0  0
    9.6495    8.6317   16.8332 N   0  0  0  0  0  0  0  0  0  0  0  0
    6.2934    8.6988   23.1988 O   0  0  0  0  0  0  0  0  0  0  0  0
    7.9806    8.6543   20.5437 C   0  0  0  0  0  0  0  0  0  0  0  0
   13.7270    5.7144   19.8610 O   0  0  0  0  0  0  0  0  0  0  0  0
    8.3351    5.5235   15.4478 C   0  0  0  0  0  0  0  0  0  0  0  0
    8.7700    7.8434   21.3915 C   0  0  0  0  0  0  0  0  0  0  0  0
   11.7856    6.8851   19.2401 C   0  0  0  0  0  0  0  0  0  0  0  0
   10.5281    7.4276   19.5649 C   0  0  0  0  0  0  0  0  0  0  0  0
   10.0256    7.2907   20.8484 C   0  0  0  0  0  0  0  0  0  0  0  0
    9.3113    5.3049   14.4911 C   0  0  0  0  0  0  0  0  0  0  0  0
    9.4607    7.5646   16.0139 C   0  0  0  0  0  0  0  0  0  0  0  0
   10.4192    7.3157   15.0955 C   0  0  0  0  0  0  0  0  0  0  0  0
   10.2489    6.4227   23.0218 N   0  0  0  0  0  0  0  0  0  0  0  0
    7.2472    8.0746   23.5050 C   0  0  0  0  0  0  0  0  0  0  0  0
    9.2051    6.9101   23.4604 C   0  0  0  0  0  0  0  0  0  0  0  0
   11.9646    6.0299   21.4251 C   0  0  0  0  0  0  0  0  0  0  0  0
  1  5  1  0
  1 13  1  0
  2 20  2  0
  2 28  1  0
  2 29  1  0
  3 19  4  0
  3 25  4  0
  4 23  4  0
  4 27  1  0
  4 30  4  0
  5 17  1  0
  6  8  1  0
  6 29  1  0
  7 24  4  0
  7 26  4  0
  8 28  1  0
  9 13  2  0
 10 18  1  0
 10 21  4  0
 10 30  4  0
 11 17  2  0
 12 18  1  0
 13 15  1  0
 14 24  1  0
 15 25  1  0
 16 28  2  0
 17 20  1  0
 19 24  4  0
 20 23  1  0
 21 22  4  0
 22 23  4  0
 25 26  4  0
 27 29  2  0
M  END
$$$$

 Created by Python create_sdf_string function

 30 33  0  0  0  0  0  0  0  0999 V2000
    8.3036    9.8571   18.4133 C   0  0  0  0  0  0  0  0  0  0  0  0
    8.3694    7.6612   22.6703 C   0  0  0  0  0  0  0  0  0  0  0  0
    8.4143    6.6863   16.2273 C   0  0  0  0  0  0  0  0  0  0  0  0
   10.7581    6.5674   21.7636 C   0  0  0  0  0  0  0  0  0  0  0  0
    8.4452    8.7960   19.2958 O   0  0  0  0  0  0  0  0  0  0  0  0
    8.7122    6.7842   24.8569 C   0  0  0  0  0  0  0  0  0  0  0  0
   10.3400    6.1726   14.3081 C   0  0  0  0  0  0  0  0  0  0  0  0
    7.4297    7.5873   24.8962 C   0  0  0  0  0  0  0  0  0  0  0  0
    8.1566   10.0536   16.0516 O   0  0  0  0  0  0  0  0  0  0  0  0
   12.4989    6.2074   20.1776 C   0  0  0  0  0  0  0  0  0  0  0  0
    6.9192    9.1053   20.9073 O   0  0  0  0  0  0  0  0  0  0  0  0
   14.3979    6.0729   18.7784 C   0  0  0  0  0  0  0  0  0  0  0  0
    8.6811    9.5354   16.9998 C   0  0  0  0  0  0  0  0  0  0  0  0
    9.2512    4.2713   13.7653 O   0  0  0  0  0  0  0  0  0  0  0  0
    9.6495    8.6317   16.8332 N   0  0  0  0  0  0  0  0  0  0  0  0
    6.2934    8.6988   23.1988 O   0  0  0  0  0  0  0  0  0  0  0  0
    7.9806    8.6543   20.5437 C   0  0  0  0  0  0  0  0  0  0  0  0
   13.7270    5.7144   19.8610 O   0  0  0  0  0  0  0  0  0  0  0  0
    8.3351    5.5235   15.4478 C   0  0  0  0  0  0  0  0  0  0  0  0
    8.7700    7.8434   21.3915 C   0  0  0  0  0  0  0  0  0  0  0  0
   11.7856    6.8851   19.2401 C   0  0  0  0  0  0  0  0  0  0  0  0
   10.5281    7.4276   19.5649 C   0  0  0  0  0  0  0  0  0  0  0  0
   10.0256    7.2907   20.8484 C   0  0  0  0  0  0  0  0  0  0  0  0
    9.3113    5.3049   14.4911 C   0  0  0  0  0  0  0  0  0  0  0  0
    9.4607    7.5646   16.0139 C   0  0  0  0  0  0  0  0  0  0  0  0
   10.4192    7.3157   15.0955 C   0  0  0  0  0  0  0  0  0  0  0  0
   10.2489    6.4227   23.0218 N   0  0  0  0  0  0  0  0  0  0  0  0
    7.2472    8.0746   23.5050 C   0  0  0  0  0  0  0  0  0  0  0  0
    9.2051    6.9101   23.4604 C   0  0  0  0  0  0  0  0  0  0  0  0
   11.9646    6.0299   21.4251 C   0  0  0  0  0  0  0  0  0  0  0  0
  1  5  1  0
  1 13  1  0
  2 20  2  0
  2 28  1  0
  2 29  1  0
  3 19  4  0
  3 25  4  0
  4 23  4  0
  4 27  1  0
  4 30  4  0
  5 17  1  0
  6  8  1  0
  6 29  1  0
  7 24  4  0
  7 26  4  0
  8 28  1  0
  9 13  2  0
 10 18  1  0
 10 21  4  0
 10 30  4  0
 11 17  2  0
 12 18  1  0
 13 15  1  0
 14 24  1  0
 15 25  1  0
 16 28  2  0
 17 20  1  0
 19 24  4  0
 20 23  1  0
 21 22  4  0
 22 23  4  0
 25 26  4  0
 27 29  2  0
M  END
$$$$

 Created by Python create_sdf_string function

 30 33  0  0  0  0  0  0  0  0999 V2000
    8.3036    9.8571   18.4133 C   0  0  0  0  0  0  0  0  0  0  0  0
    8.3694    7.6612   22.6703 C   0  0  0  0  0  0  0  0  0  0  0  0
    8.4143    6.6863   16.2273 C   0  0  0  0  0  0  0  0  0  0  0  0
   10.7581    6.5674   21.7636 C   0  0  0  0  0  0  0  0  0  0  0  0
    8.4452    8.7960   19.2958 O   0  0  0  0  0  0  0  0  0  0  0  0
    8.7122    6.7842   24.8569 C   0  0  0  0  0  0  0  0  0  0  0  0
   10.3400    6.1726   14.3081 C   0  0  0  0  0  0  0  0  0  0  0  0
    7.4297    7.5873   24.8962 C   0  0  0  0  0  0  0  0  0  0  0  0
    8.1566   10.0536   16.0516 O   0  0  0  0  0  0  0  0  0  0  0  0
   12.4989    6.2074   20.1776 C   0  0  0  0  0  0  0  0  0  0  0  0
    6.9192    9.1053   20.9073 O   0  0  0  0  0  0  0  0  0  0  0  0
   14.3979    6.0729   18.7784 C   0  0  0  0  0  0  0  0  0  0  0  0
    8.6811    9.5354   16.9998 C   0  0  0  0  0  0  0  0  0  0  0  0
    9.2512    4.2713   13.7653 O   0  0  0  0  0  0  0  0  0  0  0  0
    9.6495    8.6317   16.8332 N   0  0  0  0  0  0  0  0  0  0  0  0
    6.2934    8.6988   23.1988 O   0  0  0  0  0  0  0  0  0  0  0  0
    7.9806    8.6543   20.5437 C   0  0  0  0  0  0  0  0  0  0  0  0
   13.7270    5.7144   19.8610 O   0  0  0  0  0  0  0  0  0  0  0  0
    8.3351    5.5235   15.4478 C   0  0  0  0  0  0  0  0  0  0  0  0
    8.7700    7.8434   21.3915 C   0  0  0  0  0  0  0  0  0  0  0  0
   11.7856    6.8851   19.2401 C   0  0  0  0  0  0  0  0  0  0  0  0
   10.5281    7.4276   19.5649 C   0  0  0  0  0  0  0  0  0  0  0  0
   10.0256    7.2907   20.8484 C   0  0  0  0  0  0  0  0  0  0  0  0
    9.3113    5.3049   14.4911 C   0  0  0  0  0  0  0  0  0  0  0  0
    9.4607    7.5646   16.0139 C   0  0  0  0  0  0  0  0  0  0  0  0
   10.4192    7.3157   15.0955 C   0  0  0  0  0  0  0  0  0  0  0  0
   10.2489    6.4227   23.0218 N   0  0  0  0  0  0  0  0  0  0  0  0
    7.2472    8.0746   23.5050 C   0  0  0  0  0  0  0  0  0  0  0  0
    9.2051    6.9101   23.4604 C   0  0  0  0  0  0  0  0  0  0  0  0
   11.9646    6.0299   21.4251 C   0  0  0  0  0  0  0  0  0  0  0  0
  1  5  1  0
  1 13  1  0
  2 20  2  0
  2 28  1  0
  2 29  1  0
  3 19  4  0
  3 25  4  0
  4 23  4  0
  4 27  1  0
  4 30  4  0
  5 17  1  0
  6  8  1  0
  6 29  1  0
  7 24  4  0
  7 26  4  0
  8 28  1  0
  9 13  2  0
 10 18  1  0
 10 21  4  0
 10 30  4  0
 11 17  2  0
 12 18  1  0
 13 15  1  0
 14 24  1  0
 15 25  1  0
 16 28  2  0
 17 20  1  0
 19 24  4  0
 20 23  1  0
 21 22  4  0
 22 23  4  0
 25 26  4  0
 27 29  2  0
M  END
$$$$

 Created by Python create_sdf_string function

 30 33  0  0  0  0  0  0  0  0999 V2000
    8.3036    9.8571   18.4133 C   0  0  0  0  0  0  0  0  0  0  0  0
    8.3694    7.6612   22.6703 C   0  0  0  0  0  0  0  0  0  0  0  0
    8.4143    6.6863   16.2273 C   0  0  0  0  0  0  0  0  0  0  0  0
   10.7581    6.5674   21.7636 C   0  0  0  0  0  0  0  0  0  0  0  0
    8.4452    8.7960   19.2958 O   0  0  0  0  0  0  0  0  0  0  0  0
    8.7122    6.7842   24.8569 C   0  0  0  0  0  0  0  0  0  0  0  0
   10.3400    6.1726   14.3081 C   0  0  0  0  0  0  0  0  0  0  0  0
    7.4297    7.5873   24.8962 C   0  0  0  0  0  0  0  0  0  0  0  0
    8.1566   10.0536   16.0516 O   0  0  0  0  0  0  0  0  0  0  0  0
   12.4989    6.2074   20.1776 C   0  0  0  0  0  0  0  0  0  0  0  0
    6.9192    9.1053   20.9073 O   0  0  0  0  0  0  0  0  0  0  0  0
   14.3979    6.0729   18.7784 C   0  0  0  0  0  0  0  0  0  0  0  0
    8.6811    9.5354   16.9998 C   0  0  0  0  0  0  0  0  0  0  0  0
    9.2512    4.2713   13.7653 O   0  0  0  0  0  0  0  0  0  0  0  0
    9.6495    8.6317   16.8332 N   0  0  0  0  0  0  0  0  0  0  0  0
    6.2934    8.6988   23.1988 O   0  0  0  0  0  0  0  0  0  0  0  0
    7.9806    8.6543   20.5437 C   0  0  0  0  0  0  0  0  0  0  0  0
   13.7270    5.7144   19.8610 O   0  0  0  0  0  0  0  0  0  0  0  0
    8.3351    5.5235   15.4478 C   0  0  0  0  0  0  0  0  0  0  0  0
    8.7700    7.8434   21.3915 C   0  0  0  0  0  0  0  0  0  0  0  0
   11.7856    6.8851   19.2401 C   0  0  0  0  0  0  0  0  0  0  0  0
   10.5281    7.4276   19.5649 C   0  0  0  0  0  0  0  0  0  0  0  0
   10.0256    7.2907   20.8484 C   0  0  0  0  0  0  0  0  0  0  0  0
    9.3113    5.3049   14.4911 C   0  0  0  0  0  0  0  0  0  0  0  0
    9.4607    7.5646   16.0139 C   0  0  0  0  0  0  0  0  0  0  0  0
   10.4192    7.3157   15.0955 C   0  0  0  0  0  0  0  0  0  0  0  0
   10.2489    6.4227   23.0218 N   0  0  0  0  0  0  0  0  0  0  0  0
    7.2472    8.0746   23.5050 C   0  0  0  0  0  0  0  0  0  0  0  0
    9.2051    6.9101   23.4604 C   0  0  0  0  0  0  0  0  0  0  0  0
   11.9646    6.0299   21.4251 C   0  0  0  0  0  0  0  0  0  0  0  0
  1  5  1  0
  1 13  1  0
  2 20  2  0
  2 28  1  0
  2 29  1  0
  3 19  4  0
  3 25  4  0
  4 23  4  0
  4 27  1  0
  4 30  4  0
  5 17  1  0
  6  8  1  0
  6 29  1  0
  7 24  4  0
  7 26  4  0
  8 28  1  0
  9 13  2  0
 10 18  1  0
 10 21  4  0
 10 30  4  0
 11 17  2  0
 12 18  1  0
 13 15  1  0
 14 24  1  0
 15 25  1  0
 16 28  2  0
 17 20  1  0
 19 24  4  0
 20 23  1  0
 21 22  4  0
 22 23  4  0
 25 26  4  0
 27 29  2  0
M  END
$$$$

 Created by Python create_sdf_string function

 30 33  0  0  0  0  0  0  0  0999 V2000
    8.3036    9.8571   18.4133 C   0  0  0  0  0  0  0  0  0  0  0  0
    8.3694    7.6612   22.6703 C   0  0  0  0  0  0  0  0  0  0  0  0
    8.4143    6.6863   16.2273 C   0  0  0  0  0  0  0  0  0  0  0  0
   10.7581    6.5674   21.7636 C   0  0  0  0  0  0  0  0  0  0  0  0
    8.4452    8.7960   19.2958 O   0  0  0  0  0  0  0  0  0  0  0  0
    8.7122    6.7842   24.8569 C   0  0  0  0  0  0  0  0  0  0  0  0
   10.3400    6.1726   14.3081 C   0  0  0  0  0  0  0  0  0  0  0  0
    7.4297    7.5873   24.8962 C   0  0  0  0  0  0  0  0  0  0  0  0
    8.1566   10.0536   16.0516 O   0  0  0  0  0  0  0  0  0  0  0  0
   12.4989    6.2074   20.1776 C   0  0  0  0  0  0  0  0  0  0  0  0
    6.9192    9.1053   20.9073 O   0  0  0  0  0  0  0  0  0  0  0  0
   14.3979    6.0729   18.7784 C   0  0  0  0  0  0  0  0  0  0  0  0
    8.6811    9.5354   16.9998 C   0  0  0  0  0  0  0  0  0  0  0  0
    9.2512    4.2713   13.7653 O   0  0  0  0  0  0  0  0  0  0  0  0
    9.6495    8.6317   16.8332 N   0  0  0  0  0  0  0  0  0  0  0  0
    6.2934    8.6988   23.1988 O   0  0  0  0  0  0  0  0  0  0  0  0
    7.9806    8.6543   20.5437 C   0  0  0  0  0  0  0  0  0  0  0  0
   13.7270    5.7144   19.8610 O   0  0  0  0  0  0  0  0  0  0  0  0
    8.3351    5.5235   15.4478 C   0  0  0  0  0  0  0  0  0  0  0  0
    8.7700    7.8434   21.3915 C   0  0  0  0  0  0  0  0  0  0  0  0
   11.7856    6.8851   19.2401 C   0  0  0  0  0  0  0  0  0  0  0  0
   10.5281    7.4276   19.5649 C   0  0  0  0  0  0  0  0  0  0  0  0
   10.0256    7.2907   20.8484 C   0  0  0  0  0  0  0  0  0  0  0  0
    9.3113    5.3049   14.4911 C   0  0  0  0  0  0  0  0  0  0  0  0
    9.4607    7.5646   16.0139 C   0  0  0  0  0  0  0  0  0  0  0  0
   10.4192    7.3157   15.0955 C   0  0  0  0  0  0  0  0  0  0  0  0
   10.2489    6.4227   23.0218 N   0  0  0  0  0  0  0  0  0  0  0  0
    7.2472    8.0746   23.5050 C   0  0  0  0  0  0  0  0  0  0  0  0
    9.2051    6.9101   23.4604 C   0  0  0  0  0  0  0  0  0  0  0  0
   11.9646    6.0299   21.4251 C   0  0  0  0  0  0  0  0  0  0  0  0
  1  5  1  0
  1 13  1  0
  2 20  2  0
  2 28  1  0
  2 29  1  0
  3 19  4  0
  3 25  4  0
  4 23  4  0
  4 27  1  0
  4 30  4  0
  5 17  1  0
  6  8  1  0
  6 29  1  0
  7 24  4  0
  7 26  4  0
  8 28  1  0
  9 13  2  0
 10 18  1  0
 10 21  4  0
 10 30  4  0
 11 17  2  0
 12 18  1  0
 13 15  1  0
 14 24  1  0
 15 25  1  0
 16 28  2  0
 17 20  1  0
 19 24  4  0
 20 23  1  0
 21 22  4  0
 22 23  4  0
 25 26  4  0
 27 29  2  0
M  END
$$$$

 Created by Python create_sdf_string function

 30 33  0  0  0  0  0  0  0  0999 V2000
    8.3036    9.8571   18.4133 C   0  0  0  0  0  0  0  0  0  0  0  0
    8.3694    7.6612   22.6703 C   0  0  0  0  0  0  0  0  0  0  0  0
    8.4143    6.6863   16.2273 C   0  0  0  0  0  0  0  0  0  0  0  0
   10.7581    6.5674   21.7636 C   0  0  0  0  0  0  0  0  0  0  0  0
    8.4452    8.7960   19.2958 O   0  0  0  0  0  0  0  0  0  0  0  0
    8.7122    6.7842   24.8569 C   0  0  0  0  0  0  0  0  0  0  0  0
   10.3400    6.1726   14.3081 C   0  0  0  0  0  0  0  0  0  0  0  0
    7.4297    7.5873   24.8962 C   0  0  0  0  0  0  0  0  0  0  0  0
    8.1566   10.0536   16.0516 O   0  0  0  0  0  0  0  0  0  0  0  0
   12.4989    6.2074   20.1776 C   0  0  0  0  0  0  0  0  0  0  0  0
    6.9192    9.1053   20.9073 O   0  0  0  0  0  0  0  0  0  0  0  0
   14.3979    6.0729   18.7784 C   0  0  0  0  0  0  0  0  0  0  0  0
    8.6811    9.5354   16.9998 C   0  0  0  0  0  0  0  0  0  0  0  0
    9.2512    4.2713   13.7653 O   0  0  0  0  0  0  0  0  0  0  0  0
    9.6495    8.6317   16.8332 N   0  0  0  0  0  0  0  0  0  0  0  0
    6.2934    8.6988   23.1988 O   0  0  0  0  0  0  0  0  0  0  0  0
    7.9806    8.6543   20.5437 C   0  0  0  0  0  0  0  0  0  0  0  0
   13.7270    5.7144   19.8610 O   0  0  0  0  0  0  0  0  0  0  0  0
    8.3351    5.5235   15.4478 C   0  0  0  0  0  0  0  0  0  0  0  0
    8.7700    7.8434   21.3915 C   0  0  0  0  0  0  0  0  0  0  0  0
   11.7856    6.8851   19.2401 C   0  0  0  0  0  0  0  0  0  0  0  0
   10.5281    7.4276   19.5649 C   0  0  0  0  0  0  0  0  0  0  0  0
   10.0256    7.2907   20.8484 C   0  0  0  0  0  0  0  0  0  0  0  0
    9.3113    5.3049   14.4911 C   0  0  0  0  0  0  0  0  0  0  0  0
    9.4607    7.5646   16.0139 C   0  0  0  0  0  0  0  0  0  0  0  0
   10.4192    7.3157   15.0955 C   0  0  0  0  0  0  0  0  0  0  0  0
   10.2489    6.4227   23.0218 N   0  0  0  0  0  0  0  0  0  0  0  0
    7.2472    8.0746   23.5050 C   0  0  0  0  0  0  0  0  0  0  0  0
    9.2051    6.9101   23.4604 C   0  0  0  0  0  0  0  0  0  0  0  0
   11.9646    6.0299   21.4251 C   0  0  0  0  0  0  0  0  0  0  0  0
  1  5  1  0
  1 13  1  0
  2 20  2  0
  2 28  1  0
  2 29  1  0
  3 19  4  0
  3 25  4  0
  4 23  4  0
  4 27  1  0
  4 30  4  0
  5 17  1  0
  6  8  1  0
  6 29  1  0
  7 24  4  0
  7 26  4  0
  8 28  1  0
  9 13  2  0
 10 18  1  0
 10 21  4  0
 10 30  4  0
 11 17  2  0
 12 18  1  0
 13 15  1  0
 14 24  1  0
 15 25  1  0
 16 28  2  0
 17 20  1  0
 19 24  4  0
 20 23  1  0
 21 22  4  0
 22 23  4  0
 25 26  4  0
 27 29  2  0
M  END
$$$$

 Created by Python create_sdf_string function

 30 33  0  0  0  0  0  0  0  0999 V2000
    8.3036    9.8571   18.4133 C   0  0  0  0  0  0  0  0  0  0  0  0
    8.3694    7.6612   22.6703 C   0  0  0  0  0  0  0  0  0  0  0  0
    8.4143    6.6863   16.2273 C   0  0  0  0  0  0  0  0  0  0  0  0
   10.7581    6.5674   21.7636 C   0  0  0  0  0  0  0  0  0  0  0  0
    8.4452    8.7960   19.2958 O   0  0  0  0  0  0  0  0  0  0  0  0
    8.7122    6.7842   24.8569 C   0  0  0  0  0  0  0  0  0  0  0  0
   10.3400    6.1726   14.3081 C   0  0  0  0  0  0  0  0  0  0  0  0
    7.4297    7.5873   24.8962 C   0  0  0  0  0  0  0  0  0  0  0  0
    8.1566   10.0536   16.0516 O   0  0  0  0  0  0  0  0  0  0  0  0
   12.4989    6.2074   20.1776 C   0  0  0  0  0  0  0  0  0  0  0  0
    6.9192    9.1053   20.9073 O   0  0  0  0  0  0  0  0  0  0  0  0
   14.3979    6.0729   18.7784 C   0  0  0  0  0  0  0  0  0  0  0  0
    8.6811    9.5354   16.9998 C   0  0  0  0  0  0  0  0  0  0  0  0
    9.2512    4.2713   13.7653 O   0  0  0  0  0  0  0  0  0  0  0  0
    9.6495    8.6317   16.8332 N   0  0  0  0  0  0  0  0  0  0  0  0
    6.2934    8.6988   23.1988 O   0  0  0  0  0  0  0  0  0  0  0  0
    7.9806    8.6543   20.5437 C   0  0  0  0  0  0  0  0  0  0  0  0
   13.7270    5.7144   19.8610 O   0  0  0  0  0  0  0  0  0  0  0  0
    8.3351    5.5235   15.4478 C   0  0  0  0  0  0  0  0  0  0  0  0
    8.7700    7.8434   21.3915 C   0  0  0  0  0  0  0  0  0  0  0  0
   11.7856    6.8851   19.2401 C   0  0  0  0  0  0  0  0  0  0  0  0
   10.5281    7.4276   19.5649 C   0  0  0  0  0  0  0  0  0  0  0  0
   10.0256    7.2907   20.8484 C   0  0  0  0  0  0  0  0  0  0  0  0
    9.3113    5.3049   14.4911 C   0  0  0  0  0  0  0  0  0  0  0  0
    9.4607    7.5646   16.0139 C   0  0  0  0  0  0  0  0  0  0  0  0
   10.4192    7.3157   15.0955 C   0  0  0  0  0  0  0  0  0  0  0  0
   10.2489    6.4227   23.0218 N   0  0  0  0  0  0  0  0  0  0  0  0
    7.2472    8.0746   23.5050 C   0  0  0  0  0  0  0  0  0  0  0  0
    9.2051    6.9101   23.4604 C   0  0  0  0  0  0  0  0  0  0  0  0
   11.9646    6.0299   21.4251 C   0  0  0  0  0  0  0  0  0  0  0  0
  1  5  1  0
  1 13  1  0
  2 20  2  0
  2 28  1  0
  2 29  1  0
  3 19  4  0
  3 25  4  0
  4 23  4  0
  4 27  1  0
  4 30  4  0
  5 17  1  0
  6  8  1  0
  6 29  1  0
  7 24  4  0
  7 26  4  0
  8 28  1  0
  9 13  2  0
 10 18  1  0
 10 21  4  0
 10 30  4  0
 11 17  2  0
 12 18  1  0
 13 15  1  0
 14 24  1  0
 15 25  1  0
 16 28  2  0
 17 20  1  0
 19 24  4  0
 20 23  1  0
 21 22  4  0
 22 23  4  0
 25 26  4  0
 27 29  2  0
M  END
$$$$

 Created by Python create_sdf_string function

 30 33  0  0  0  0  0  0  0  0999 V2000
    8.3036    9.8571   18.4133 C   0  0  0  0  0  0  0  0  0  0  0  0
    8.3694    7.6612   22.6703 C   0  0  0  0  0  0  0  0  0  0  0  0
    8.4143    6.6863   16.2273 C   0  0  0  0  0  0  0  0  0  0  0  0
   10.7581    6.5674   21.7636 C   0  0  0  0  0  0  0  0  0  0  0  0
    8.4452    8.7960   19.2958 O   0  0  0  0  0  0  0  0  0  0  0  0
    8.7122    6.7842   24.8569 C   0  0  0  0  0  0  0  0  0  0  0  0
   10.3400    6.1726   14.3081 C   0  0  0  0  0  0  0  0  0  0  0  0
    7.4297    7.5873   24.8962 C   0  0  0  0  0  0  0  0  0  0  0  0
    8.1566   10.0536   16.0516 O   0  0  0  0  0  0  0  0  0  0  0  0
   12.4989    6.2074   20.1776 C   0  0  0  0  0  0  0  0  0  0  0  0
    6.9192    9.1053   20.9073 O   0  0  0  0  0  0  0  0  0  0  0  0
   14.3979    6.0729   18.7784 C   0  0  0  0  0  0  0  0  0  0  0  0
    8.6811    9.5354   16.9998 C   0  0  0  0  0  0  0  0  0  0  0  0
    9.2512    4.2713   13.7653 O   0  0  0  0  0  0  0  0  0  0  0  0
    9.6495    8.6317   16.8332 N   0  0  0  0  0  0  0  0  0  0  0  0
    6.2934    8.6988   23.1988 O   0  0  0  0  0  0  0  0  0  0  0  0
    7.9806    8.6543   20.5437 C   0  0  0  0  0  0  0  0  0  0  0  0
   13.7270    5.7144   19.8610 O   0  0  0  0  0  0  0  0  0  0  0  0
    8.3351    5.5235   15.4478 C   0  0  0  0  0  0  0  0  0  0  0  0
    8.7700    7.8434   21.3915 C   0  0  0  0  0  0  0  0  0  0  0  0
   11.7856    6.8851   19.2401 C   0  0  0  0  0  0  0  0  0  0  0  0
   10.5281    7.4276   19.5649 C   0  0  0  0  0  0  0  0  0  0  0  0
   10.0256    7.2907   20.8484 C   0  0  0  0  0  0  0  0  0  0  0  0
    9.3113    5.3049   14.4911 C   0  0  0  0  0  0  0  0  0  0  0  0
    9.4607    7.5646   16.0139 C   0  0  0  0  0  0  0  0  0  0  0  0
   10.4192    7.3157   15.0955 C   0  0  0  0  0  0  0  0  0  0  0  0
   10.2489    6.4227   23.0218 N   0  0  0  0  0  0  0  0  0  0  0  0
    7.2472    8.0746   23.5050 C   0  0  0  0  0  0  0  0  0  0  0  0
    9.2051    6.9101   23.4604 C   0  0  0  0  0  0  0  0  0  0  0  0
   11.9646    6.0299   21.4251 C   0  0  0  0  0  0  0  0  0  0  0  0
  1  5  1  0
  1 13  1  0
  2 20  2  0
  2 28  1  0
  2 29  1  0
  3 19  4  0
  3 25  4  0
  4 23  4  0
  4 27  1  0
  4 30  4  0
  5 17  1  0
  6  8  1  0
  6 29  1  0
  7 24  4  0
  7 26  4  0
  8 28  1  0
  9 13  2  0
 10 18  1  0
 10 21  4  0
 10 30  4  0
 11 17  2  0
 12 18  1  0
 13 15  1  0
 14 24  1  0
 15 25  1  0
 16 28  2  0
 17 20  1  0
 19 24  4  0
 20 23  1  0
 21 22  4  0
 22 23  4  0
 25 26  4  0
 27 29  2  0
M  END
$$$$

 Created by Python create_sdf_string function

 30 33  0  0  0  0  0  0  0  0999 V2000
    8.3036    9.8571   18.4133 C   0  0  0  0  0  0  0  0  0  0  0  0
    8.3694    7.6612   22.6703 C   0  0  0  0  0  0  0  0  0  0  0  0
    8.4143    6.6863   16.2273 C   0  0  0  0  0  0  0  0  0  0  0  0
   10.7581    6.5674   21.7636 C   0  0  0  0  0  0  0  0  0  0  0  0
    8.4452    8.7960   19.2958 O   0  0  0  0  0  0  0  0  0  0  0  0
    8.7122    6.7842   24.8569 C   0  0  0  0  0  0  0  0  0  0  0  0
   10.3400    6.1726   14.3081 C   0  0  0  0  0  0  0  0  0  0  0  0
    7.4297    7.5873   24.8962 C   0  0  0  0  0  0  0  0  0  0  0  0
    8.1566   10.0536   16.0516 O   0  0  0  0  0  0  0  0  0  0  0  0
   12.4989    6.2074   20.1776 C   0  0  0  0  0  0  0  0  0  0  0  0
    6.9192    9.1053   20.9073 O   0  0  0  0  0  0  0  0  0  0  0  0
   14.3979    6.0729   18.7784 C   0  0  0  0  0  0  0  0  0  0  0  0
    8.6811    9.5354   16.9998 C   0  0  0  0  0  0  0  0  0  0  0  0
    9.2512    4.2713   13.7653 O   0  0  0  0  0  0  0  0  0  0  0  0
    9.6495    8.6317   16.8332 N   0  0  0  0  0  0  0  0  0  0  0  0
    6.2934    8.6988   23.1988 O   0  0  0  0  0  0  0  0  0  0  0  0
    7.9806    8.6543   20.5437 C   0  0  0  0  0  0  0  0  0  0  0  0
   13.7270    5.7144   19.8610 O   0  0  0  0  0  0  0  0  0  0  0  0
    8.3351    5.5235   15.4478 C   0  0  0  0  0  0  0  0  0  0  0  0
    8.7700    7.8434   21.3915 C   0  0  0  0  0  0  0  0  0  0  0  0
   11.7856    6.8851   19.2401 C   0  0  0  0  0  0  0  0  0  0  0  0
   10.5281    7.4276   19.5649 C   0  0  0  0  0  0  0  0  0  0  0  0
   10.0256    7.2907   20.8484 C   0  0  0  0  0  0  0  0  0  0  0  0
    9.3113    5.3049   14.4911 C   0  0  0  0  0  0  0  0  0  0  0  0
    9.4607    7.5646   16.0139 C   0  0  0  0  0  0  0  0  0  0  0  0
   10.4192    7.3157   15.0955 C   0  0  0  0  0  0  0  0  0  0  0  0
   10.2489    6.4227   23.0218 N   0  0  0  0  0  0  0  0  0  0  0  0
    7.2472    8.0746   23.5050 C   0  0  0  0  0  0  0  0  0  0  0  0
    9.2051    6.9101   23.4604 C   0  0  0  0  0  0  0  0  0  0  0  0
   11.9646    6.0299   21.4251 C   0  0  0  0  0  0  0  0  0  0  0  0
  1  5  1  0
  1 13  1  0
  2 20  2  0
  2 28  1  0
  2 29  1  0
  3 19  4  0
  3 25  4  0
  4 23  4  0
  4 27  1  0
  4 30  4  0
  5 17  1  0
  6  8  1  0
  6 29  1  0
  7 24  4  0
  7 26  4  0
  8 28  1  0
  9 13  2  0
 10 18  1  0
 10 21  4  0
 10 30  4  0
 11 17  2  0
 12 18  1  0
 13 15  1  0
 14 24  1  0
 15 25  1  0
 16 28  2  0
 17 20  1  0
 19 24  4  0
 20 23  1  0
 21 22  4  0
 22 23  4  0
 25 26  4  0
 27 29  2  0
M  END
$$$$

 Created by Python create_sdf_string function

 30 33  0  0  0  0  0  0  0  0999 V2000
    8.3036    9.8571   18.4133 C   0  0  0  0  0  0  0  0  0  0  0  0
    8.3694    7.6612   22.6703 C   0  0  0  0  0  0  0  0  0  0  0  0
    8.4143    6.6863   16.2273 C   0  0  0  0  0  0  0  0  0  0  0  0
   10.7581    6.5674   21.7636 C   0  0  0  0  0  0  0  0  0  0  0  0
    8.4452    8.7960   19.2958 O   0  0  0  0  0  0  0  0  0  0  0  0
    8.7122    6.7842   24.8569 C   0  0  0  0  0  0  0  0  0  0  0  0
   10.3400    6.1726   14.3081 C   0  0  0  0  0  0  0  0  0  0  0  0
    7.4297    7.5873   24.8962 C   0  0  0  0  0  0  0  0  0  0  0  0
    8.1566   10.0536   16.0516 O   0  0  0  0  0  0  0  0  0  0  0  0
   12.4989    6.2074   20.1776 C   0  0  0  0  0  0  0  0  0  0  0  0
    6.9192    9.1053   20.9073 O   0  0  0  0  0  0  0  0  0  0  0  0
   14.3979    6.0729   18.7784 C   0  0  0  0  0  0  0  0  0  0  0  0
    8.6811    9.5354   16.9998 C   0  0  0  0  0  0  0  0  0  0  0  0
    9.2512    4.2713   13.7653 O   0  0  0  0  0  0  0  0  0  0  0  0
    9.6495    8.6317   16.8332 N   0  0  0  0  0  0  0  0  0  0  0  0
    6.2934    8.6988   23.1988 O   0  0  0  0  0  0  0  0  0  0  0  0
    7.9806    8.6543   20.5437 C   0  0  0  0  0  0  0  0  0  0  0  0
   13.7270    5.7144   19.8610 O   0  0  0  0  0  0  0  0  0  0  0  0
    8.3351    5.5235   15.4478 C   0  0  0  0  0  0  0  0  0  0  0  0
    8.7700    7.8434   21.3915 C   0  0  0  0  0  0  0  0  0  0  0  0
   11.7856    6.8851   19.2401 C   0  0  0  0  0  0  0  0  0  0  0  0
   10.5281    7.4276   19.5649 C   0  0  0  0  0  0  0  0  0  0  0  0
   10.0256    7.2907   20.8484 C   0  0  0  0  0  0  0  0  0  0  0  0
    9.3113    5.3049   14.4911 C   0  0  0  0  0  0  0  0  0  0  0  0
    9.4607    7.5646   16.0139 C   0  0  0  0  0  0  0  0  0  0  0  0
   10.4192    7.3157   15.0955 C   0  0  0  0  0  0  0  0  0  0  0  0
   10.2489    6.4227   23.0218 N   0  0  0  0  0  0  0  0  0  0  0  0
    7.2472    8.0746   23.5050 C   0  0  0  0  0  0  0  0  0  0  0  0
    9.2051    6.9101   23.4604 C   0  0  0  0  0  0  0  0  0  0  0  0
   11.9646    6.0299   21.4251 C   0  0  0  0  0  0  0  0  0  0  0  0
  1  5  1  0
  1 13  1  0
  2 20  2  0
  2 28  1  0
  2 29  1  0
  3 19  4  0
  3 25  4  0
  4 23  4  0
  4 27  1  0
  4 30  4  0
  5 17  1  0
  6  8  1  0
  6 29  1  0
  7 24  4  0
  7 26  4  0
  8 28  1  0
  9 13  2  0
 10 18  1  0
 10 21  4  0
 10 30  4  0
 11 17  2  0
 12 18  1  0
 13 15  1  0
 14 24  1  0
 15 25  1  0
 16 28  2  0
 17 20  1  0
 19 24  4  0
 20 23  1  0
 21 22  4  0
 22 23  4  0
 25 26  4  0
 27 29  2  0
M  END
$$$$

 Created by Python create_sdf_string function

 30 33  0  0  0  0  0  0  0  0999 V2000
    8.3036    9.8571   18.4133 C   0  0  0  0  0  0  0  0  0  0  0  0
    8.3694    7.6612   22.6703 C   0  0  0  0  0  0  0  0  0  0  0  0
    8.4143    6.6863   16.2273 C   0  0  0  0  0  0  0  0  0  0  0  0
   10.7581    6.5674   21.7636 C   0  0  0  0  0  0  0  0  0  0  0  0
    8.4452    8.7960   19.2958 O   0  0  0  0  0  0  0  0  0  0  0  0
    8.7122    6.7842   24.8569 C   0  0  0  0  0  0  0  0  0  0  0  0
   10.3400    6.1726   14.3081 C   0  0  0  0  0  0  0  0  0  0  0  0
    7.4297    7.5873   24.8962 C   0  0  0  0  0  0  0  0  0  0  0  0
    8.1566   10.0536   16.0516 O   0  0  0  0  0  0  0  0  0  0  0  0
   12.4989    6.2074   20.1776 C   0  0  0  0  0  0  0  0  0  0  0  0
    6.9192    9.1053   20.9073 O   0  0  0  0  0  0  0  0  0  0  0  0
   14.3979    6.0729   18.7784 C   0  0  0  0  0  0  0  0  0  0  0  0
    8.6811    9.5354   16.9998 C   0  0  0  0  0  0  0  0  0  0  0  0
    9.2512    4.2713   13.7653 O   0  0  0  0  0  0  0  0  0  0  0  0
    9.6495    8.6317   16.8332 N   0  0  0  0  0  0  0  0  0  0  0  0
    6.2934    8.6988   23.1988 O   0  0  0  0  0  0  0  0  0  0  0  0
    7.9806    8.6543   20.5437 C   0  0  0  0  0  0  0  0  0  0  0  0
   13.7270    5.7144   19.8610 O   0  0  0  0  0  0  0  0  0  0  0  0
    8.3351    5.5235   15.4478 C   0  0  0  0  0  0  0  0  0  0  0  0
    8.7700    7.8434   21.3915 C   0  0  0  0  0  0  0  0  0  0  0  0
   11.7856    6.8851   19.2401 C   0  0  0  0  0  0  0  0  0  0  0  0
   10.5281    7.4276   19.5649 C   0  0  0  0  0  0  0  0  0  0  0  0
   10.0256    7.2907   20.8484 C   0  0  0  0  0  0  0  0  0  0  0  0
    9.3113    5.3049   14.4911 C   0  0  0  0  0  0  0  0  0  0  0  0
    9.4607    7.5646   16.0139 C   0  0  0  0  0  0  0  0  0  0  0  0
   10.4192    7.3157   15.0955 C   0  0  0  0  0  0  0  0  0  0  0  0
   10.2489    6.4227   23.0218 N   0  0  0  0  0  0  0  0  0  0  0  0
    7.2472    8.0746   23.5050 C   0  0  0  0  0  0  0  0  0  0  0  0
    9.2051    6.9101   23.4604 C   0  0  0  0  0  0  0  0  0  0  0  0
   11.9646    6.0299   21.4251 C   0  0  0  0  0  0  0  0  0  0  0  0
  1  5  1  0
  1 13  1  0
  2 20  2  0
  2 28  1  0
  2 29  1  0
  3 19  4  0
  3 25  4  0
  4 23  4  0
  4 27  1  0
  4 30  4  0
  5 17  1  0
  6  8  1  0
  6 29  1  0
  7 24  4  0
  7 26  4  0
  8 28  1  0
  9 13  2  0
 10 18  1  0
 10 21  4  0
 10 30  4  0
 11 17  2  0
 12 18  1  0
 13 15  1  0
 14 24  1  0
 15 25  1  0
 16 28  2  0
 17 20  1  0
 19 24  4  0
 20 23  1  0
 21 22  4  0
 22 23  4  0
 25 26  4  0
 27 29  2  0
M  END
$$$$

 Created by Python create_sdf_string function

 30 33  0  0  0  0  0  0  0  0999 V2000
    8.3036    9.8571   18.4133 C   0  0  0  0  0  0  0  0  0  0  0  0
    8.3694    7.6612   22.6703 C   0  0  0  0  0  0  0  0  0  0  0  0
    8.4143    6.6863   16.2273 C   0  0  0  0  0  0  0  0  0  0  0  0
   10.7581    6.5674   21.7636 C   0  0  0  0  0  0  0  0  0  0  0  0
    8.4452    8.7960   19.2958 O   0  0  0  0  0  0  0  0  0  0  0  0
    8.7122    6.7842   24.8569 C   0  0  0  0  0  0  0  0  0  0  0  0
   10.3400    6.1726   14.3081 C   0  0  0  0  0  0  0  0  0  0  0  0
    7.4297    7.5873   24.8962 C   0  0  0  0  0  0  0  0  0  0  0  0
    8.1566   10.0536   16.0516 O   0  0  0  0  0  0  0  0  0  0  0  0
   12.4989    6.2074   20.1776 C   0  0  0  0  0  0  0  0  0  0  0  0
    6.9192    9.1053   20.9073 O   0  0  0  0  0  0  0  0  0  0  0  0
   14.3979    6.0729   18.7784 C   0  0  0  0  0  0  0  0  0  0  0  0
    8.6811    9.5354   16.9998 C   0  0  0  0  0  0  0  0  0  0  0  0
    9.2512    4.2713   13.7653 O   0  0  0  0  0  0  0  0  0  0  0  0
    9.6495    8.6317   16.8332 N   0  0  0  0  0  0  0  0  0  0  0  0
    6.2934    8.6988   23.1988 O   0  0  0  0  0  0  0  0  0  0  0  0
    7.9806    8.6543   20.5437 C   0  0  0  0  0  0  0  0  0  0  0  0
   13.7270    5.7144   19.8610 O   0  0  0  0  0  0  0  0  0  0  0  0
    8.3351    5.5235   15.4478 C   0  0  0  0  0  0  0  0  0  0  0  0
    8.7700    7.8434   21.3915 C   0  0  0  0  0  0  0  0  0  0  0  0
   11.7856    6.8851   19.2401 C   0  0  0  0  0  0  0  0  0  0  0  0
   10.5281    7.4276   19.5649 C   0  0  0  0  0  0  0  0  0  0  0  0
   10.0256    7.2907   20.8484 C   0  0  0  0  0  0  0  0  0  0  0  0
    9.3113    5.3049   14.4911 C   0  0  0  0  0  0  0  0  0  0  0  0
    9.4607    7.5646   16.0139 C   0  0  0  0  0  0  0  0  0  0  0  0
   10.4192    7.3157   15.0955 C   0  0  0  0  0  0  0  0  0  0  0  0
   10.2489    6.4227   23.0218 N   0  0  0  0  0  0  0  0  0  0  0  0
    7.2472    8.0746   23.5050 C   0  0  0  0  0  0  0  0  0  0  0  0
    9.2051    6.9101   23.4604 C   0  0  0  0  0  0  0  0  0  0  0  0
   11.9646    6.0299   21.4251 C   0  0  0  0  0  0  0  0  0  0  0  0
  1  5  1  0
  1 13  1  0
  2 20  2  0
  2 28  1  0
  2 29  1  0
  3 19  4  0
  3 25  4  0
  4 23  4  0
  4 27  1  0
  4 30  4  0
  5 17  1  0
  6  8  1  0
  6 29  1  0
  7 24  4  0
  7 26  4  0
  8 28  1  0
  9 13  2  0
 10 18  1  0
 10 21  4  0
 10 30  4  0
 11 17  2  0
 12 18  1  0
 13 15  1  0
 14 24  1  0
 15 25  1  0
 16 28  2  0
 17 20  1  0
 19 24  4  0
 20 23  1  0
 21 22  4  0
 22 23  4  0
 25 26  4  0
 27 29  2  0
M  END
$$$$

 Created by Python create_sdf_string function

 30 33  0  0  0  0  0  0  0  0999 V2000
    8.3036    9.8571   18.4133 C   0  0  0  0  0  0  0  0  0  0  0  0
    8.3694    7.6612   22.6703 C   0  0  0  0  0  0  0  0  0  0  0  0
    8.4143    6.6863   16.2273 C   0  0  0  0  0  0  0  0  0  0  0  0
   10.7581    6.5674   21.7636 C   0  0  0  0  0  0  0  0  0  0  0  0
    8.4452    8.7960   19.2958 O   0  0  0  0  0  0  0  0  0  0  0  0
    8.7122    6.7842   24.8569 C   0  0  0  0  0  0  0  0  0  0  0  0
   10.3400    6.1726   14.3081 C   0  0  0  0  0  0  0  0  0  0  0  0
    7.4297    7.5873   24.8962 C   0  0  0  0  0  0  0  0  0  0  0  0
    8.1566   10.0536   16.0516 O   0  0  0  0  0  0  0  0  0  0  0  0
   12.4989    6.2074   20.1776 C   0  0  0  0  0  0  0  0  0  0  0  0
    6.9192    9.1053   20.9073 O   0  0  0  0  0  0  0  0  0  0  0  0
   14.3979    6.0729   18.7784 C   0  0  0  0  0  0  0  0  0  0  0  0
    8.6811    9.5354   16.9998 C   0  0  0  0  0  0  0  0  0  0  0  0
    9.2512    4.2713   13.7653 O   0  0  0  0  0  0  0  0  0  0  0  0
    9.6495    8.6317   16.8332 N   0  0  0  0  0  0  0  0  0  0  0  0
    6.2934    8.6988   23.1988 O   0  0  0  0  0  0  0  0  0  0  0  0
    7.9806    8.6543   20.5437 C   0  0  0  0  0  0  0  0  0  0  0  0
   13.7270    5.7144   19.8610 O   0  0  0  0  0  0  0  0  0  0  0  0
    8.3351    5.5235   15.4478 C   0  0  0  0  0  0  0  0  0  0  0  0
    8.7700    7.8434   21.3915 C   0  0  0  0  0  0  0  0  0  0  0  0
   11.7856    6.8851   19.2401 C   0  0  0  0  0  0  0  0  0  0  0  0
   10.5281    7.4276   19.5649 C   0  0  0  0  0  0  0  0  0  0  0  0
   10.0256    7.2907   20.8484 C   0  0  0  0  0  0  0  0  0  0  0  0
    9.3113    5.3049   14.4911 C   0  0  0  0  0  0  0  0  0  0  0  0
    9.4607    7.5646   16.0139 C   0  0  0  0  0  0  0  0  0  0  0  0
   10.4192    7.3157   15.0955 C   0  0  0  0  0  0  0  0  0  0  0  0
   10.2489    6.4227   23.0218 N   0  0  0  0  0  0  0  0  0  0  0  0
    7.2472    8.0746   23.5050 C   0  0  0  0  0  0  0  0  0  0  0  0
    9.2051    6.9101   23.4604 C   0  0  0  0  0  0  0  0  0  0  0  0
   11.9646    6.0299   21.4251 C   0  0  0  0  0  0  0  0  0  0  0  0
  1  5  1  0
  1 13  1  0
  2 20  2  0
  2 28  1  0
  2 29  1  0
  3 19  4  0
  3 25  4  0
  4 23  4  0
  4 27  1  0
  4 30  4  0
  5 17  1  0
  6  8  1  0
  6 29  1  0
  7 24  4  0
  7 26  4  0
  8 28  1  0
  9 13  2  0
 10 18  1  0
 10 21  4  0
 10 30  4  0
 11 17  2  0
 12 18  1  0
 13 15  1  0
 14 24  1  0
 15 25  1  0
 16 28  2  0
 17 20  1  0
 19 24  4  0
 20 23  1  0
 21 22  4  0
 22 23  4  0
 25 26  4  0
 27 29  2  0
M  END
$$$$

 Created by Python create_sdf_string function

 30 33  0  0  0  0  0  0  0  0999 V2000
    8.3036    9.8571   18.4133 C   0  0  0  0  0  0  0  0  0  0  0  0
    8.3694    7.6612   22.6703 C   0  0  0  0  0  0  0  0  0  0  0  0
    8.4143    6.6863   16.2273 C   0  0  0  0  0  0  0  0  0  0  0  0
   10.7581    6.5674   21.7636 C   0  0  0  0  0  0  0  0  0  0  0  0
    8.4452    8.7960   19.2958 O   0  0  0  0  0  0  0  0  0  0  0  0
    8.7122    6.7842   24.8569 C   0  0  0  0  0  0  0  0  0  0  0  0
   10.3400    6.1726   14.3081 C   0  0  0  0  0  0  0  0  0  0  0  0
    7.4297    7.5873   24.8962 C   0  0  0  0  0  0  0  0  0  0  0  0
    8.1566   10.0536   16.0516 O   0  0  0  0  0  0  0  0  0  0  0  0
   12.4989    6.2074   20.1776 C   0  0  0  0  0  0  0  0  0  0  0  0
    6.9192    9.1053   20.9073 O   0  0  0  0  0  0  0  0  0  0  0  0
   14.3979    6.0729   18.7784 C   0  0  0  0  0  0  0  0  0  0  0  0
    8.6811    9.5354   16.9998 C   0  0  0  0  0  0  0  0  0  0  0  0
    9.2512    4.2713   13.7653 O   0  0  0  0  0  0  0  0  0  0  0  0
    9.6495    8.6317   16.8332 N   0  0  0  0  0  0  0  0  0  0  0  0
    6.2934    8.6988   23.1988 O   0  0  0  0  0  0  0  0  0  0  0  0
    7.9806    8.6543   20.5437 C   0  0  0  0  0  0  0  0  0  0  0  0
   13.7270    5.7144   19.8610 O   0  0  0  0  0  0  0  0  0  0  0  0
    8.3351    5.5235   15.4478 C   0  0  0  0  0  0  0  0  0  0  0  0
    8.7700    7.8434   21.3915 C   0  0  0  0  0  0  0  0  0  0  0  0
   11.7856    6.8851   19.2401 C   0  0  0  0  0  0  0  0  0  0  0  0
   10.5281    7.4276   19.5649 C   0  0  0  0  0  0  0  0  0  0  0  0
   10.0256    7.2907   20.8484 C   0  0  0  0  0  0  0  0  0  0  0  0
    9.3113    5.3049   14.4911 C   0  0  0  0  0  0  0  0  0  0  0  0
    9.4607    7.5646   16.0139 C   0  0  0  0  0  0  0  0  0  0  0  0
   10.4192    7.3157   15.0955 C   0  0  0  0  0  0  0  0  0  0  0  0
   10.2489    6.4227   23.0218 N   0  0  0  0  0  0  0  0  0  0  0  0
    7.2472    8.0746   23.5050 C   0  0  0  0  0  0  0  0  0  0  0  0
    9.2051    6.9101   23.4604 C   0  0  0  0  0  0  0  0  0  0  0  0
   11.9646    6.0299   21.4251 C   0  0  0  0  0  0  0  0  0  0  0  0
  1  5  1  0
  1 13  1  0
  2 20  2  0
  2 28  1  0
  2 29  1  0
  3 19  4  0
  3 25  4  0
  4 23  4  0
  4 27  1  0
  4 30  4  0
  5 17  1  0
  6  8  1  0
  6 29  1  0
  7 24  4  0
  7 26  4  0
  8 28  1  0
  9 13  2  0
 10 18  1  0
 10 21  4  0
 10 30  4  0
 11 17  2  0
 12 18  1  0
 13 15  1  0
 14 24  1  0
 15 25  1  0
 16 28  2  0
 17 20  1  0
 19 24  4  0
 20 23  1  0
 21 22  4  0
 22 23  4  0
 25 26  4  0
 27 29  2  0
M  END
$$$$

 Created by Python create_sdf_string function

 30 33  0  0  0  0  0  0  0  0999 V2000
    8.3036    9.8571   18.4133 C   0  0  0  0  0  0  0  0  0  0  0  0
    8.3694    7.6612   22.6703 C   0  0  0  0  0  0  0  0  0  0  0  0
    8.4143    6.6863   16.2273 C   0  0  0  0  0  0  0  0  0  0  0  0
   10.7581    6.5674   21.7636 C   0  0  0  0  0  0  0  0  0  0  0  0
    8.4452    8.7960   19.2958 O   0  0  0  0  0  0  0  0  0  0  0  0
    8.7122    6.7842   24.8569 C   0  0  0  0  0  0  0  0  0  0  0  0
   10.3400    6.1726   14.3081 C   0  0  0  0  0  0  0  0  0  0  0  0
    7.4297    7.5873   24.8962 C   0  0  0  0  0  0  0  0  0  0  0  0
    8.1566   10.0536   16.0516 O   0  0  0  0  0  0  0  0  0  0  0  0
   12.4989    6.2074   20.1776 C   0  0  0  0  0  0  0  0  0  0  0  0
    6.9192    9.1053   20.9073 O   0  0  0  0  0  0  0  0  0  0  0  0
   14.3979    6.0729   18.7784 C   0  0  0  0  0  0  0  0  0  0  0  0
    8.6811    9.5354   16.9998 C   0  0  0  0  0  0  0  0  0  0  0  0
    9.2512    4.2713   13.7653 O   0  0  0  0  0  0  0  0  0  0  0  0
    9.6495    8.6317   16.8332 N   0  0  0  0  0  0  0  0  0  0  0  0
    6.2934    8.6988   23.1988 O   0  0  0  0  0  0  0  0  0  0  0  0
    7.9806    8.6543   20.5437 C   0  0  0  0  0  0  0  0  0  0  0  0
   13.7270    5.7144   19.8610 O   0  0  0  0  0  0  0  0  0  0  0  0
    8.3351    5.5235   15.4478 C   0  0  0  0  0  0  0  0  0  0  0  0
    8.7700    7.8434   21.3915 C   0  0  0  0  0  0  0  0  0  0  0  0
   11.7856    6.8851   19.2401 C   0  0  0  0  0  0  0  0  0  0  0  0
   10.5281    7.4276   19.5649 C   0  0  0  0  0  0  0  0  0  0  0  0
   10.0256    7.2907   20.8484 C   0  0  0  0  0  0  0  0  0  0  0  0
    9.3113    5.3049   14.4911 C   0  0  0  0  0  0  0  0  0  0  0  0
    9.4607    7.5646   16.0139 C   0  0  0  0  0  0  0  0  0  0  0  0
   10.4192    7.3157   15.0955 C   0  0  0  0  0  0  0  0  0  0  0  0
   10.2489    6.4227   23.0218 N   0  0  0  0  0  0  0  0  0  0  0  0
    7.2472    8.0746   23.5050 C   0  0  0  0  0  0  0  0  0  0  0  0
    9.2051    6.9101   23.4604 C   0  0  0  0  0  0  0  0  0  0  0  0
   11.9646    6.0299   21.4251 C   0  0  0  0  0  0  0  0  0  0  0  0
  1  5  1  0
  1 13  1  0
  2 20  2  0
  2 28  1  0
  2 29  1  0
  3 19  4  0
  3 25  4  0
  4 23  4  0
  4 27  1  0
  4 30  4  0
  5 17  1  0
  6  8  1  0
  6 29  1  0
  7 24  4  0
  7 26  4  0
  8 28  1  0
  9 13  2  0
 10 18  1  0
 10 21  4  0
 10 30  4  0
 11 17  2  0
 12 18  1  0
 13 15  1  0
 14 24  1  0
 15 25  1  0
 16 28  2  0
 17 20  1  0
 19 24  4  0
 20 23  1  0
 21 22  4  0
 22 23  4  0
 25 26  4  0
 27 29  2  0
M  END
$$$$

 Created by Python create_sdf_string function

 30 33  0  0  0  0  0  0  0  0999 V2000
    8.3036    9.8571   18.4133 C   0  0  0  0  0  0  0  0  0  0  0  0
    8.3694    7.6612   22.6703 C   0  0  0  0  0  0  0  0  0  0  0  0
    8.4143    6.6863   16.2273 C   0  0  0  0  0  0  0  0  0  0  0  0
   10.7581    6.5674   21.7636 C   0  0  0  0  0  0  0  0  0  0  0  0
    8.4452    8.7960   19.2958 O   0  0  0  0  0  0  0  0  0  0  0  0
    8.7122    6.7842   24.8569 C   0  0  0  0  0  0  0  0  0  0  0  0
   10.3400    6.1726   14.3081 C   0  0  0  0  0  0  0  0  0  0  0  0
    7.4297    7.5873   24.8962 C   0  0  0  0  0  0  0  0  0  0  0  0
    8.1566   10.0536   16.0516 O   0  0  0  0  0  0  0  0  0  0  0  0
   12.4989    6.2074   20.1776 C   0  0  0  0  0  0  0  0  0  0  0  0
    6.9192    9.1053   20.9073 O   0  0  0  0  0  0  0  0  0  0  0  0
   14.3979    6.0729   18.7784 C   0  0  0  0  0  0  0  0  0  0  0  0
    8.6811    9.5354   16.9998 C   0  0  0  0  0  0  0  0  0  0  0  0
    9.2512    4.2713   13.7653 O   0  0  0  0  0  0  0  0  0  0  0  0
    9.6495    8.6317   16.8332 N   0  0  0  0  0  0  0  0  0  0  0  0
    6.2934    8.6988   23.1988 O   0  0  0  0  0  0  0  0  0  0  0  0
    7.9806    8.6543   20.5437 C   0  0  0  0  0  0  0  0  0  0  0  0
   13.7270    5.7144   19.8610 O   0  0  0  0  0  0  0  0  0  0  0  0
    8.3351    5.5235   15.4478 C   0  0  0  0  0  0  0  0  0  0  0  0
    8.7700    7.8434   21.3915 C   0  0  0  0  0  0  0  0  0  0  0  0
   11.7856    6.8851   19.2401 C   0  0  0  0  0  0  0  0  0  0  0  0
   10.5281    7.4276   19.5649 C   0  0  0  0  0  0  0  0  0  0  0  0
   10.0256    7.2907   20.8484 C   0  0  0  0  0  0  0  0  0  0  0  0
    9.3113    5.3049   14.4911 C   0  0  0  0  0  0  0  0  0  0  0  0
    9.4607    7.5646   16.0139 C   0  0  0  0  0  0  0  0  0  0  0  0
   10.4192    7.3157   15.0955 C   0  0  0  0  0  0  0  0  0  0  0  0
   10.2489    6.4227   23.0218 N   0  0  0  0  0  0  0  0  0  0  0  0
    7.2472    8.0746   23.5050 C   0  0  0  0  0  0  0  0  0  0  0  0
    9.2051    6.9101   23.4604 C   0  0  0  0  0  0  0  0  0  0  0  0
   11.9646    6.0299   21.4251 C   0  0  0  0  0  0  0  0  0  0  0  0
  1  5  1  0
  1 13  1  0
  2 20  2  0
  2 28  1  0
  2 29  1  0
  3 19  4  0
  3 25  4  0
  4 23  4  0
  4 27  1  0
  4 30  4  0
  5 17  1  0
  6  8  1  0
  6 29  1  0
  7 24  4  0
  7 26  4  0
  8 28  1  0
  9 13  2  0
 10 18  1  0
 10 21  4  0
 10 30  4  0
 11 17  2  0
 12 18  1  0
 13 15  1  0
 14 24  1  0
 15 25  1  0
 16 28  2  0
 17 20  1  0
 19 24  4  0
 20 23  1  0
 21 22  4  0
 22 23  4  0
 25 26  4  0
 27 29  2  0
M  END
$$$$

 Created by Python create_sdf_string function

 30 33  0  0  0  0  0  0  0  0999 V2000
    8.3036    9.8571   18.4133 C   0  0  0  0  0  0  0  0  0  0  0  0
    8.3694    7.6612   22.6703 C   0  0  0  0  0  0  0  0  0  0  0  0
    8.4143    6.6863   16.2273 C   0  0  0  0  0  0  0  0  0  0  0  0
   10.7581    6.5674   21.7636 C   0  0  0  0  0  0  0  0  0  0  0  0
    8.4452    8.7960   19.2958 O   0  0  0  0  0  0  0  0  0  0  0  0
    8.7122    6.7842   24.8569 C   0  0  0  0  0  0  0  0  0  0  0  0
   10.3400    6.1726   14.3081 C   0  0  0  0  0  0  0  0  0  0  0  0
    7.4297    7.5873   24.8962 C   0  0  0  0  0  0  0  0  0  0  0  0
    8.1566   10.0536   16.0516 O   0  0  0  0  0  0  0  0  0  0  0  0
   12.4989    6.2074   20.1776 C   0  0  0  0  0  0  0  0  0  0  0  0
    6.9192    9.1053   20.9073 O   0  0  0  0  0  0  0  0  0  0  0  0
   14.3979    6.0729   18.7784 C   0  0  0  0  0  0  0  0  0  0  0  0
    8.6811    9.5354   16.9998 C   0  0  0  0  0  0  0  0  0  0  0  0
    9.2512    4.2713   13.7653 O   0  0  0  0  0  0  0  0  0  0  0  0
    9.6495    8.6317   16.8332 N   0  0  0  0  0  0  0  0  0  0  0  0
    6.2934    8.6988   23.1988 O   0  0  0  0  0  0  0  0  0  0  0  0
    7.9806    8.6543   20.5437 C   0  0  0  0  0  0  0  0  0  0  0  0
   13.7270    5.7144   19.8610 O   0  0  0  0  0  0  0  0  0  0  0  0
    8.3351    5.5235   15.4478 C   0  0  0  0  0  0  0  0  0  0  0  0
    8.7700    7.8434   21.3915 C   0  0  0  0  0  0  0  0  0  0  0  0
   11.7856    6.8851   19.2401 C   0  0  0  0  0  0  0  0  0  0  0  0
   10.5281    7.4276   19.5649 C   0  0  0  0  0  0  0  0  0  0  0  0
   10.0256    7.2907   20.8484 C   0  0  0  0  0  0  0  0  0  0  0  0
    9.3113    5.3049   14.4911 C   0  0  0  0  0  0  0  0  0  0  0  0
    9.4607    7.5646   16.0139 C   0  0  0  0  0  0  0  0  0  0  0  0
   10.4192    7.3157   15.0955 C   0  0  0  0  0  0  0  0  0  0  0  0
   10.2489    6.4227   23.0218 N   0  0  0  0  0  0  0  0  0  0  0  0
    7.2472    8.0746   23.5050 C   0  0  0  0  0  0  0  0  0  0  0  0
    9.2051    6.9101   23.4604 C   0  0  0  0  0  0  0  0  0  0  0  0
   11.9646    6.0299   21.4251 C   0  0  0  0  0  0  0  0  0  0  0  0
  1  5  1  0
  1 13  1  0
  2 20  2  0
  2 28  1  0
  2 29  1  0
  3 19  4  0
  3 25  4  0
  4 23  4  0
  4 27  1  0
  4 30  4  0
  5 17  1  0
  6  8  1  0
  6 29  1  0
  7 24  4  0
  7 26  4  0
  8 28  1  0
  9 13  2  0
 10 18  1  0
 10 21  4  0
 10 30  4  0
 11 17  2  0
 12 18  1  0
 13 15  1  0
 14 24  1  0
 15 25  1  0
 16 28  2  0
 17 20  1  0
 19 24  4  0
 20 23  1  0
 21 22  4  0
 22 23  4  0
 25 26  4  0
 27 29  2  0
M  END
$$$$

 Created by Python create_sdf_string function

 30 33  0  0  0  0  0  0  0  0999 V2000
    8.3036    9.8571   18.4133 C   0  0  0  0  0  0  0  0  0  0  0  0
    8.3694    7.6612   22.6703 C   0  0  0  0  0  0  0  0  0  0  0  0
    8.4143    6.6863   16.2273 C   0  0  0  0  0  0  0  0  0  0  0  0
   10.7581    6.5674   21.7636 C   0  0  0  0  0  0  0  0  0  0  0  0
    8.4452    8.7960   19.2958 O   0  0  0  0  0  0  0  0  0  0  0  0
    8.7122    6.7842   24.8569 C   0  0  0  0  0  0  0  0  0  0  0  0
   10.3400    6.1726   14.3081 C   0  0  0  0  0  0  0  0  0  0  0  0
    7.4297    7.5873   24.8962 C   0  0  0  0  0  0  0  0  0  0  0  0
    8.1566   10.0536   16.0516 O   0  0  0  0  0  0  0  0  0  0  0  0
   12.4989    6.2074   20.1776 C   0  0  0  0  0  0  0  0  0  0  0  0
    6.9192    9.1053   20.9073 O   0  0  0  0  0  0  0  0  0  0  0  0
   14.3979    6.0729   18.7784 C   0  0  0  0  0  0  0  0  0  0  0  0
    8.6811    9.5354   16.9998 C   0  0  0  0  0  0  0  0  0  0  0  0
    9.2512    4.2713   13.7653 O   0  0  0  0  0  0  0  0  0  0  0  0
    9.6495    8.6317   16.8332 N   0  0  0  0  0  0  0  0  0  0  0  0
    6.2934    8.6988   23.1988 O   0  0  0  0  0  0  0  0  0  0  0  0
    7.9806    8.6543   20.5437 C   0  0  0  0  0  0  0  0  0  0  0  0
   13.7270    5.7144   19.8610 O   0  0  0  0  0  0  0  0  0  0  0  0
    8.3351    5.5235   15.4478 C   0  0  0  0  0  0  0  0  0  0  0  0
    8.7700    7.8434   21.3915 C   0  0  0  0  0  0  0  0  0  0  0  0
   11.7856    6.8851   19.2401 C   0  0  0  0  0  0  0  0  0  0  0  0
   10.5281    7.4276   19.5649 C   0  0  0  0  0  0  0  0  0  0  0  0
   10.0256    7.2907   20.8484 C   0  0  0  0  0  0  0  0  0  0  0  0
    9.3113    5.3049   14.4911 C   0  0  0  0  0  0  0  0  0  0  0  0
    9.4607    7.5646   16.0139 C   0  0  0  0  0  0  0  0  0  0  0  0
   10.4192    7.3157   15.0955 C   0  0  0  0  0  0  0  0  0  0  0  0
   10.2489    6.4227   23.0218 N   0  0  0  0  0  0  0  0  0  0  0  0
    7.2472    8.0746   23.5050 C   0  0  0  0  0  0  0  0  0  0  0  0
    9.2051    6.9101   23.4604 C   0  0  0  0  0  0  0  0  0  0  0  0
   11.9646    6.0299   21.4251 C   0  0  0  0  0  0  0  0  0  0  0  0
  1  5  1  0
  1 13  1  0
  2 20  2  0
  2 28  1  0
  2 29  1  0
  3 19  4  0
  3 25  4  0
  4 23  4  0
  4 27  1  0
  4 30  4  0
  5 17  1  0
  6  8  1  0
  6 29  1  0
  7 24  4  0
  7 26  4  0
  8 28  1  0
  9 13  2  0
 10 18  1  0
 10 21  4  0
 10 30  4  0
 11 17  2  0
 12 18  1  0
 13 15  1  0
 14 24  1  0
 15 25  1  0
 16 28  2  0
 17 20  1  0
 19 24  4  0
 20 23  1  0
 21 22  4  0
 22 23  4  0
 25 26  4  0
 27 29  2  0
M  END
$$$$

 Created by Python create_sdf_string function

 30 33  0  0  0  0  0  0  0  0999 V2000
    8.3036    9.8571   18.4133 C   0  0  0  0  0  0  0  0  0  0  0  0
    8.3694    7.6612   22.6703 C   0  0  0  0  0  0  0  0  0  0  0  0
    8.4143    6.6863   16.2273 C   0  0  0  0  0  0  0  0  0  0  0  0
   10.7581    6.5674   21.7636 C   0  0  0  0  0  0  0  0  0  0  0  0
    8.4452    8.7960   19.2958 O   0  0  0  0  0  0  0  0  0  0  0  0
    8.7122    6.7842   24.8569 C   0  0  0  0  0  0  0  0  0  0  0  0
   10.3400    6.1726   14.3081 C   0  0  0  0  0  0  0  0  0  0  0  0
    7.4297    7.5873   24.8962 C   0  0  0  0  0  0  0  0  0  0  0  0
    8.1566   10.0536   16.0516 O   0  0  0  0  0  0  0  0  0  0  0  0
   12.4989    6.2074   20.1776 C   0  0  0  0  0  0  0  0  0  0  0  0
    6.9192    9.1053   20.9073 O   0  0  0  0  0  0  0  0  0  0  0  0
   14.3979    6.0729   18.7784 C   0  0  0  0  0  0  0  0  0  0  0  0
    8.6811    9.5354   16.9998 C   0  0  0  0  0  0  0  0  0  0  0  0
    9.2512    4.2713   13.7653 O   0  0  0  0  0  0  0  0  0  0  0  0
    9.6495    8.6317   16.8332 N   0  0  0  0  0  0  0  0  0  0  0  0
    6.2934    8.6988   23.1988 O   0  0  0  0  0  0  0  0  0  0  0  0
    7.9806    8.6543   20.5437 C   0  0  0  0  0  0  0  0  0  0  0  0
   13.7270    5.7144   19.8610 O   0  0  0  0  0  0  0  0  0  0  0  0
    8.3351    5.5235   15.4478 C   0  0  0  0  0  0  0  0  0  0  0  0
    8.7700    7.8434   21.3915 C   0  0  0  0  0  0  0  0  0  0  0  0
   11.7856    6.8851   19.2401 C   0  0  0  0  0  0  0  0  0  0  0  0
   10.5281    7.4276   19.5649 C   0  0  0  0  0  0  0  0  0  0  0  0
   10.0256    7.2907   20.8484 C   0  0  0  0  0  0  0  0  0  0  0  0
    9.3113    5.3049   14.4911 C   0  0  0  0  0  0  0  0  0  0  0  0
    9.4607    7.5646   16.0139 C   0  0  0  0  0  0  0  0  0  0  0  0
   10.4192    7.3157   15.0955 C   0  0  0  0  0  0  0  0  0  0  0  0
   10.2489    6.4227   23.0218 N   0  0  0  0  0  0  0  0  0  0  0  0
    7.2472    8.0746   23.5050 C   0  0  0  0  0  0  0  0  0  0  0  0
    9.2051    6.9101   23.4604 C   0  0  0  0  0  0  0  0  0  0  0  0
   11.9646    6.0299   21.4251 C   0  0  0  0  0  0  0  0  0  0  0  0
  1  5  1  0
  1 13  1  0
  2 20  2  0
  2 28  1  0
  2 29  1  0
  3 19  4  0
  3 25  4  0
  4 23  4  0
  4 27  1  0
  4 30  4  0
  5 17  1  0
  6  8  1  0
  6 29  1  0
  7 24  4  0
  7 26  4  0
  8 28  1  0
  9 13  2  0
 10 18  1  0
 10 21  4  0
 10 30  4  0
 11 17  2  0
 12 18  1  0
 13 15  1  0
 14 24  1  0
 15 25  1  0
 16 28  2  0
 17 20  1  0
 19 24  4  0
 20 23  1  0
 21 22  4  0
 22 23  4  0
 25 26  4  0
 27 29  2  0
M  END
$$$$

 Created by Python create_sdf_string function

 30 33  0  0  0  0  0  0  0  0999 V2000
    8.3036    9.8571   18.4133 C   0  0  0  0  0  0  0  0  0  0  0  0
    8.3694    7.6612   22.6703 C   0  0  0  0  0  0  0  0  0  0  0  0
    8.4143    6.6863   16.2273 C   0  0  0  0  0  0  0  0  0  0  0  0
   10.7581    6.5674   21.7636 C   0  0  0  0  0  0  0  0  0  0  0  0
    8.4452    8.7960   19.2958 O   0  0  0  0  0  0  0  0  0  0  0  0
    8.7122    6.7842   24.8569 C   0  0  0  0  0  0  0  0  0  0  0  0
   10.3400    6.1726   14.3081 C   0  0  0  0  0  0  0  0  0  0  0  0
    7.4297    7.5873   24.8962 C   0  0  0  0  0  0  0  0  0  0  0  0
    8.1566   10.0536   16.0516 O   0  0  0  0  0  0  0  0  0  0  0  0
   12.4989    6.2074   20.1776 C   0  0  0  0  0  0  0  0  0  0  0  0
    6.9192    9.1053   20.9073 O   0  0  0  0  0  0  0  0  0  0  0  0
   14.3979    6.0729   18.7784 C   0  0  0  0  0  0  0  0  0  0  0  0
    8.6811    9.5354   16.9998 C   0  0  0  0  0  0  0  0  0  0  0  0
    9.2512    4.2713   13.7653 O   0  0  0  0  0  0  0  0  0  0  0  0
    9.6495    8.6317   16.8332 N   0  0  0  0  0  0  0  0  0  0  0  0
    6.2934    8.6988   23.1988 O   0  0  0  0  0  0  0  0  0  0  0  0
    7.9806    8.6543   20.5437 C   0  0  0  0  0  0  0  0  0  0  0  0
   13.7270    5.7144   19.8610 O   0  0  0  0  0  0  0  0  0  0  0  0
    8.3351    5.5235   15.4478 C   0  0  0  0  0  0  0  0  0  0  0  0
    8.7700    7.8434   21.3915 C   0  0  0  0  0  0  0  0  0  0  0  0
   11.7856    6.8851   19.2401 C   0  0  0  0  0  0  0  0  0  0  0  0
   10.5281    7.4276   19.5649 C   0  0  0  0  0  0  0  0  0  0  0  0
   10.0256    7.2907   20.8484 C   0  0  0  0  0  0  0  0  0  0  0  0
    9.3113    5.3049   14.4911 C   0  0  0  0  0  0  0  0  0  0  0  0
    9.4607    7.5646   16.0139 C   0  0  0  0  0  0  0  0  0  0  0  0
   10.4192    7.3157   15.0955 C   0  0  0  0  0  0  0  0  0  0  0  0
   10.2489    6.4227   23.0218 N   0  0  0  0  0  0  0  0  0  0  0  0
    7.2472    8.0746   23.5050 C   0  0  0  0  0  0  0  0  0  0  0  0
    9.2051    6.9101   23.4604 C   0  0  0  0  0  0  0  0  0  0  0  0
   11.9646    6.0299   21.4251 C   0  0  0  0  0  0  0  0  0  0  0  0
  1  5  1  0
  1 13  1  0
  2 20  2  0
  2 28  1  0
  2 29  1  0
  3 19  4  0
  3 25  4  0
  4 23  4  0
  4 27  1  0
  4 30  4  0
  5 17  1  0
  6  8  1  0
  6 29  1  0
  7 24  4  0
  7 26  4  0
  8 28  1  0
  9 13  2  0
 10 18  1  0
 10 21  4  0
 10 30  4  0
 11 17  2  0
 12 18  1  0
 13 15  1  0
 14 24  1  0
 15 25  1  0
 16 28  2  0
 17 20  1  0
 19 24  4  0
 20 23  1  0
 21 22  4  0
 22 23  4  0
 25 26  4  0
 27 29  2  0
M  END
$$$$

 Created by Python create_sdf_string function

 30 33  0  0  0  0  0  0  0  0999 V2000
    8.3036    9.8571   18.4133 C   0  0  0  0  0  0  0  0  0  0  0  0
    8.3694    7.6612   22.6703 C   0  0  0  0  0  0  0  0  0  0  0  0
    8.4143    6.6863   16.2273 C   0  0  0  0  0  0  0  0  0  0  0  0
   10.7581    6.5674   21.7636 C   0  0  0  0  0  0  0  0  0  0  0  0
    8.4452    8.7960   19.2958 O   0  0  0  0  0  0  0  0  0  0  0  0
    8.7122    6.7842   24.8569 C   0  0  0  0  0  0  0  0  0  0  0  0
   10.3400    6.1726   14.3081 C   0  0  0  0  0  0  0  0  0  0  0  0
    7.4297    7.5873   24.8962 C   0  0  0  0  0  0  0  0  0  0  0  0
    8.1566   10.0536   16.0516 O   0  0  0  0  0  0  0  0  0  0  0  0
   12.4989    6.2074   20.1776 C   0  0  0  0  0  0  0  0  0  0  0  0
    6.9192    9.1053   20.9073 O   0  0  0  0  0  0  0  0  0  0  0  0
   14.3979    6.0729   18.7784 C   0  0  0  0  0  0  0  0  0  0  0  0
    8.6811    9.5354   16.9998 C   0  0  0  0  0  0  0  0  0  0  0  0
    9.2512    4.2713   13.7653 O   0  0  0  0  0  0  0  0  0  0  0  0
    9.6495    8.6317   16.8332 N   0  0  0  0  0  0  0  0  0  0  0  0
    6.2934    8.6988   23.1988 O   0  0  0  0  0  0  0  0  0  0  0  0
    7.9806    8.6543   20.5437 C   0  0  0  0  0  0  0  0  0  0  0  0
   13.7270    5.7144   19.8610 O   0  0  0  0  0  0  0  0  0  0  0  0
    8.3351    5.5235   15.4478 C   0  0  0  0  0  0  0  0  0  0  0  0
    8.7700    7.8434   21.3915 C   0  0  0  0  0  0  0  0  0  0  0  0
   11.7856    6.8851   19.2401 C   0  0  0  0  0  0  0  0  0  0  0  0
   10.5281    7.4276   19.5649 C   0  0  0  0  0  0  0  0  0  0  0  0
   10.0256    7.2907   20.8484 C   0  0  0  0  0  0  0  0  0  0  0  0
    9.3113    5.3049   14.4911 C   0  0  0  0  0  0  0  0  0  0  0  0
    9.4607    7.5646   16.0139 C   0  0  0  0  0  0  0  0  0  0  0  0
   10.4192    7.3157   15.0955 C   0  0  0  0  0  0  0  0  0  0  0  0
   10.2489    6.4227   23.0218 N   0  0  0  0  0  0  0  0  0  0  0  0
    7.2472    8.0746   23.5050 C   0  0  0  0  0  0  0  0  0  0  0  0
    9.2051    6.9101   23.4604 C   0  0  0  0  0  0  0  0  0  0  0  0
   11.9646    6.0299   21.4251 C   0  0  0  0  0  0  0  0  0  0  0  0
  1  5  1  0
  1 13  1  0
  2 20  2  0
  2 28  1  0
  2 29  1  0
  3 19  4  0
  3 25  4  0
  4 23  4  0
  4 27  1  0
  4 30  4  0
  5 17  1  0
  6  8  1  0
  6 29  1  0
  7 24  4  0
  7 26  4  0
  8 28  1  0
  9 13  2  0
 10 18  1  0
 10 21  4  0
 10 30  4  0
 11 17  2  0
 12 18  1  0
 13 15  1  0
 14 24  1  0
 15 25  1  0
 16 28  2  0
 17 20  1  0
 19 24  4  0
 20 23  1  0
 21 22  4  0
 22 23  4  0
 25 26  4  0
 27 29  2  0
M  END
$$$$

 Created by Python create_sdf_string function

 30 33  0  0  0  0  0  0  0  0999 V2000
    8.3036    9.8571   18.4133 C   0  0  0  0  0  0  0  0  0  0  0  0
    8.3694    7.6612   22.6703 C   0  0  0  0  0  0  0  0  0  0  0  0
    8.4143    6.6863   16.2273 C   0  0  0  0  0  0  0  0  0  0  0  0
   10.7581    6.5674   21.7636 C   0  0  0  0  0  0  0  0  0  0  0  0
    8.4452    8.7960   19.2958 O   0  0  0  0  0  0  0  0  0  0  0  0
    8.7122    6.7842   24.8569 C   0  0  0  0  0  0  0  0  0  0  0  0
   10.3400    6.1726   14.3081 C   0  0  0  0  0  0  0  0  0  0  0  0
    7.4297    7.5873   24.8962 C   0  0  0  0  0  0  0  0  0  0  0  0
    8.1566   10.0536   16.0516 O   0  0  0  0  0  0  0  0  0  0  0  0
   12.4989    6.2074   20.1776 C   0  0  0  0  0  0  0  0  0  0  0  0
    6.9192    9.1053   20.9073 O   0  0  0  0  0  0  0  0  0  0  0  0
   14.3979    6.0729   18.7784 C   0  0  0  0  0  0  0  0  0  0  0  0
    8.6811    9.5354   16.9998 C   0  0  0  0  0  0  0  0  0  0  0  0
    9.2512    4.2713   13.7653 O   0  0  0  0  0  0  0  0  0  0  0  0
    9.6495    8.6317   16.8332 N   0  0  0  0  0  0  0  0  0  0  0  0
    6.2934    8.6988   23.1988 O   0  0  0  0  0  0  0  0  0  0  0  0
    7.9806    8.6543   20.5437 C   0  0  0  0  0  0  0  0  0  0  0  0
   13.7270    5.7144   19.8610 O   0  0  0  0  0  0  0  0  0  0  0  0
    8.3351    5.5235   15.4478 C   0  0  0  0  0  0  0  0  0  0  0  0
    8.7700    7.8434   21.3915 C   0  0  0  0  0  0  0  0  0  0  0  0
   11.7856    6.8851   19.2401 C   0  0  0  0  0  0  0  0  0  0  0  0
   10.5281    7.4276   19.5649 C   0  0  0  0  0  0  0  0  0  0  0  0
   10.0256    7.2907   20.8484 C   0  0  0  0  0  0  0  0  0  0  0  0
    9.3113    5.3049   14.4911 C   0  0  0  0  0  0  0  0  0  0  0  0
    9.4607    7.5646   16.0139 C   0  0  0  0  0  0  0  0  0  0  0  0
   10.4192    7.3157   15.0955 C   0  0  0  0  0  0  0  0  0  0  0  0
   10.2489    6.4227   23.0218 N   0  0  0  0  0  0  0  0  0  0  0  0
    7.2472    8.0746   23.5050 C   0  0  0  0  0  0  0  0  0  0  0  0
    9.2051    6.9101   23.4604 C   0  0  0  0  0  0  0  0  0  0  0  0
   11.9646    6.0299   21.4251 C   0  0  0  0  0  0  0  0  0  0  0  0
  1  5  1  0
  1 13  1  0
  2 20  2  0
  2 28  1  0
  2 29  1  0
  3 19  4  0
  3 25  4  0
  4 23  4  0
  4 27  1  0
  4 30  4  0
  5 17  1  0
  6  8  1  0
  6 29  1  0
  7 24  4  0
  7 26  4  0
  8 28  1  0
  9 13  2  0
 10 18  1  0
 10 21  4  0
 10 30  4  0
 11 17  2  0
 12 18  1  0
 13 15  1  0
 14 24  1  0
 15 25  1  0
 16 28  2  0
 17 20  1  0
 19 24  4  0
 20 23  1  0
 21 22  4  0
 22 23  4  0
 25 26  4  0
 27 29  2  0
M  END
$$$$

 Created by Python create_sdf_string function

 30 33  0  0  0  0  0  0  0  0999 V2000
    8.3036    9.8571   18.4133 C   0  0  0  0  0  0  0  0  0  0  0  0
    8.3694    7.6612   22.6703 C   0  0  0  0  0  0  0  0  0  0  0  0
    8.4143    6.6863   16.2273 C   0  0  0  0  0  0  0  0  0  0  0  0
   10.7581    6.5674   21.7636 C   0  0  0  0  0  0  0  0  0  0  0  0
    8.4452    8.7960   19.2958 O   0  0  0  0  0  0  0  0  0  0  0  0
    8.7122    6.7842   24.8569 C   0  0  0  0  0  0  0  0  0  0  0  0
   10.3400    6.1726   14.3081 C   0  0  0  0  0  0  0  0  0  0  0  0
    7.4297    7.5873   24.8962 C   0  0  0  0  0  0  0  0  0  0  0  0
    8.1566   10.0536   16.0516 O   0  0  0  0  0  0  0  0  0  0  0  0
   12.4989    6.2074   20.1776 C   0  0  0  0  0  0  0  0  0  0  0  0
    6.9192    9.1053   20.9073 O   0  0  0  0  0  0  0  0  0  0  0  0
   14.3979    6.0729   18.7784 C   0  0  0  0  0  0  0  0  0  0  0  0
    8.6811    9.5354   16.9998 C   0  0  0  0  0  0  0  0  0  0  0  0
    9.2512    4.2713   13.7653 O   0  0  0  0  0  0  0  0  0  0  0  0
    9.6495    8.6317   16.8332 N   0  0  0  0  0  0  0  0  0  0  0  0
    6.2934    8.6988   23.1988 O   0  0  0  0  0  0  0  0  0  0  0  0
    7.9806    8.6543   20.5437 C   0  0  0  0  0  0  0  0  0  0  0  0
   13.7270    5.7144   19.8610 O   0  0  0  0  0  0  0  0  0  0  0  0
    8.3351    5.5235   15.4478 C   0  0  0  0  0  0  0  0  0  0  0  0
    8.7700    7.8434   21.3915 C   0  0  0  0  0  0  0  0  0  0  0  0
   11.7856    6.8851   19.2401 C   0  0  0  0  0  0  0  0  0  0  0  0
   10.5281    7.4276   19.5649 C   0  0  0  0  0  0  0  0  0  0  0  0
   10.0256    7.2907   20.8484 C   0  0  0  0  0  0  0  0  0  0  0  0
    9.3113    5.3049   14.4911 C   0  0  0  0  0  0  0  0  0  0  0  0
    9.4607    7.5646   16.0139 C   0  0  0  0  0  0  0  0  0  0  0  0
   10.4192    7.3157   15.0955 C   0  0  0  0  0  0  0  0  0  0  0  0
   10.2489    6.4227   23.0218 N   0  0  0  0  0  0  0  0  0  0  0  0
    7.2472    8.0746   23.5050 C   0  0  0  0  0  0  0  0  0  0  0  0
    9.2051    6.9101   23.4604 C   0  0  0  0  0  0  0  0  0  0  0  0
   11.9646    6.0299   21.4251 C   0  0  0  0  0  0  0  0  0  0  0  0
  1  5  1  0
  1 13  1  0
  2 20  2  0
  2 28  1  0
  2 29  1  0
  3 19  4  0
  3 25  4  0
  4 23  4  0
  4 27  1  0
  4 30  4  0
  5 17  1  0
  6  8  1  0
  6 29  1  0
  7 24  4  0
  7 26  4  0
  8 28  1  0
  9 13  2  0
 10 18  1  0
 10 21  4  0
 10 30  4  0
 11 17  2  0
 12 18  1  0
 13 15  1  0
 14 24  1  0
 15 25  1  0
 16 28  2  0
 17 20  1  0
 19 24  4  0
 20 23  1  0
 21 22  4  0
 22 23  4  0
 25 26  4  0
 27 29  2  0
M  END
$$$$

 Created by Python create_sdf_string function

 30 33  0  0  0  0  0  0  0  0999 V2000
    8.3036    9.8571   18.4133 C   0  0  0  0  0  0  0  0  0  0  0  0
    8.3694    7.6612   22.6703 C   0  0  0  0  0  0  0  0  0  0  0  0
    8.4143    6.6863   16.2273 C   0  0  0  0  0  0  0  0  0  0  0  0
   10.7581    6.5674   21.7636 C   0  0  0  0  0  0  0  0  0  0  0  0
    8.4452    8.7960   19.2958 O   0  0  0  0  0  0  0  0  0  0  0  0
    8.7122    6.7842   24.8569 C   0  0  0  0  0  0  0  0  0  0  0  0
   10.3400    6.1726   14.3081 C   0  0  0  0  0  0  0  0  0  0  0  0
    7.4297    7.5873   24.8962 C   0  0  0  0  0  0  0  0  0  0  0  0
    8.1566   10.0536   16.0516 O   0  0  0  0  0  0  0  0  0  0  0  0
   12.4989    6.2074   20.1776 C   0  0  0  0  0  0  0  0  0  0  0  0
    6.9192    9.1053   20.9073 O   0  0  0  0  0  0  0  0  0  0  0  0
   14.3979    6.0729   18.7784 C   0  0  0  0  0  0  0  0  0  0  0  0
    8.6811    9.5354   16.9998 C   0  0  0  0  0  0  0  0  0  0  0  0
    9.2512    4.2713   13.7653 O   0  0  0  0  0  0  0  0  0  0  0  0
    9.6495    8.6317   16.8332 N   0  0  0  0  0  0  0  0  0  0  0  0
    6.2934    8.6988   23.1988 O   0  0  0  0  0  0  0  0  0  0  0  0
    7.9806    8.6543   20.5437 C   0  0  0  0  0  0  0  0  0  0  0  0
   13.7270    5.7144   19.8610 O   0  0  0  0  0  0  0  0  0  0  0  0
    8.3351    5.5235   15.4478 C   0  0  0  0  0  0  0  0  0  0  0  0
    8.7700    7.8434   21.3915 C   0  0  0  0  0  0  0  0  0  0  0  0
   11.7856    6.8851   19.2401 C   0  0  0  0  0  0  0  0  0  0  0  0
   10.5281    7.4276   19.5649 C   0  0  0  0  0  0  0  0  0  0  0  0
   10.0256    7.2907   20.8484 C   0  0  0  0  0  0  0  0  0  0  0  0
    9.3113    5.3049   14.4911 C   0  0  0  0  0  0  0  0  0  0  0  0
    9.4607    7.5646   16.0139 C   0  0  0  0  0  0  0  0  0  0  0  0
   10.4192    7.3157   15.0955 C   0  0  0  0  0  0  0  0  0  0  0  0
   10.2489    6.4227   23.0218 N   0  0  0  0  0  0  0  0  0  0  0  0
    7.2472    8.0746   23.5050 C   0  0  0  0  0  0  0  0  0  0  0  0
    9.2051    6.9101   23.4604 C   0  0  0  0  0  0  0  0  0  0  0  0
   11.9646    6.0299   21.4251 C   0  0  0  0  0  0  0  0  0  0  0  0
  1  5  1  0
  1 13  1  0
  2 20  2  0
  2 28  1  0
  2 29  1  0
  3 19  4  0
  3 25  4  0
  4 23  4  0
  4 27  1  0
  4 30  4  0
  5 17  1  0
  6  8  1  0
  6 29  1  0
  7 24  4  0
  7 26  4  0
  8 28  1  0
  9 13  2  0
 10 18  1  0
 10 21  4  0
 10 30  4  0
 11 17  2  0
 12 18  1  0
 13 15  1  0
 14 24  1  0
 15 25  1  0
 16 28  2  0
 17 20  1  0
 19 24  4  0
 20 23  1  0
 21 22  4  0
 22 23  4  0
 25 26  4  0
 27 29  2  0
M  END
$$$$

 Created by Python create_sdf_string function

 30 33  0  0  0  0  0  0  0  0999 V2000
    8.3036    9.8571   18.4133 C   0  0  0  0  0  0  0  0  0  0  0  0
    8.3694    7.6612   22.6703 C   0  0  0  0  0  0  0  0  0  0  0  0
    8.4143    6.6863   16.2273 C   0  0  0  0  0  0  0  0  0  0  0  0
   10.7581    6.5674   21.7636 C   0  0  0  0  0  0  0  0  0  0  0  0
    8.4452    8.7960   19.2958 O   0  0  0  0  0  0  0  0  0  0  0  0
    8.7122    6.7842   24.8569 C   0  0  0  0  0  0  0  0  0  0  0  0
   10.3400    6.1726   14.3081 C   0  0  0  0  0  0  0  0  0  0  0  0
    7.4297    7.5873   24.8962 C   0  0  0  0  0  0  0  0  0  0  0  0
    8.1566   10.0536   16.0516 O   0  0  0  0  0  0  0  0  0  0  0  0
   12.4989    6.2074   20.1776 C   0  0  0  0  0  0  0  0  0  0  0  0
    6.9192    9.1053   20.9073 O   0  0  0  0  0  0  0  0  0  0  0  0
   14.3979    6.0729   18.7784 C   0  0  0  0  0  0  0  0  0  0  0  0
    8.6811    9.5354   16.9998 C   0  0  0  0  0  0  0  0  0  0  0  0
    9.2512    4.2713   13.7653 O   0  0  0  0  0  0  0  0  0  0  0  0
    9.6495    8.6317   16.8332 N   0  0  0  0  0  0  0  0  0  0  0  0
    6.2934    8.6988   23.1988 O   0  0  0  0  0  0  0  0  0  0  0  0
    7.9806    8.6543   20.5437 C   0  0  0  0  0  0  0  0  0  0  0  0
   13.7270    5.7144   19.8610 O   0  0  0  0  0  0  0  0  0  0  0  0
    8.3351    5.5235   15.4478 C   0  0  0  0  0  0  0  0  0  0  0  0
    8.7700    7.8434   21.3915 C   0  0  0  0  0  0  0  0  0  0  0  0
   11.7856    6.8851   19.2401 C   0  0  0  0  0  0  0  0  0  0  0  0
   10.5281    7.4276   19.5649 C   0  0  0  0  0  0  0  0  0  0  0  0
   10.0256    7.2907   20.8484 C   0  0  0  0  0  0  0  0  0  0  0  0
    9.3113    5.3049   14.4911 C   0  0  0  0  0  0  0  0  0  0  0  0
    9.4607    7.5646   16.0139 C   0  0  0  0  0  0  0  0  0  0  0  0
   10.4192    7.3157   15.0955 C   0  0  0  0  0  0  0  0  0  0  0  0
   10.2489    6.4227   23.0218 N   0  0  0  0  0  0  0  0  0  0  0  0
    7.2472    8.0746   23.5050 C   0  0  0  0  0  0  0  0  0  0  0  0
    9.2051    6.9101   23.4604 C   0  0  0  0  0  0  0  0  0  0  0  0
   11.9646    6.0299   21.4251 C   0  0  0  0  0  0  0  0  0  0  0  0
  1  5  1  0
  1 13  1  0
  2 20  2  0
  2 28  1  0
  2 29  1  0
  3 19  4  0
  3 25  4  0
  4 23  4  0
  4 27  1  0
  4 30  4  0
  5 17  1  0
  6  8  1  0
  6 29  1  0
  7 24  4  0
  7 26  4  0
  8 28  1  0
  9 13  2  0
 10 18  1  0
 10 21  4  0
 10 30  4  0
 11 17  2  0
 12 18  1  0
 13 15  1  0
 14 24  1  0
 15 25  1  0
 16 28  2  0
 17 20  1  0
 19 24  4  0
 20 23  1  0
 21 22  4  0
 22 23  4  0
 25 26  4  0
 27 29  2  0
M  END
$$$$

 Created by Python create_sdf_string function

 30 33  0  0  0  0  0  0  0  0999 V2000
    8.3036    9.8571   18.4133 C   0  0  0  0  0  0  0  0  0  0  0  0
    8.3694    7.6612   22.6703 C   0  0  0  0  0  0  0  0  0  0  0  0
    8.4143    6.6863   16.2273 C   0  0  0  0  0  0  0  0  0  0  0  0
   10.7581    6.5674   21.7636 C   0  0  0  0  0  0  0  0  0  0  0  0
    8.4452    8.7960   19.2958 O   0  0  0  0  0  0  0  0  0  0  0  0
    8.7122    6.7842   24.8569 C   0  0  0  0  0  0  0  0  0  0  0  0
   10.3400    6.1726   14.3081 C   0  0  0  0  0  0  0  0  0  0  0  0
    7.4297    7.5873   24.8962 C   0  0  0  0  0  0  0  0  0  0  0  0
    8.1566   10.0536   16.0516 O   0  0  0  0  0  0  0  0  0  0  0  0
   12.4989    6.2074   20.1776 C   0  0  0  0  0  0  0  0  0  0  0  0
    6.9192    9.1053   20.9073 O   0  0  0  0  0  0  0  0  0  0  0  0
   14.3979    6.0729   18.7784 C   0  0  0  0  0  0  0  0  0  0  0  0
    8.6811    9.5354   16.9998 C   0  0  0  0  0  0  0  0  0  0  0  0
    9.2512    4.2713   13.7653 O   0  0  0  0  0  0  0  0  0  0  0  0
    9.6495    8.6317   16.8332 N   0  0  0  0  0  0  0  0  0  0  0  0
    6.2934    8.6988   23.1988 O   0  0  0  0  0  0  0  0  0  0  0  0
    7.9806    8.6543   20.5437 C   0  0  0  0  0  0  0  0  0  0  0  0
   13.7270    5.7144   19.8610 O   0  0  0  0  0  0  0  0  0  0  0  0
    8.3351    5.5235   15.4478 C   0  0  0  0  0  0  0  0  0  0  0  0
    8.7700    7.8434   21.3915 C   0  0  0  0  0  0  0  0  0  0  0  0
   11.7856    6.8851   19.2401 C   0  0  0  0  0  0  0  0  0  0  0  0
   10.5281    7.4276   19.5649 C   0  0  0  0  0  0  0  0  0  0  0  0
   10.0256    7.2907   20.8484 C   0  0  0  0  0  0  0  0  0  0  0  0
    9.3113    5.3049   14.4911 C   0  0  0  0  0  0  0  0  0  0  0  0
    9.4607    7.5646   16.0139 C   0  0  0  0  0  0  0  0  0  0  0  0
   10.4192    7.3157   15.0955 C   0  0  0  0  0  0  0  0  0  0  0  0
   10.2489    6.4227   23.0218 N   0  0  0  0  0  0  0  0  0  0  0  0
    7.2472    8.0746   23.5050 C   0  0  0  0  0  0  0  0  0  0  0  0
    9.2051    6.9101   23.4604 C   0  0  0  0  0  0  0  0  0  0  0  0
   11.9646    6.0299   21.4251 C   0  0  0  0  0  0  0  0  0  0  0  0
  1  5  1  0
  1 13  1  0
  2 20  2  0
  2 28  1  0
  2 29  1  0
  3 19  4  0
  3 25  4  0
  4 23  4  0
  4 27  1  0
  4 30  4  0
  5 17  1  0
  6  8  1  0
  6 29  1  0
  7 24  4  0
  7 26  4  0
  8 28  1  0
  9 13  2  0
 10 18  1  0
 10 21  4  0
 10 30  4  0
 11 17  2  0
 12 18  1  0
 13 15  1  0
 14 24  1  0
 15 25  1  0
 16 28  2  0
 17 20  1  0
 19 24  4  0
 20 23  1  0
 21 22  4  0
 22 23  4  0
 25 26  4  0
 27 29  2  0
M  END
$$$$

 Created by Python create_sdf_string function

 30 33  0  0  0  0  0  0  0  0999 V2000
    8.3036    9.8571   18.4133 C   0  0  0  0  0  0  0  0  0  0  0  0
    8.3694    7.6612   22.6703 C   0  0  0  0  0  0  0  0  0  0  0  0
    8.4143    6.6863   16.2273 C   0  0  0  0  0  0  0  0  0  0  0  0
   10.7581    6.5674   21.7636 C   0  0  0  0  0  0  0  0  0  0  0  0
    8.4452    8.7960   19.2958 O   0  0  0  0  0  0  0  0  0  0  0  0
    8.7122    6.7842   24.8569 C   0  0  0  0  0  0  0  0  0  0  0  0
   10.3400    6.1726   14.3081 C   0  0  0  0  0  0  0  0  0  0  0  0
    7.4297    7.5873   24.8962 C   0  0  0  0  0  0  0  0  0  0  0  0
    8.1566   10.0536   16.0516 O   0  0  0  0  0  0  0  0  0  0  0  0
   12.4989    6.2074   20.1776 C   0  0  0  0  0  0  0  0  0  0  0  0
    6.9192    9.1053   20.9073 O   0  0  0  0  0  0  0  0  0  0  0  0
   14.3979    6.0729   18.7784 C   0  0  0  0  0  0  0  0  0  0  0  0
    8.6811    9.5354   16.9998 C   0  0  0  0  0  0  0  0  0  0  0  0
    9.2512    4.2713   13.7653 O   0  0  0  0  0  0  0  0  0  0  0  0
    9.6495    8.6317   16.8332 N   0  0  0  0  0  0  0  0  0  0  0  0
    6.2934    8.6988   23.1988 O   0  0  0  0  0  0  0  0  0  0  0  0
    7.9806    8.6543   20.5437 C   0  0  0  0  0  0  0  0  0  0  0  0
   13.7270    5.7144   19.8610 O   0  0  0  0  0  0  0  0  0  0  0  0
    8.3351    5.5235   15.4478 C   0  0  0  0  0  0  0  0  0  0  0  0
    8.7700    7.8434   21.3915 C   0  0  0  0  0  0  0  0  0  0  0  0
   11.7856    6.8851   19.2401 C   0  0  0  0  0  0  0  0  0  0  0  0
   10.5281    7.4276   19.5649 C   0  0  0  0  0  0  0  0  0  0  0  0
   10.0256    7.2907   20.8484 C   0  0  0  0  0  0  0  0  0  0  0  0
    9.3113    5.3049   14.4911 C   0  0  0  0  0  0  0  0  0  0  0  0
    9.4607    7.5646   16.0139 C   0  0  0  0  0  0  0  0  0  0  0  0
   10.4192    7.3157   15.0955 C   0  0  0  0  0  0  0  0  0  0  0  0
   10.2489    6.4227   23.0218 N   0  0  0  0  0  0  0  0  0  0  0  0
    7.2472    8.0746   23.5050 C   0  0  0  0  0  0  0  0  0  0  0  0
    9.2051    6.9101   23.4604 C   0  0  0  0  0  0  0  0  0  0  0  0
   11.9646    6.0299   21.4251 C   0  0  0  0  0  0  0  0  0  0  0  0
  1  5  1  0
  1 13  1  0
  2 20  2  0
  2 28  1  0
  2 29  1  0
  3 19  4  0
  3 25  4  0
  4 23  4  0
  4 27  1  0
  4 30  4  0
  5 17  1  0
  6  8  1  0
  6 29  1  0
  7 24  4  0
  7 26  4  0
  8 28  1  0
  9 13  2  0
 10 18  1  0
 10 21  4  0
 10 30  4  0
 11 17  2  0
 12 18  1  0
 13 15  1  0
 14 24  1  0
 15 25  1  0
 16 28  2  0
 17 20  1  0
 19 24  4  0
 20 23  1  0
 21 22  4  0
 22 23  4  0
 25 26  4  0
 27 29  2  0
M  END
$$$$

 Created by Python create_sdf_string function

 30 33  0  0  0  0  0  0  0  0999 V2000
    8.3036    9.8571   18.4133 C   0  0  0  0  0  0  0  0  0  0  0  0
    8.3694    7.6612   22.6703 C   0  0  0  0  0  0  0  0  0  0  0  0
    8.4143    6.6863   16.2273 C   0  0  0  0  0  0  0  0  0  0  0  0
   10.7581    6.5674   21.7636 C   0  0  0  0  0  0  0  0  0  0  0  0
    8.4452    8.7960   19.2958 O   0  0  0  0  0  0  0  0  0  0  0  0
    8.7122    6.7842   24.8569 C   0  0  0  0  0  0  0  0  0  0  0  0
   10.3400    6.1726   14.3081 C   0  0  0  0  0  0  0  0  0  0  0  0
    7.4297    7.5873   24.8962 C   0  0  0  0  0  0  0  0  0  0  0  0
    8.1566   10.0536   16.0516 O   0  0  0  0  0  0  0  0  0  0  0  0
   12.4989    6.2074   20.1776 C   0  0  0  0  0  0  0  0  0  0  0  0
    6.9192    9.1053   20.9073 O   0  0  0  0  0  0  0  0  0  0  0  0
   14.3979    6.0729   18.7784 C   0  0  0  0  0  0  0  0  0  0  0  0
    8.6811    9.5354   16.9998 C   0  0  0  0  0  0  0  0  0  0  0  0
    9.2512    4.2713   13.7653 O   0  0  0  0  0  0  0  0  0  0  0  0
    9.6495    8.6317   16.8332 N   0  0  0  0  0  0  0  0  0  0  0  0
    6.2934    8.6988   23.1988 O   0  0  0  0  0  0  0  0  0  0  0  0
    7.9806    8.6543   20.5437 C   0  0  0  0  0  0  0  0  0  0  0  0
   13.7270    5.7144   19.8610 O   0  0  0  0  0  0  0  0  0  0  0  0
    8.3351    5.5235   15.4478 C   0  0  0  0  0  0  0  0  0  0  0  0
    8.7700    7.8434   21.3915 C   0  0  0  0  0  0  0  0  0  0  0  0
   11.7856    6.8851   19.2401 C   0  0  0  0  0  0  0  0  0  0  0  0
   10.5281    7.4276   19.5649 C   0  0  0  0  0  0  0  0  0  0  0  0
   10.0256    7.2907   20.8484 C   0  0  0  0  0  0  0  0  0  0  0  0
    9.3113    5.3049   14.4911 C   0  0  0  0  0  0  0  0  0  0  0  0
    9.4607    7.5646   16.0139 C   0  0  0  0  0  0  0  0  0  0  0  0
   10.4192    7.3157   15.0955 C   0  0  0  0  0  0  0  0  0  0  0  0
   10.2489    6.4227   23.0218 N   0  0  0  0  0  0  0  0  0  0  0  0
    7.2472    8.0746   23.5050 C   0  0  0  0  0  0  0  0  0  0  0  0
    9.2051    6.9101   23.4604 C   0  0  0  0  0  0  0  0  0  0  0  0
   11.9646    6.0299   21.4251 C   0  0  0  0  0  0  0  0  0  0  0  0
  1  5  1  0
  1 13  1  0
  2 20  2  0
  2 28  1  0
  2 29  1  0
  3 19  4  0
  3 25  4  0
  4 23  4  0
  4 27  1  0
  4 30  4  0
  5 17  1  0
  6  8  1  0
  6 29  1  0
  7 24  4  0
  7 26  4  0
  8 28  1  0
  9 13  2  0
 10 18  1  0
 10 21  4  0
 10 30  4  0
 11 17  2  0
 12 18  1  0
 13 15  1  0
 14 24  1  0
 15 25  1  0
 16 28  2  0
 17 20  1  0
 19 24  4  0
 20 23  1  0
 21 22  4  0
 22 23  4  0
 25 26  4  0
 27 29  2  0
M  END
$$$$

 Created by Python create_sdf_string function

 30 33  0  0  0  0  0  0  0  0999 V2000
    8.3036    9.8571   18.4133 C   0  0  0  0  0  0  0  0  0  0  0  0
    8.3694    7.6612   22.6703 C   0  0  0  0  0  0  0  0  0  0  0  0
    8.4143    6.6863   16.2273 C   0  0  0  0  0  0  0  0  0  0  0  0
   10.7581    6.5674   21.7636 C   0  0  0  0  0  0  0  0  0  0  0  0
    8.4452    8.7960   19.2958 O   0  0  0  0  0  0  0  0  0  0  0  0
    8.7122    6.7842   24.8569 C   0  0  0  0  0  0  0  0  0  0  0  0
   10.3400    6.1726   14.3081 C   0  0  0  0  0  0  0  0  0  0  0  0
    7.4297    7.5873   24.8962 C   0  0  0  0  0  0  0  0  0  0  0  0
    8.1566   10.0536   16.0516 O   0  0  0  0  0  0  0  0  0  0  0  0
   12.4989    6.2074   20.1776 C   0  0  0  0  0  0  0  0  0  0  0  0
    6.9192    9.1053   20.9073 O   0  0  0  0  0  0  0  0  0  0  0  0
   14.3979    6.0729   18.7784 C   0  0  0  0  0  0  0  0  0  0  0  0
    8.6811    9.5354   16.9998 C   0  0  0  0  0  0  0  0  0  0  0  0
    9.2512    4.2713   13.7653 O   0  0  0  0  0  0  0  0  0  0  0  0
    9.6495    8.6317   16.8332 N   0  0  0  0  0  0  0  0  0  0  0  0
    6.2934    8.6988   23.1988 O   0  0  0  0  0  0  0  0  0  0  0  0
    7.9806    8.6543   20.5437 C   0  0  0  0  0  0  0  0  0  0  0  0
   13.7270    5.7144   19.8610 O   0  0  0  0  0  0  0  0  0  0  0  0
    8.3351    5.5235   15.4478 C   0  0  0  0  0  0  0  0  0  0  0  0
    8.7700    7.8434   21.3915 C   0  0  0  0  0  0  0  0  0  0  0  0
   11.7856    6.8851   19.2401 C   0  0  0  0  0  0  0  0  0  0  0  0
   10.5281    7.4276   19.5649 C   0  0  0  0  0  0  0  0  0  0  0  0
   10.0256    7.2907   20.8484 C   0  0  0  0  0  0  0  0  0  0  0  0
    9.3113    5.3049   14.4911 C   0  0  0  0  0  0  0  0  0  0  0  0
    9.4607    7.5646   16.0139 C   0  0  0  0  0  0  0  0  0  0  0  0
   10.4192    7.3157   15.0955 C   0  0  0  0  0  0  0  0  0  0  0  0
   10.2489    6.4227   23.0218 N   0  0  0  0  0  0  0  0  0  0  0  0
    7.2472    8.0746   23.5050 C   0  0  0  0  0  0  0  0  0  0  0  0
    9.2051    6.9101   23.4604 C   0  0  0  0  0  0  0  0  0  0  0  0
   11.9646    6.0299   21.4251 C   0  0  0  0  0  0  0  0  0  0  0  0
  1  5  1  0
  1 13  1  0
  2 20  2  0
  2 28  1  0
  2 29  1  0
  3 19  4  0
  3 25  4  0
  4 23  4  0
  4 27  1  0
  4 30  4  0
  5 17  1  0
  6  8  1  0
  6 29  1  0
  7 24  4  0
  7 26  4  0
  8 28  1  0
  9 13  2  0
 10 18  1  0
 10 21  4  0
 10 30  4  0
 11 17  2  0
 12 18  1  0
 13 15  1  0
 14 24  1  0
 15 25  1  0
 16 28  2  0
 17 20  1  0
 19 24  4  0
 20 23  1  0
 21 22  4  0
 22 23  4  0
 25 26  4  0
 27 29  2  0
M  END
$$$$

 Created by Python create_sdf_string function

 30 33  0  0  0  0  0  0  0  0999 V2000
    8.3036    9.8571   18.4133 C   0  0  0  0  0  0  0  0  0  0  0  0
    8.3694    7.6612   22.6703 C   0  0  0  0  0  0  0  0  0  0  0  0
    8.4143    6.6863   16.2273 C   0  0  0  0  0  0  0  0  0  0  0  0
   10.7581    6.5674   21.7636 C   0  0  0  0  0  0  0  0  0  0  0  0
    8.4452    8.7960   19.2958 O   0  0  0  0  0  0  0  0  0  0  0  0
    8.7122    6.7842   24.8569 C   0  0  0  0  0  0  0  0  0  0  0  0
   10.3400    6.1726   14.3081 C   0  0  0  0  0  0  0  0  0  0  0  0
    7.4297    7.5873   24.8962 C   0  0  0  0  0  0  0  0  0  0  0  0
    8.1566   10.0536   16.0516 O   0  0  0  0  0  0  0  0  0  0  0  0
   12.4989    6.2074   20.1776 C   0  0  0  0  0  0  0  0  0  0  0  0
    6.9192    9.1053   20.9073 O   0  0  0  0  0  0  0  0  0  0  0  0
   14.3979    6.0729   18.7784 C   0  0  0  0  0  0  0  0  0  0  0  0
    8.6811    9.5354   16.9998 C   0  0  0  0  0  0  0  0  0  0  0  0
    9.2512    4.2713   13.7653 O   0  0  0  0  0  0  0  0  0  0  0  0
    9.6495    8.6317   16.8332 N   0  0  0  0  0  0  0  0  0  0  0  0
    6.2934    8.6988   23.1988 O   0  0  0  0  0  0  0  0  0  0  0  0
    7.9806    8.6543   20.5437 C   0  0  0  0  0  0  0  0  0  0  0  0
   13.7270    5.7144   19.8610 O   0  0  0  0  0  0  0  0  0  0  0  0
    8.3351    5.5235   15.4478 C   0  0  0  0  0  0  0  0  0  0  0  0
    8.7700    7.8434   21.3915 C   0  0  0  0  0  0  0  0  0  0  0  0
   11.7856    6.8851   19.2401 C   0  0  0  0  0  0  0  0  0  0  0  0
   10.5281    7.4276   19.5649 C   0  0  0  0  0  0  0  0  0  0  0  0
   10.0256    7.2907   20.8484 C   0  0  0  0  0  0  0  0  0  0  0  0
    9.3113    5.3049   14.4911 C   0  0  0  0  0  0  0  0  0  0  0  0
    9.4607    7.5646   16.0139 C   0  0  0  0  0  0  0  0  0  0  0  0
   10.4192    7.3157   15.0955 C   0  0  0  0  0  0  0  0  0  0  0  0
   10.2489    6.4227   23.0218 N   0  0  0  0  0  0  0  0  0  0  0  0
    7.2472    8.0746   23.5050 C   0  0  0  0  0  0  0  0  0  0  0  0
    9.2051    6.9101   23.4604 C   0  0  0  0  0  0  0  0  0  0  0  0
   11.9646    6.0299   21.4251 C   0  0  0  0  0  0  0  0  0  0  0  0
  1  5  1  0
  1 13  1  0
  2 20  2  0
  2 28  1  0
  2 29  1  0
  3 19  4  0
  3 25  4  0
  4 23  4  0
  4 27  1  0
  4 30  4  0
  5 17  1  0
  6  8  1  0
  6 29  1  0
  7 24  4  0
  7 26  4  0
  8 28  1  0
  9 13  2  0
 10 18  1  0
 10 21  4  0
 10 30  4  0
 11 17  2  0
 12 18  1  0
 13 15  1  0
 14 24  1  0
 15 25  1  0
 16 28  2  0
 17 20  1  0
 19 24  4  0
 20 23  1  0
 21 22  4  0
 22 23  4  0
 25 26  4  0
 27 29  2  0
M  END
$$$$

 Created by Python create_sdf_string function

 30 33  0  0  0  0  0  0  0  0999 V2000
    8.3036    9.8571   18.4133 C   0  0  0  0  0  0  0  0  0  0  0  0
    8.3694    7.6612   22.6703 C   0  0  0  0  0  0  0  0  0  0  0  0
    8.4143    6.6863   16.2273 C   0  0  0  0  0  0  0  0  0  0  0  0
   10.7581    6.5674   21.7636 C   0  0  0  0  0  0  0  0  0  0  0  0
    8.4452    8.7960   19.2958 O   0  0  0  0  0  0  0  0  0  0  0  0
    8.7122    6.7842   24.8569 C   0  0  0  0  0  0  0  0  0  0  0  0
   10.3400    6.1726   14.3081 C   0  0  0  0  0  0  0  0  0  0  0  0
    7.4297    7.5873   24.8962 C   0  0  0  0  0  0  0  0  0  0  0  0
    8.1566   10.0536   16.0516 O   0  0  0  0  0  0  0  0  0  0  0  0
   12.4989    6.2074   20.1776 C   0  0  0  0  0  0  0  0  0  0  0  0
    6.9192    9.1053   20.9073 O   0  0  0  0  0  0  0  0  0  0  0  0
   14.3979    6.0729   18.7784 C   0  0  0  0  0  0  0  0  0  0  0  0
    8.6811    9.5354   16.9998 C   0  0  0  0  0  0  0  0  0  0  0  0
    9.2512    4.2713   13.7653 O   0  0  0  0  0  0  0  0  0  0  0  0
    9.6495    8.6317   16.8332 N   0  0  0  0  0  0  0  0  0  0  0  0
    6.2934    8.6988   23.1988 O   0  0  0  0  0  0  0  0  0  0  0  0
    7.9806    8.6543   20.5437 C   0  0  0  0  0  0  0  0  0  0  0  0
   13.7270    5.7144   19.8610 O   0  0  0  0  0  0  0  0  0  0  0  0
    8.3351    5.5235   15.4478 C   0  0  0  0  0  0  0  0  0  0  0  0
    8.7700    7.8434   21.3915 C   0  0  0  0  0  0  0  0  0  0  0  0
   11.7856    6.8851   19.2401 C   0  0  0  0  0  0  0  0  0  0  0  0
   10.5281    7.4276   19.5649 C   0  0  0  0  0  0  0  0  0  0  0  0
   10.0256    7.2907   20.8484 C   0  0  0  0  0  0  0  0  0  0  0  0
    9.3113    5.3049   14.4911 C   0  0  0  0  0  0  0  0  0  0  0  0
    9.4607    7.5646   16.0139 C   0  0  0  0  0  0  0  0  0  0  0  0
   10.4192    7.3157   15.0955 C   0  0  0  0  0  0  0  0  0  0  0  0
   10.2489    6.4227   23.0218 N   0  0  0  0  0  0  0  0  0  0  0  0
    7.2472    8.0746   23.5050 C   0  0  0  0  0  0  0  0  0  0  0  0
    9.2051    6.9101   23.4604 C   0  0  0  0  0  0  0  0  0  0  0  0
   11.9646    6.0299   21.4251 C   0  0  0  0  0  0  0  0  0  0  0  0
  1  5  1  0
  1 13  1  0
  2 20  2  0
  2 28  1  0
  2 29  1  0
  3 19  4  0
  3 25  4  0
  4 23  4  0
  4 27  1  0
  4 30  4  0
  5 17  1  0
  6  8  1  0
  6 29  1  0
  7 24  4  0
  7 26  4  0
  8 28  1  0
  9 13  2  0
 10 18  1  0
 10 21  4  0
 10 30  4  0
 11 17  2  0
 12 18  1  0
 13 15  1  0
 14 24  1  0
 15 25  1  0
 16 28  2  0
 17 20  1  0
 19 24  4  0
 20 23  1  0
 21 22  4  0
 22 23  4  0
 25 26  4  0
 27 29  2  0
M  END
$$$$

 Created by Python create_sdf_string function

 30 33  0  0  0  0  0  0  0  0999 V2000
    8.3036    9.8571   18.4133 C   0  0  0  0  0  0  0  0  0  0  0  0
    8.3694    7.6612   22.6703 C   0  0  0  0  0  0  0  0  0  0  0  0
    8.4143    6.6863   16.2273 C   0  0  0  0  0  0  0  0  0  0  0  0
   10.7581    6.5674   21.7636 C   0  0  0  0  0  0  0  0  0  0  0  0
    8.4452    8.7960   19.2958 O   0  0  0  0  0  0  0  0  0  0  0  0
    8.7122    6.7842   24.8569 C   0  0  0  0  0  0  0  0  0  0  0  0
   10.3400    6.1726   14.3081 C   0  0  0  0  0  0  0  0  0  0  0  0
    7.4297    7.5873   24.8962 C   0  0  0  0  0  0  0  0  0  0  0  0
    8.1566   10.0536   16.0516 O   0  0  0  0  0  0  0  0  0  0  0  0
   12.4989    6.2074   20.1776 C   0  0  0  0  0  0  0  0  0  0  0  0
    6.9192    9.1053   20.9073 O   0  0  0  0  0  0  0  0  0  0  0  0
   14.3979    6.0729   18.7784 C   0  0  0  0  0  0  0  0  0  0  0  0
    8.6811    9.5354   16.9998 C   0  0  0  0  0  0  0  0  0  0  0  0
    9.2512    4.2713   13.7653 O   0  0  0  0  0  0  0  0  0  0  0  0
    9.6495    8.6317   16.8332 N   0  0  0  0  0  0  0  0  0  0  0  0
    6.2934    8.6988   23.1988 O   0  0  0  0  0  0  0  0  0  0  0  0
    7.9806    8.6543   20.5437 C   0  0  0  0  0  0  0  0  0  0  0  0
   13.7270    5.7144   19.8610 O   0  0  0  0  0  0  0  0  0  0  0  0
    8.3351    5.5235   15.4478 C   0  0  0  0  0  0  0  0  0  0  0  0
    8.7700    7.8434   21.3915 C   0  0  0  0  0  0  0  0  0  0  0  0
   11.7856    6.8851   19.2401 C   0  0  0  0  0  0  0  0  0  0  0  0
   10.5281    7.4276   19.5649 C   0  0  0  0  0  0  0  0  0  0  0  0
   10.0256    7.2907   20.8484 C   0  0  0  0  0  0  0  0  0  0  0  0
    9.3113    5.3049   14.4911 C   0  0  0  0  0  0  0  0  0  0  0  0
    9.4607    7.5646   16.0139 C   0  0  0  0  0  0  0  0  0  0  0  0
   10.4192    7.3157   15.0955 C   0  0  0  0  0  0  0  0  0  0  0  0
   10.2489    6.4227   23.0218 N   0  0  0  0  0  0  0  0  0  0  0  0
    7.2472    8.0746   23.5050 C   0  0  0  0  0  0  0  0  0  0  0  0
    9.2051    6.9101   23.4604 C   0  0  0  0  0  0  0  0  0  0  0  0
   11.9646    6.0299   21.4251 C   0  0  0  0  0  0  0  0  0  0  0  0
  1  5  1  0
  1 13  1  0
  2 20  2  0
  2 28  1  0
  2 29  1  0
  3 19  4  0
  3 25  4  0
  4 23  4  0
  4 27  1  0
  4 30  4  0
  5 17  1  0
  6  8  1  0
  6 29  1  0
  7 24  4  0
  7 26  4  0
  8 28  1  0
  9 13  2  0
 10 18  1  0
 10 21  4  0
 10 30  4  0
 11 17  2  0
 12 18  1  0
 13 15  1  0
 14 24  1  0
 15 25  1  0
 16 28  2  0
 17 20  1  0
 19 24  4  0
 20 23  1  0
 21 22  4  0
 22 23  4  0
 25 26  4  0
 27 29  2  0
M  END
$$$$

 Created by Python create_sdf_string function

 30 33  0  0  0  0  0  0  0  0999 V2000
    8.3036    9.8571   18.4133 C   0  0  0  0  0  0  0  0  0  0  0  0
    8.3694    7.6612   22.6703 C   0  0  0  0  0  0  0  0  0  0  0  0
    8.4143    6.6863   16.2273 C   0  0  0  0  0  0  0  0  0  0  0  0
   10.7581    6.5674   21.7636 C   0  0  0  0  0  0  0  0  0  0  0  0
    8.4452    8.7960   19.2958 O   0  0  0  0  0  0  0  0  0  0  0  0
    8.7122    6.7842   24.8569 C   0  0  0  0  0  0  0  0  0  0  0  0
   10.3400    6.1726   14.3081 C   0  0  0  0  0  0  0  0  0  0  0  0
    7.4297    7.5873   24.8962 C   0  0  0  0  0  0  0  0  0  0  0  0
    8.1566   10.0536   16.0516 O   0  0  0  0  0  0  0  0  0  0  0  0
   12.4989    6.2074   20.1776 C   0  0  0  0  0  0  0  0  0  0  0  0
    6.9192    9.1053   20.9073 O   0  0  0  0  0  0  0  0  0  0  0  0
   14.3979    6.0729   18.7784 C   0  0  0  0  0  0  0  0  0  0  0  0
    8.6811    9.5354   16.9998 C   0  0  0  0  0  0  0  0  0  0  0  0
    9.2512    4.2713   13.7653 O   0  0  0  0  0  0  0  0  0  0  0  0
    9.6495    8.6317   16.8332 N   0  0  0  0  0  0  0  0  0  0  0  0
    6.2934    8.6988   23.1988 O   0  0  0  0  0  0  0  0  0  0  0  0
    7.9806    8.6543   20.5437 C   0  0  0  0  0  0  0  0  0  0  0  0
   13.7270    5.7144   19.8610 O   0  0  0  0  0  0  0  0  0  0  0  0
    8.3351    5.5235   15.4478 C   0  0  0  0  0  0  0  0  0  0  0  0
    8.7700    7.8434   21.3915 C   0  0  0  0  0  0  0  0  0  0  0  0
   11.7856    6.8851   19.2401 C   0  0  0  0  0  0  0  0  0  0  0  0
   10.5281    7.4276   19.5649 C   0  0  0  0  0  0  0  0  0  0  0  0
   10.0256    7.2907   20.8484 C   0  0  0  0  0  0  0  0  0  0  0  0
    9.3113    5.3049   14.4911 C   0  0  0  0  0  0  0  0  0  0  0  0
    9.4607    7.5646   16.0139 C   0  0  0  0  0  0  0  0  0  0  0  0
   10.4192    7.3157   15.0955 C   0  0  0  0  0  0  0  0  0  0  0  0
   10.2489    6.4227   23.0218 N   0  0  0  0  0  0  0  0  0  0  0  0
    7.2472    8.0746   23.5050 C   0  0  0  0  0  0  0  0  0  0  0  0
    9.2051    6.9101   23.4604 C   0  0  0  0  0  0  0  0  0  0  0  0
   11.9646    6.0299   21.4251 C   0  0  0  0  0  0  0  0  0  0  0  0
  1  5  1  0
  1 13  1  0
  2 20  2  0
  2 28  1  0
  2 29  1  0
  3 19  4  0
  3 25  4  0
  4 23  4  0
  4 27  1  0
  4 30  4  0
  5 17  1  0
  6  8  1  0
  6 29  1  0
  7 24  4  0
  7 26  4  0
  8 28  1  0
  9 13  2  0
 10 18  1  0
 10 21  4  0
 10 30  4  0
 11 17  2  0
 12 18  1  0
 13 15  1  0
 14 24  1  0
 15 25  1  0
 16 28  2  0
 17 20  1  0
 19 24  4  0
 20 23  1  0
 21 22  4  0
 22 23  4  0
 25 26  4  0
 27 29  2  0
M  END
$$$$

 Created by Python create_sdf_string function

 30 33  0  0  0  0  0  0  0  0999 V2000
    8.3036    9.8571   18.4133 C   0  0  0  0  0  0  0  0  0  0  0  0
    8.3694    7.6612   22.6703 C   0  0  0  0  0  0  0  0  0  0  0  0
    8.4143    6.6863   16.2273 C   0  0  0  0  0  0  0  0  0  0  0  0
   10.7581    6.5674   21.7636 C   0  0  0  0  0  0  0  0  0  0  0  0
    8.4452    8.7960   19.2958 O   0  0  0  0  0  0  0  0  0  0  0  0
    8.7122    6.7842   24.8569 C   0  0  0  0  0  0  0  0  0  0  0  0
   10.3400    6.1726   14.3081 C   0  0  0  0  0  0  0  0  0  0  0  0
    7.4297    7.5873   24.8962 C   0  0  0  0  0  0  0  0  0  0  0  0
    8.1566   10.0536   16.0516 O   0  0  0  0  0  0  0  0  0  0  0  0
   12.4989    6.2074   20.1776 C   0  0  0  0  0  0  0  0  0  0  0  0
    6.9192    9.1053   20.9073 O   0  0  0  0  0  0  0  0  0  0  0  0
   14.3979    6.0729   18.7784 C   0  0  0  0  0  0  0  0  0  0  0  0
    8.6811    9.5354   16.9998 C   0  0  0  0  0  0  0  0  0  0  0  0
    9.2512    4.2713   13.7653 O   0  0  0  0  0  0  0  0  0  0  0  0
    9.6495    8.6317   16.8332 N   0  0  0  0  0  0  0  0  0  0  0  0
    6.2934    8.6988   23.1988 O   0  0  0  0  0  0  0  0  0  0  0  0
    7.9806    8.6543   20.5437 C   0  0  0  0  0  0  0  0  0  0  0  0
   13.7270    5.7144   19.8610 O   0  0  0  0  0  0  0  0  0  0  0  0
    8.3351    5.5235   15.4478 C   0  0  0  0  0  0  0  0  0  0  0  0
    8.7700    7.8434   21.3915 C   0  0  0  0  0  0  0  0  0  0  0  0
   11.7856    6.8851   19.2401 C   0  0  0  0  0  0  0  0  0  0  0  0
   10.5281    7.4276   19.5649 C   0  0  0  0  0  0  0  0  0  0  0  0
   10.0256    7.2907   20.8484 C   0  0  0  0  0  0  0  0  0  0  0  0
    9.3113    5.3049   14.4911 C   0  0  0  0  0  0  0  0  0  0  0  0
    9.4607    7.5646   16.0139 C   0  0  0  0  0  0  0  0  0  0  0  0
   10.4192    7.3157   15.0955 C   0  0  0  0  0  0  0  0  0  0  0  0
   10.2489    6.4227   23.0218 N   0  0  0  0  0  0  0  0  0  0  0  0
    7.2472    8.0746   23.5050 C   0  0  0  0  0  0  0  0  0  0  0  0
    9.2051    6.9101   23.4604 C   0  0  0  0  0  0  0  0  0  0  0  0
   11.9646    6.0299   21.4251 C   0  0  0  0  0  0  0  0  0  0  0  0
  1  5  1  0
  1 13  1  0
  2 20  2  0
  2 28  1  0
  2 29  1  0
  3 19  4  0
  3 25  4  0
  4 23  4  0
  4 27  1  0
  4 30  4  0
  5 17  1  0
  6  8  1  0
  6 29  1  0
  7 24  4  0
  7 26  4  0
  8 28  1  0
  9 13  2  0
 10 18  1  0
 10 21  4  0
 10 30  4  0
 11 17  2  0
 12 18  1  0
 13 15  1  0
 14 24  1  0
 15 25  1  0
 16 28  2  0
 17 20  1  0
 19 24  4  0
 20 23  1  0
 21 22  4  0
 22 23  4  0
 25 26  4  0
 27 29  2  0
M  END
$$$$

 Created by Python create_sdf_string function

 30 33  0  0  0  0  0  0  0  0999 V2000
    8.3036    9.8571   18.4133 C   0  0  0  0  0  0  0  0  0  0  0  0
    8.3694    7.6612   22.6703 C   0  0  0  0  0  0  0  0  0  0  0  0
    8.4143    6.6863   16.2273 C   0  0  0  0  0  0  0  0  0  0  0  0
   10.7581    6.5674   21.7636 C   0  0  0  0  0  0  0  0  0  0  0  0
    8.4452    8.7960   19.2958 O   0  0  0  0  0  0  0  0  0  0  0  0
    8.7122    6.7842   24.8569 C   0  0  0  0  0  0  0  0  0  0  0  0
   10.3400    6.1726   14.3081 C   0  0  0  0  0  0  0  0  0  0  0  0
    7.4297    7.5873   24.8962 C   0  0  0  0  0  0  0  0  0  0  0  0
    8.1566   10.0536   16.0516 O   0  0  0  0  0  0  0  0  0  0  0  0
   12.4989    6.2074   20.1776 C   0  0  0  0  0  0  0  0  0  0  0  0
    6.9192    9.1053   20.9073 O   0  0  0  0  0  0  0  0  0  0  0  0
   14.3979    6.0729   18.7784 C   0  0  0  0  0  0  0  0  0  0  0  0
    8.6811    9.5354   16.9998 C   0  0  0  0  0  0  0  0  0  0  0  0
    9.2512    4.2713   13.7653 O   0  0  0  0  0  0  0  0  0  0  0  0
    9.6495    8.6317   16.8332 N   0  0  0  0  0  0  0  0  0  0  0  0
    6.2934    8.6988   23.1988 O   0  0  0  0  0  0  0  0  0  0  0  0
    7.9806    8.6543   20.5437 C   0  0  0  0  0  0  0  0  0  0  0  0
   13.7270    5.7144   19.8610 O   0  0  0  0  0  0  0  0  0  0  0  0
    8.3351    5.5235   15.4478 C   0  0  0  0  0  0  0  0  0  0  0  0
    8.7700    7.8434   21.3915 C   0  0  0  0  0  0  0  0  0  0  0  0
   11.7856    6.8851   19.2401 C   0  0  0  0  0  0  0  0  0  0  0  0
   10.5281    7.4276   19.5649 C   0  0  0  0  0  0  0  0  0  0  0  0
   10.0256    7.2907   20.8484 C   0  0  0  0  0  0  0  0  0  0  0  0
    9.3113    5.3049   14.4911 C   0  0  0  0  0  0  0  0  0  0  0  0
    9.4607    7.5646   16.0139 C   0  0  0  0  0  0  0  0  0  0  0  0
   10.4192    7.3157   15.0955 C   0  0  0  0  0  0  0  0  0  0  0  0
   10.2489    6.4227   23.0218 N   0  0  0  0  0  0  0  0  0  0  0  0
    7.2472    8.0746   23.5050 C   0  0  0  0  0  0  0  0  0  0  0  0
    9.2051    6.9101   23.4604 C   0  0  0  0  0  0  0  0  0  0  0  0
   11.9646    6.0299   21.4251 C   0  0  0  0  0  0  0  0  0  0  0  0
  1  5  1  0
  1 13  1  0
  2 20  2  0
  2 28  1  0
  2 29  1  0
  3 19  4  0
  3 25  4  0
  4 23  4  0
  4 27  1  0
  4 30  4  0
  5 17  1  0
  6  8  1  0
  6 29  1  0
  7 24  4  0
  7 26  4  0
  8 28  1  0
  9 13  2  0
 10 18  1  0
 10 21  4  0
 10 30  4  0
 11 17  2  0
 12 18  1  0
 13 15  1  0
 14 24  1  0
 15 25  1  0
 16 28  2  0
 17 20  1  0
 19 24  4  0
 20 23  1  0
 21 22  4  0
 22 23  4  0
 25 26  4  0
 27 29  2  0
M  END
$$$$

 Created by Python create_sdf_string function

 30 33  0  0  0  0  0  0  0  0999 V2000
    8.3036    9.8571   18.4133 C   0  0  0  0  0  0  0  0  0  0  0  0
    8.3694    7.6612   22.6703 C   0  0  0  0  0  0  0  0  0  0  0  0
    8.4143    6.6863   16.2273 C   0  0  0  0  0  0  0  0  0  0  0  0
   10.7581    6.5674   21.7636 C   0  0  0  0  0  0  0  0  0  0  0  0
    8.4452    8.7960   19.2958 O   0  0  0  0  0  0  0  0  0  0  0  0
    8.7122    6.7842   24.8569 C   0  0  0  0  0  0  0  0  0  0  0  0
   10.3400    6.1726   14.3081 C   0  0  0  0  0  0  0  0  0  0  0  0
    7.4297    7.5873   24.8962 C   0  0  0  0  0  0  0  0  0  0  0  0
    8.1566   10.0536   16.0516 O   0  0  0  0  0  0  0  0  0  0  0  0
   12.4989    6.2074   20.1776 C   0  0  0  0  0  0  0  0  0  0  0  0
    6.9192    9.1053   20.9073 O   0  0  0  0  0  0  0  0  0  0  0  0
   14.3979    6.0729   18.7784 C   0  0  0  0  0  0  0  0  0  0  0  0
    8.6811    9.5354   16.9998 C   0  0  0  0  0  0  0  0  0  0  0  0
    9.2512    4.2713   13.7653 O   0  0  0  0  0  0  0  0  0  0  0  0
    9.6495    8.6317   16.8332 N   0  0  0  0  0  0  0  0  0  0  0  0
    6.2934    8.6988   23.1988 O   0  0  0  0  0  0  0  0  0  0  0  0
    7.9806    8.6543   20.5437 C   0  0  0  0  0  0  0  0  0  0  0  0
   13.7270    5.7144   19.8610 O   0  0  0  0  0  0  0  0  0  0  0  0
    8.3351    5.5235   15.4478 C   0  0  0  0  0  0  0  0  0  0  0  0
    8.7700    7.8434   21.3915 C   0  0  0  0  0  0  0  0  0  0  0  0
   11.7856    6.8851   19.2401 C   0  0  0  0  0  0  0  0  0  0  0  0
   10.5281    7.4276   19.5649 C   0  0  0  0  0  0  0  0  0  0  0  0
   10.0256    7.2907   20.8484 C   0  0  0  0  0  0  0  0  0  0  0  0
    9.3113    5.3049   14.4911 C   0  0  0  0  0  0  0  0  0  0  0  0
    9.4607    7.5646   16.0139 C   0  0  0  0  0  0  0  0  0  0  0  0
   10.4192    7.3157   15.0955 C   0  0  0  0  0  0  0  0  0  0  0  0
   10.2489    6.4227   23.0218 N   0  0  0  0  0  0  0  0  0  0  0  0
    7.2472    8.0746   23.5050 C   0  0  0  0  0  0  0  0  0  0  0  0
    9.2051    6.9101   23.4604 C   0  0  0  0  0  0  0  0  0  0  0  0
   11.9646    6.0299   21.4251 C   0  0  0  0  0  0  0  0  0  0  0  0
  1  5  1  0
  1 13  1  0
  2 20  2  0
  2 28  1  0
  2 29  1  0
  3 19  4  0
  3 25  4  0
  4 23  4  0
  4 27  1  0
  4 30  4  0
  5 17  1  0
  6  8  1  0
  6 29  1  0
  7 24  4  0
  7 26  4  0
  8 28  1  0
  9 13  2  0
 10 18  1  0
 10 21  4  0
 10 30  4  0
 11 17  2  0
 12 18  1  0
 13 15  1  0
 14 24  1  0
 15 25  1  0
 16 28  2  0
 17 20  1  0
 19 24  4  0
 20 23  1  0
 21 22  4  0
 22 23  4  0
 25 26  4  0
 27 29  2  0
M  END
$$$$

 Created by Python create_sdf_string function

 30 33  0  0  0  0  0  0  0  0999 V2000
    8.3036    9.8571   18.4133 C   0  0  0  0  0  0  0  0  0  0  0  0
    8.3694    7.6612   22.6703 C   0  0  0  0  0  0  0  0  0  0  0  0
    8.4143    6.6863   16.2273 C   0  0  0  0  0  0  0  0  0  0  0  0
   10.7581    6.5674   21.7636 C   0  0  0  0  0  0  0  0  0  0  0  0
    8.4452    8.7960   19.2958 O   0  0  0  0  0  0  0  0  0  0  0  0
    8.7122    6.7842   24.8569 C   0  0  0  0  0  0  0  0  0  0  0  0
   10.3400    6.1726   14.3081 C   0  0  0  0  0  0  0  0  0  0  0  0
    7.4297    7.5873   24.8962 C   0  0  0  0  0  0  0  0  0  0  0  0
    8.1566   10.0536   16.0516 O   0  0  0  0  0  0  0  0  0  0  0  0
   12.4989    6.2074   20.1776 C   0  0  0  0  0  0  0  0  0  0  0  0
    6.9192    9.1053   20.9073 O   0  0  0  0  0  0  0  0  0  0  0  0
   14.3979    6.0729   18.7784 C   0  0  0  0  0  0  0  0  0  0  0  0
    8.6811    9.5354   16.9998 C   0  0  0  0  0  0  0  0  0  0  0  0
    9.2512    4.2713   13.7653 O   0  0  0  0  0  0  0  0  0  0  0  0
    9.6495    8.6317   16.8332 N   0  0  0  0  0  0  0  0  0  0  0  0
    6.2934    8.6988   23.1988 O   0  0  0  0  0  0  0  0  0  0  0  0
    7.9806    8.6543   20.5437 C   0  0  0  0  0  0  0  0  0  0  0  0
   13.7270    5.7144   19.8610 O   0  0  0  0  0  0  0  0  0  0  0  0
    8.3351    5.5235   15.4478 C   0  0  0  0  0  0  0  0  0  0  0  0
    8.7700    7.8434   21.3915 C   0  0  0  0  0  0  0  0  0  0  0  0
   11.7856    6.8851   19.2401 C   0  0  0  0  0  0  0  0  0  0  0  0
   10.5281    7.4276   19.5649 C   0  0  0  0  0  0  0  0  0  0  0  0
   10.0256    7.2907   20.8484 C   0  0  0  0  0  0  0  0  0  0  0  0
    9.3113    5.3049   14.4911 C   0  0  0  0  0  0  0  0  0  0  0  0
    9.4607    7.5646   16.0139 C   0  0  0  0  0  0  0  0  0  0  0  0
   10.4192    7.3157   15.0955 C   0  0  0  0  0  0  0  0  0  0  0  0
   10.2489    6.4227   23.0218 N   0  0  0  0  0  0  0  0  0  0  0  0
    7.2472    8.0746   23.5050 C   0  0  0  0  0  0  0  0  0  0  0  0
    9.2051    6.9101   23.4604 C   0  0  0  0  0  0  0  0  0  0  0  0
   11.9646    6.0299   21.4251 C   0  0  0  0  0  0  0  0  0  0  0  0
  1  5  1  0
  1 13  1  0
  2 20  2  0
  2 28  1  0
  2 29  1  0
  3 19  4  0
  3 25  4  0
  4 23  4  0
  4 27  1  0
  4 30  4  0
  5 17  1  0
  6  8  1  0
  6 29  1  0
  7 24  4  0
  7 26  4  0
  8 28  1  0
  9 13  2  0
 10 18  1  0
 10 21  4  0
 10 30  4  0
 11 17  2  0
 12 18  1  0
 13 15  1  0
 14 24  1  0
 15 25  1  0
 16 28  2  0
 17 20  1  0
 19 24  4  0
 20 23  1  0
 21 22  4  0
 22 23  4  0
 25 26  4  0
 27 29  2  0
M  END
$$$$

 Created by Python create_sdf_string function

 30 33  0  0  0  0  0  0  0  0999 V2000
    8.3036    9.8571   18.4133 C   0  0  0  0  0  0  0  0  0  0  0  0
    8.3694    7.6612   22.6703 C   0  0  0  0  0  0  0  0  0  0  0  0
    8.4143    6.6863   16.2273 C   0  0  0  0  0  0  0  0  0  0  0  0
   10.7581    6.5674   21.7636 C   0  0  0  0  0  0  0  0  0  0  0  0
    8.4452    8.7960   19.2958 O   0  0  0  0  0  0  0  0  0  0  0  0
    8.7122    6.7842   24.8569 C   0  0  0  0  0  0  0  0  0  0  0  0
   10.3400    6.1726   14.3081 C   0  0  0  0  0  0  0  0  0  0  0  0
    7.4297    7.5873   24.8962 C   0  0  0  0  0  0  0  0  0  0  0  0
    8.1566   10.0536   16.0516 O   0  0  0  0  0  0  0  0  0  0  0  0
   12.4989    6.2074   20.1776 C   0  0  0  0  0  0  0  0  0  0  0  0
    6.9192    9.1053   20.9073 O   0  0  0  0  0  0  0  0  0  0  0  0
   14.3979    6.0729   18.7784 C   0  0  0  0  0  0  0  0  0  0  0  0
    8.6811    9.5354   16.9998 C   0  0  0  0  0  0  0  0  0  0  0  0
    9.2512    4.2713   13.7653 O   0  0  0  0  0  0  0  0  0  0  0  0
    9.6495    8.6317   16.8332 N   0  0  0  0  0  0  0  0  0  0  0  0
    6.2934    8.6988   23.1988 O   0  0  0  0  0  0  0  0  0  0  0  0
    7.9806    8.6543   20.5437 C   0  0  0  0  0  0  0  0  0  0  0  0
   13.7270    5.7144   19.8610 O   0  0  0  0  0  0  0  0  0  0  0  0
    8.3351    5.5235   15.4478 C   0  0  0  0  0  0  0  0  0  0  0  0
    8.7700    7.8434   21.3915 C   0  0  0  0  0  0  0  0  0  0  0  0
   11.7856    6.8851   19.2401 C   0  0  0  0  0  0  0  0  0  0  0  0
   10.5281    7.4276   19.5649 C   0  0  0  0  0  0  0  0  0  0  0  0
   10.0256    7.2907   20.8484 C   0  0  0  0  0  0  0  0  0  0  0  0
    9.3113    5.3049   14.4911 C   0  0  0  0  0  0  0  0  0  0  0  0
    9.4607    7.5646   16.0139 C   0  0  0  0  0  0  0  0  0  0  0  0
   10.4192    7.3157   15.0955 C   0  0  0  0  0  0  0  0  0  0  0  0
   10.2489    6.4227   23.0218 N   0  0  0  0  0  0  0  0  0  0  0  0
    7.2472    8.0746   23.5050 C   0  0  0  0  0  0  0  0  0  0  0  0
    9.2051    6.9101   23.4604 C   0  0  0  0  0  0  0  0  0  0  0  0
   11.9646    6.0299   21.4251 C   0  0  0  0  0  0  0  0  0  0  0  0
  1  5  1  0
  1 13  1  0
  2 20  2  0
  2 28  1  0
  2 29  1  0
  3 19  4  0
  3 25  4  0
  4 23  4  0
  4 27  1  0
  4 30  4  0
  5 17  1  0
  6  8  1  0
  6 29  1  0
  7 24  4  0
  7 26  4  0
  8 28  1  0
  9 13  2  0
 10 18  1  0
 10 21  4  0
 10 30  4  0
 11 17  2  0
 12 18  1  0
 13 15  1  0
 14 24  1  0
 15 25  1  0
 16 28  2  0
 17 20  1  0
 19 24  4  0
 20 23  1  0
 21 22  4  0
 22 23  4  0
 25 26  4  0
 27 29  2  0
M  END
$$$$

 Created by Python create_sdf_string function

 30 33  0  0  0  0  0  0  0  0999 V2000
    8.3036    9.8571   18.4133 C   0  0  0  0  0  0  0  0  0  0  0  0
    8.3694    7.6612   22.6703 C   0  0  0  0  0  0  0  0  0  0  0  0
    8.4143    6.6863   16.2273 C   0  0  0  0  0  0  0  0  0  0  0  0
   10.7581    6.5674   21.7636 C   0  0  0  0  0  0  0  0  0  0  0  0
    8.4452    8.7960   19.2958 O   0  0  0  0  0  0  0  0  0  0  0  0
    8.7122    6.7842   24.8569 C   0  0  0  0  0  0  0  0  0  0  0  0
   10.3400    6.1726   14.3081 C   0  0  0  0  0  0  0  0  0  0  0  0
    7.4297    7.5873   24.8962 C   0  0  0  0  0  0  0  0  0  0  0  0
    8.1566   10.0536   16.0516 O   0  0  0  0  0  0  0  0  0  0  0  0
   12.4989    6.2074   20.1776 C   0  0  0  0  0  0  0  0  0  0  0  0
    6.9192    9.1053   20.9073 O   0  0  0  0  0  0  0  0  0  0  0  0
   14.3979    6.0729   18.7784 C   0  0  0  0  0  0  0  0  0  0  0  0
    8.6811    9.5354   16.9998 C   0  0  0  0  0  0  0  0  0  0  0  0
    9.2512    4.2713   13.7653 O   0  0  0  0  0  0  0  0  0  0  0  0
    9.6495    8.6317   16.8332 N   0  0  0  0  0  0  0  0  0  0  0  0
    6.2934    8.6988   23.1988 O   0  0  0  0  0  0  0  0  0  0  0  0
    7.9806    8.6543   20.5437 C   0  0  0  0  0  0  0  0  0  0  0  0
   13.7270    5.7144   19.8610 O   0  0  0  0  0  0  0  0  0  0  0  0
    8.3351    5.5235   15.4478 C   0  0  0  0  0  0  0  0  0  0  0  0
    8.7700    7.8434   21.3915 C   0  0  0  0  0  0  0  0  0  0  0  0
   11.7856    6.8851   19.2401 C   0  0  0  0  0  0  0  0  0  0  0  0
   10.5281    7.4276   19.5649 C   0  0  0  0  0  0  0  0  0  0  0  0
   10.0256    7.2907   20.8484 C   0  0  0  0  0  0  0  0  0  0  0  0
    9.3113    5.3049   14.4911 C   0  0  0  0  0  0  0  0  0  0  0  0
    9.4607    7.5646   16.0139 C   0  0  0  0  0  0  0  0  0  0  0  0
   10.4192    7.3157   15.0955 C   0  0  0  0  0  0  0  0  0  0  0  0
   10.2489    6.4227   23.0218 N   0  0  0  0  0  0  0  0  0  0  0  0
    7.2472    8.0746   23.5050 C   0  0  0  0  0  0  0  0  0  0  0  0
    9.2051    6.9101   23.4604 C   0  0  0  0  0  0  0  0  0  0  0  0
   11.9646    6.0299   21.4251 C   0  0  0  0  0  0  0  0  0  0  0  0
  1  5  1  0
  1 13  1  0
  2 20  2  0
  2 28  1  0
  2 29  1  0
  3 19  4  0
  3 25  4  0
  4 23  4  0
  4 27  1  0
  4 30  4  0
  5 17  1  0
  6  8  1  0
  6 29  1  0
  7 24  4  0
  7 26  4  0
  8 28  1  0
  9 13  2  0
 10 18  1  0
 10 21  4  0
 10 30  4  0
 11 17  2  0
 12 18  1  0
 13 15  1  0
 14 24  1  0
 15 25  1  0
 16 28  2  0
 17 20  1  0
 19 24  4  0
 20 23  1  0
 21 22  4  0
 22 23  4  0
 25 26  4  0
 27 29  2  0
M  END
$$$$

 Created by Python create_sdf_string function

 30 33  0  0  0  0  0  0  0  0999 V2000
    8.3036    9.8571   18.4133 C   0  0  0  0  0  0  0  0  0  0  0  0
    8.3694    7.6612   22.6703 C   0  0  0  0  0  0  0  0  0  0  0  0
    8.4143    6.6863   16.2273 C   0  0  0  0  0  0  0  0  0  0  0  0
   10.7581    6.5674   21.7636 C   0  0  0  0  0  0  0  0  0  0  0  0
    8.4452    8.7960   19.2958 O   0  0  0  0  0  0  0  0  0  0  0  0
    8.7122    6.7842   24.8569 C   0  0  0  0  0  0  0  0  0  0  0  0
   10.3400    6.1726   14.3081 C   0  0  0  0  0  0  0  0  0  0  0  0
    7.4297    7.5873   24.8962 C   0  0  0  0  0  0  0  0  0  0  0  0
    8.1566   10.0536   16.0516 O   0  0  0  0  0  0  0  0  0  0  0  0
   12.4989    6.2074   20.1776 C   0  0  0  0  0  0  0  0  0  0  0  0
    6.9192    9.1053   20.9073 O   0  0  0  0  0  0  0  0  0  0  0  0
   14.3979    6.0729   18.7784 C   0  0  0  0  0  0  0  0  0  0  0  0
    8.6811    9.5354   16.9998 C   0  0  0  0  0  0  0  0  0  0  0  0
    9.2512    4.2713   13.7653 O   0  0  0  0  0  0  0  0  0  0  0  0
    9.6495    8.6317   16.8332 N   0  0  0  0  0  0  0  0  0  0  0  0
    6.2934    8.6988   23.1988 O   0  0  0  0  0  0  0  0  0  0  0  0
    7.9806    8.6543   20.5437 C   0  0  0  0  0  0  0  0  0  0  0  0
   13.7270    5.7144   19.8610 O   0  0  0  0  0  0  0  0  0  0  0  0
    8.3351    5.5235   15.4478 C   0  0  0  0  0  0  0  0  0  0  0  0
    8.7700    7.8434   21.3915 C   0  0  0  0  0  0  0  0  0  0  0  0
   11.7856    6.8851   19.2401 C   0  0  0  0  0  0  0  0  0  0  0  0
   10.5281    7.4276   19.5649 C   0  0  0  0  0  0  0  0  0  0  0  0
   10.0256    7.2907   20.8484 C   0  0  0  0  0  0  0  0  0  0  0  0
    9.3113    5.3049   14.4911 C   0  0  0  0  0  0  0  0  0  0  0  0
    9.4607    7.5646   16.0139 C   0  0  0  0  0  0  0  0  0  0  0  0
   10.4192    7.3157   15.0955 C   0  0  0  0  0  0  0  0  0  0  0  0
   10.2489    6.4227   23.0218 N   0  0  0  0  0  0  0  0  0  0  0  0
    7.2472    8.0746   23.5050 C   0  0  0  0  0  0  0  0  0  0  0  0
    9.2051    6.9101   23.4604 C   0  0  0  0  0  0  0  0  0  0  0  0
   11.9646    6.0299   21.4251 C   0  0  0  0  0  0  0  0  0  0  0  0
  1  5  1  0
  1 13  1  0
  2 20  2  0
  2 28  1  0
  2 29  1  0
  3 19  4  0
  3 25  4  0
  4 23  4  0
  4 27  1  0
  4 30  4  0
  5 17  1  0
  6  8  1  0
  6 29  1  0
  7 24  4  0
  7 26  4  0
  8 28  1  0
  9 13  2  0
 10 18  1  0
 10 21  4  0
 10 30  4  0
 11 17  2  0
 12 18  1  0
 13 15  1  0
 14 24  1  0
 15 25  1  0
 16 28  2  0
 17 20  1  0
 19 24  4  0
 20 23  1  0
 21 22  4  0
 22 23  4  0
 25 26  4  0
 27 29  2  0
M  END
$$$$

 Created by Python create_sdf_string function

 30 33  0  0  0  0  0  0  0  0999 V2000
    8.3036    9.8571   18.4133 C   0  0  0  0  0  0  0  0  0  0  0  0
    8.3694    7.6612   22.6703 C   0  0  0  0  0  0  0  0  0  0  0  0
    8.4143    6.6863   16.2273 C   0  0  0  0  0  0  0  0  0  0  0  0
   10.7581    6.5674   21.7636 C   0  0  0  0  0  0  0  0  0  0  0  0
    8.4452    8.7960   19.2958 O   0  0  0  0  0  0  0  0  0  0  0  0
    8.7122    6.7842   24.8569 C   0  0  0  0  0  0  0  0  0  0  0  0
   10.3400    6.1726   14.3081 C   0  0  0  0  0  0  0  0  0  0  0  0
    7.4297    7.5873   24.8962 C   0  0  0  0  0  0  0  0  0  0  0  0
    8.1566   10.0536   16.0516 O   0  0  0  0  0  0  0  0  0  0  0  0
   12.4989    6.2074   20.1776 C   0  0  0  0  0  0  0  0  0  0  0  0
    6.9192    9.1053   20.9073 O   0  0  0  0  0  0  0  0  0  0  0  0
   14.3979    6.0729   18.7784 C   0  0  0  0  0  0  0  0  0  0  0  0
    8.6811    9.5354   16.9998 C   0  0  0  0  0  0  0  0  0  0  0  0
    9.2512    4.2713   13.7653 O   0  0  0  0  0  0  0  0  0  0  0  0
    9.6495    8.6317   16.8332 N   0  0  0  0  0  0  0  0  0  0  0  0
    6.2934    8.6988   23.1988 O   0  0  0  0  0  0  0  0  0  0  0  0
    7.9806    8.6543   20.5437 C   0  0  0  0  0  0  0  0  0  0  0  0
   13.7270    5.7144   19.8610 O   0  0  0  0  0  0  0  0  0  0  0  0
    8.3351    5.5235   15.4478 C   0  0  0  0  0  0  0  0  0  0  0  0
    8.7700    7.8434   21.3915 C   0  0  0  0  0  0  0  0  0  0  0  0
   11.7856    6.8851   19.2401 C   0  0  0  0  0  0  0  0  0  0  0  0
   10.5281    7.4276   19.5649 C   0  0  0  0  0  0  0  0  0  0  0  0
   10.0256    7.2907   20.8484 C   0  0  0  0  0  0  0  0  0  0  0  0
    9.3113    5.3049   14.4911 C   0  0  0  0  0  0  0  0  0  0  0  0
    9.4607    7.5646   16.0139 C   0  0  0  0  0  0  0  0  0  0  0  0
   10.4192    7.3157   15.0955 C   0  0  0  0  0  0  0  0  0  0  0  0
   10.2489    6.4227   23.0218 N   0  0  0  0  0  0  0  0  0  0  0  0
    7.2472    8.0746   23.5050 C   0  0  0  0  0  0  0  0  0  0  0  0
    9.2051    6.9101   23.4604 C   0  0  0  0  0  0  0  0  0  0  0  0
   11.9646    6.0299   21.4251 C   0  0  0  0  0  0  0  0  0  0  0  0
  1  5  1  0
  1 13  1  0
  2 20  2  0
  2 28  1  0
  2 29  1  0
  3 19  4  0
  3 25  4  0
  4 23  4  0
  4 27  1  0
  4 30  4  0
  5 17  1  0
  6  8  1  0
  6 29  1  0
  7 24  4  0
  7 26  4  0
  8 28  1  0
  9 13  2  0
 10 18  1  0
 10 21  4  0
 10 30  4  0
 11 17  2  0
 12 18  1  0
 13 15  1  0
 14 24  1  0
 15 25  1  0
 16 28  2  0
 17 20  1  0
 19 24  4  0
 20 23  1  0
 21 22  4  0
 22 23  4  0
 25 26  4  0
 27 29  2  0
M  END
$$$$

 Created by Python create_sdf_string function

 30 33  0  0  0  0  0  0  0  0999 V2000
    8.3036    9.8571   18.4133 C   0  0  0  0  0  0  0  0  0  0  0  0
    8.3694    7.6612   22.6703 C   0  0  0  0  0  0  0  0  0  0  0  0
    8.4143    6.6863   16.2273 C   0  0  0  0  0  0  0  0  0  0  0  0
   10.7581    6.5674   21.7636 C   0  0  0  0  0  0  0  0  0  0  0  0
    8.4452    8.7960   19.2958 O   0  0  0  0  0  0  0  0  0  0  0  0
    8.7122    6.7842   24.8569 C   0  0  0  0  0  0  0  0  0  0  0  0
   10.3400    6.1726   14.3081 C   0  0  0  0  0  0  0  0  0  0  0  0
    7.4297    7.5873   24.8962 C   0  0  0  0  0  0  0  0  0  0  0  0
    8.1566   10.0536   16.0516 O   0  0  0  0  0  0  0  0  0  0  0  0
   12.4989    6.2074   20.1776 C   0  0  0  0  0  0  0  0  0  0  0  0
    6.9192    9.1053   20.9073 O   0  0  0  0  0  0  0  0  0  0  0  0
   14.3979    6.0729   18.7784 C   0  0  0  0  0  0  0  0  0  0  0  0
    8.6811    9.5354   16.9998 C   0  0  0  0  0  0  0  0  0  0  0  0
    9.2512    4.2713   13.7653 O   0  0  0  0  0  0  0  0  0  0  0  0
    9.6495    8.6317   16.8332 N   0  0  0  0  0  0  0  0  0  0  0  0
    6.2934    8.6988   23.1988 O   0  0  0  0  0  0  0  0  0  0  0  0
    7.9806    8.6543   20.5437 C   0  0  0  0  0  0  0  0  0  0  0  0
   13.7270    5.7144   19.8610 O   0  0  0  0  0  0  0  0  0  0  0  0
    8.3351    5.5235   15.4478 C   0  0  0  0  0  0  0  0  0  0  0  0
    8.7700    7.8434   21.3915 C   0  0  0  0  0  0  0  0  0  0  0  0
   11.7856    6.8851   19.2401 C   0  0  0  0  0  0  0  0  0  0  0  0
   10.5281    7.4276   19.5649 C   0  0  0  0  0  0  0  0  0  0  0  0
   10.0256    7.2907   20.8484 C   0  0  0  0  0  0  0  0  0  0  0  0
    9.3113    5.3049   14.4911 C   0  0  0  0  0  0  0  0  0  0  0  0
    9.4607    7.5646   16.0139 C   0  0  0  0  0  0  0  0  0  0  0  0
   10.4192    7.3157   15.0955 C   0  0  0  0  0  0  0  0  0  0  0  0
   10.2489    6.4227   23.0218 N   0  0  0  0  0  0  0  0  0  0  0  0
    7.2472    8.0746   23.5050 C   0  0  0  0  0  0  0  0  0  0  0  0
    9.2051    6.9101   23.4604 C   0  0  0  0  0  0  0  0  0  0  0  0
   11.9646    6.0299   21.4251 C   0  0  0  0  0  0  0  0  0  0  0  0
  1  5  1  0
  1 13  1  0
  2 20  2  0
  2 28  1  0
  2 29  1  0
  3 19  4  0
  3 25  4  0
  4 23  4  0
  4 27  1  0
  4 30  4  0
  5 17  1  0
  6  8  1  0
  6 29  1  0
  7 24  4  0
  7 26  4  0
  8 28  1  0
  9 13  2  0
 10 18  1  0
 10 21  4  0
 10 30  4  0
 11 17  2  0
 12 18  1  0
 13 15  1  0
 14 24  1  0
 15 25  1  0
 16 28  2  0
 17 20  1  0
 19 24  4  0
 20 23  1  0
 21 22  4  0
 22 23  4  0
 25 26  4  0
 27 29  2  0
M  END
$$$$

 Created by Python create_sdf_string function

 30 33  0  0  0  0  0  0  0  0999 V2000
    8.3036    9.8571   18.4133 C   0  0  0  0  0  0  0  0  0  0  0  0
    8.3694    7.6612   22.6703 C   0  0  0  0  0  0  0  0  0  0  0  0
    8.4143    6.6863   16.2273 C   0  0  0  0  0  0  0  0  0  0  0  0
   10.7581    6.5674   21.7636 C   0  0  0  0  0  0  0  0  0  0  0  0
    8.4452    8.7960   19.2958 O   0  0  0  0  0  0  0  0  0  0  0  0
    8.7122    6.7842   24.8569 C   0  0  0  0  0  0  0  0  0  0  0  0
   10.3400    6.1726   14.3081 C   0  0  0  0  0  0  0  0  0  0  0  0
    7.4297    7.5873   24.8962 C   0  0  0  0  0  0  0  0  0  0  0  0
    8.1566   10.0536   16.0516 O   0  0  0  0  0  0  0  0  0  0  0  0
   12.4989    6.2074   20.1776 C   0  0  0  0  0  0  0  0  0  0  0  0
    6.9192    9.1053   20.9073 O   0  0  0  0  0  0  0  0  0  0  0  0
   14.3979    6.0729   18.7784 C   0  0  0  0  0  0  0  0  0  0  0  0
    8.6811    9.5354   16.9998 C   0  0  0  0  0  0  0  0  0  0  0  0
    9.2512    4.2713   13.7653 O   0  0  0  0  0  0  0  0  0  0  0  0
    9.6495    8.6317   16.8332 N   0  0  0  0  0  0  0  0  0  0  0  0
    6.2934    8.6988   23.1988 O   0  0  0  0  0  0  0  0  0  0  0  0
    7.9806    8.6543   20.5437 C   0  0  0  0  0  0  0  0  0  0  0  0
   13.7270    5.7144   19.8610 O   0  0  0  0  0  0  0  0  0  0  0  0
    8.3351    5.5235   15.4478 C   0  0  0  0  0  0  0  0  0  0  0  0
    8.7700    7.8434   21.3915 C   0  0  0  0  0  0  0  0  0  0  0  0
   11.7856    6.8851   19.2401 C   0  0  0  0  0  0  0  0  0  0  0  0
   10.5281    7.4276   19.5649 C   0  0  0  0  0  0  0  0  0  0  0  0
   10.0256    7.2907   20.8484 C   0  0  0  0  0  0  0  0  0  0  0  0
    9.3113    5.3049   14.4911 C   0  0  0  0  0  0  0  0  0  0  0  0
    9.4607    7.5646   16.0139 C   0  0  0  0  0  0  0  0  0  0  0  0
   10.4192    7.3157   15.0955 C   0  0  0  0  0  0  0  0  0  0  0  0
   10.2489    6.4227   23.0218 N   0  0  0  0  0  0  0  0  0  0  0  0
    7.2472    8.0746   23.5050 C   0  0  0  0  0  0  0  0  0  0  0  0
    9.2051    6.9101   23.4604 C   0  0  0  0  0  0  0  0  0  0  0  0
   11.9646    6.0299   21.4251 C   0  0  0  0  0  0  0  0  0  0  0  0
  1  5  1  0
  1 13  1  0
  2 20  2  0
  2 28  1  0
  2 29  1  0
  3 19  4  0
  3 25  4  0
  4 23  4  0
  4 27  1  0
  4 30  4  0
  5 17  1  0
  6  8  1  0
  6 29  1  0
  7 24  4  0
  7 26  4  0
  8 28  1  0
  9 13  2  0
 10 18  1  0
 10 21  4  0
 10 30  4  0
 11 17  2  0
 12 18  1  0
 13 15  1  0
 14 24  1  0
 15 25  1  0
 16 28  2  0
 17 20  1  0
 19 24  4  0
 20 23  1  0
 21 22  4  0
 22 23  4  0
 25 26  4  0
 27 29  2  0
M  END
$$$$

 Created by Python create_sdf_string function

 30 33  0  0  0  0  0  0  0  0999 V2000
    8.3036    9.8571   18.4133 C   0  0  0  0  0  0  0  0  0  0  0  0
    8.3694    7.6612   22.6703 C   0  0  0  0  0  0  0  0  0  0  0  0
    8.4143    6.6863   16.2273 C   0  0  0  0  0  0  0  0  0  0  0  0
   10.7581    6.5674   21.7636 C   0  0  0  0  0  0  0  0  0  0  0  0
    8.4452    8.7960   19.2958 O   0  0  0  0  0  0  0  0  0  0  0  0
    8.7122    6.7842   24.8569 C   0  0  0  0  0  0  0  0  0  0  0  0
   10.3400    6.1726   14.3081 C   0  0  0  0  0  0  0  0  0  0  0  0
    7.4297    7.5873   24.8962 C   0  0  0  0  0  0  0  0  0  0  0  0
    8.1566   10.0536   16.0516 O   0  0  0  0  0  0  0  0  0  0  0  0
   12.4989    6.2074   20.1776 C   0  0  0  0  0  0  0  0  0  0  0  0
    6.9192    9.1053   20.9073 O   0  0  0  0  0  0  0  0  0  0  0  0
   14.3979    6.0729   18.7784 C   0  0  0  0  0  0  0  0  0  0  0  0
    8.6811    9.5354   16.9998 C   0  0  0  0  0  0  0  0  0  0  0  0
    9.2512    4.2713   13.7653 O   0  0  0  0  0  0  0  0  0  0  0  0
    9.6495    8.6317   16.8332 N   0  0  0  0  0  0  0  0  0  0  0  0
    6.2934    8.6988   23.1988 O   0  0  0  0  0  0  0  0  0  0  0  0
    7.9806    8.6543   20.5437 C   0  0  0  0  0  0  0  0  0  0  0  0
   13.7270    5.7144   19.8610 O   0  0  0  0  0  0  0  0  0  0  0  0
    8.3351    5.5235   15.4478 C   0  0  0  0  0  0  0  0  0  0  0  0
    8.7700    7.8434   21.3915 C   0  0  0  0  0  0  0  0  0  0  0  0
   11.7856    6.8851   19.2401 C   0  0  0  0  0  0  0  0  0  0  0  0
   10.5281    7.4276   19.5649 C   0  0  0  0  0  0  0  0  0  0  0  0
   10.0256    7.2907   20.8484 C   0  0  0  0  0  0  0  0  0  0  0  0
    9.3113    5.3049   14.4911 C   0  0  0  0  0  0  0  0  0  0  0  0
    9.4607    7.5646   16.0139 C   0  0  0  0  0  0  0  0  0  0  0  0
   10.4192    7.3157   15.0955 C   0  0  0  0  0  0  0  0  0  0  0  0
   10.2489    6.4227   23.0218 N   0  0  0  0  0  0  0  0  0  0  0  0
    7.2472    8.0746   23.5050 C   0  0  0  0  0  0  0  0  0  0  0  0
    9.2051    6.9101   23.4604 C   0  0  0  0  0  0  0  0  0  0  0  0
   11.9646    6.0299   21.4251 C   0  0  0  0  0  0  0  0  0  0  0  0
  1  5  1  0
  1 13  1  0
  2 20  2  0
  2 28  1  0
  2 29  1  0
  3 19  4  0
  3 25  4  0
  4 23  4  0
  4 27  1  0
  4 30  4  0
  5 17  1  0
  6  8  1  0
  6 29  1  0
  7 24  4  0
  7 26  4  0
  8 28  1  0
  9 13  2  0
 10 18  1  0
 10 21  4  0
 10 30  4  0
 11 17  2  0
 12 18  1  0
 13 15  1  0
 14 24  1  0
 15 25  1  0
 16 28  2  0
 17 20  1  0
 19 24  4  0
 20 23  1  0
 21 22  4  0
 22 23  4  0
 25 26  4  0
 27 29  2  0
M  END
$$$$

 Created by Python create_sdf_string function

 30 33  0  0  0  0  0  0  0  0999 V2000
    8.3036    9.8571   18.4133 C   0  0  0  0  0  0  0  0  0  0  0  0
    8.3694    7.6612   22.6703 C   0  0  0  0  0  0  0  0  0  0  0  0
    8.4143    6.6863   16.2273 C   0  0  0  0  0  0  0  0  0  0  0  0
   10.7581    6.5674   21.7636 C   0  0  0  0  0  0  0  0  0  0  0  0
    8.4452    8.7960   19.2958 O   0  0  0  0  0  0  0  0  0  0  0  0
    8.7122    6.7842   24.8569 C   0  0  0  0  0  0  0  0  0  0  0  0
   10.3400    6.1726   14.3081 C   0  0  0  0  0  0  0  0  0  0  0  0
    7.4297    7.5873   24.8962 C   0  0  0  0  0  0  0  0  0  0  0  0
    8.1566   10.0536   16.0516 O   0  0  0  0  0  0  0  0  0  0  0  0
   12.4989    6.2074   20.1776 C   0  0  0  0  0  0  0  0  0  0  0  0
    6.9192    9.1053   20.9073 O   0  0  0  0  0  0  0  0  0  0  0  0
   14.3979    6.0729   18.7784 C   0  0  0  0  0  0  0  0  0  0  0  0
    8.6811    9.5354   16.9998 C   0  0  0  0  0  0  0  0  0  0  0  0
    9.2512    4.2713   13.7653 O   0  0  0  0  0  0  0  0  0  0  0  0
    9.6495    8.6317   16.8332 N   0  0  0  0  0  0  0  0  0  0  0  0
    6.2934    8.6988   23.1988 O   0  0  0  0  0  0  0  0  0  0  0  0
    7.9806    8.6543   20.5437 C   0  0  0  0  0  0  0  0  0  0  0  0
   13.7270    5.7144   19.8610 O   0  0  0  0  0  0  0  0  0  0  0  0
    8.3351    5.5235   15.4478 C   0  0  0  0  0  0  0  0  0  0  0  0
    8.7700    7.8434   21.3915 C   0  0  0  0  0  0  0  0  0  0  0  0
   11.7856    6.8851   19.2401 C   0  0  0  0  0  0  0  0  0  0  0  0
   10.5281    7.4276   19.5649 C   0  0  0  0  0  0  0  0  0  0  0  0
   10.0256    7.2907   20.8484 C   0  0  0  0  0  0  0  0  0  0  0  0
    9.3113    5.3049   14.4911 C   0  0  0  0  0  0  0  0  0  0  0  0
    9.4607    7.5646   16.0139 C   0  0  0  0  0  0  0  0  0  0  0  0
   10.4192    7.3157   15.0955 C   0  0  0  0  0  0  0  0  0  0  0  0
   10.2489    6.4227   23.0218 N   0  0  0  0  0  0  0  0  0  0  0  0
    7.2472    8.0746   23.5050 C   0  0  0  0  0  0  0  0  0  0  0  0
    9.2051    6.9101   23.4604 C   0  0  0  0  0  0  0  0  0  0  0  0
   11.9646    6.0299   21.4251 C   0  0  0  0  0  0  0  0  0  0  0  0
  1  5  1  0
  1 13  1  0
  2 20  2  0
  2 28  1  0
  2 29  1  0
  3 19  4  0
  3 25  4  0
  4 23  4  0
  4 27  1  0
  4 30  4  0
  5 17  1  0
  6  8  1  0
  6 29  1  0
  7 24  4  0
  7 26  4  0
  8 28  1  0
  9 13  2  0
 10 18  1  0
 10 21  4  0
 10 30  4  0
 11 17  2  0
 12 18  1  0
 13 15  1  0
 14 24  1  0
 15 25  1  0
 16 28  2  0
 17 20  1  0
 19 24  4  0
 20 23  1  0
 21 22  4  0
 22 23  4  0
 25 26  4  0
 27 29  2  0
M  END
$$$$

 Created by Python create_sdf_string function

 30 33  0  0  0  0  0  0  0  0999 V2000
    8.3036    9.8571   18.4133 C   0  0  0  0  0  0  0  0  0  0  0  0
    8.3694    7.6612   22.6703 C   0  0  0  0  0  0  0  0  0  0  0  0
    8.4143    6.6863   16.2273 C   0  0  0  0  0  0  0  0  0  0  0  0
   10.7581    6.5674   21.7636 C   0  0  0  0  0  0  0  0  0  0  0  0
    8.4452    8.7960   19.2958 O   0  0  0  0  0  0  0  0  0  0  0  0
    8.7122    6.7842   24.8569 C   0  0  0  0  0  0  0  0  0  0  0  0
   10.3400    6.1726   14.3081 C   0  0  0  0  0  0  0  0  0  0  0  0
    7.4297    7.5873   24.8962 C   0  0  0  0  0  0  0  0  0  0  0  0
    8.1566   10.0536   16.0516 O   0  0  0  0  0  0  0  0  0  0  0  0
   12.4989    6.2074   20.1776 C   0  0  0  0  0  0  0  0  0  0  0  0
    6.9192    9.1053   20.9073 O   0  0  0  0  0  0  0  0  0  0  0  0
   14.3979    6.0729   18.7784 C   0  0  0  0  0  0  0  0  0  0  0  0
    8.6811    9.5354   16.9998 C   0  0  0  0  0  0  0  0  0  0  0  0
    9.2512    4.2713   13.7653 O   0  0  0  0  0  0  0  0  0  0  0  0
    9.6495    8.6317   16.8332 N   0  0  0  0  0  0  0  0  0  0  0  0
    6.2934    8.6988   23.1988 O   0  0  0  0  0  0  0  0  0  0  0  0
    7.9806    8.6543   20.5437 C   0  0  0  0  0  0  0  0  0  0  0  0
   13.7270    5.7144   19.8610 O   0  0  0  0  0  0  0  0  0  0  0  0
    8.3351    5.5235   15.4478 C   0  0  0  0  0  0  0  0  0  0  0  0
    8.7700    7.8434   21.3915 C   0  0  0  0  0  0  0  0  0  0  0  0
   11.7856    6.8851   19.2401 C   0  0  0  0  0  0  0  0  0  0  0  0
   10.5281    7.4276   19.5649 C   0  0  0  0  0  0  0  0  0  0  0  0
   10.0256    7.2907   20.8484 C   0  0  0  0  0  0  0  0  0  0  0  0
    9.3113    5.3049   14.4911 C   0  0  0  0  0  0  0  0  0  0  0  0
    9.4607    7.5646   16.0139 C   0  0  0  0  0  0  0  0  0  0  0  0
   10.4192    7.3157   15.0955 C   0  0  0  0  0  0  0  0  0  0  0  0
   10.2489    6.4227   23.0218 N   0  0  0  0  0  0  0  0  0  0  0  0
    7.2472    8.0746   23.5050 C   0  0  0  0  0  0  0  0  0  0  0  0
    9.2051    6.9101   23.4604 C   0  0  0  0  0  0  0  0  0  0  0  0
   11.9646    6.0299   21.4251 C   0  0  0  0  0  0  0  0  0  0  0  0
  1  5  1  0
  1 13  1  0
  2 20  2  0
  2 28  1  0
  2 29  1  0
  3 19  4  0
  3 25  4  0
  4 23  4  0
  4 27  1  0
  4 30  4  0
  5 17  1  0
  6  8  1  0
  6 29  1  0
  7 24  4  0
  7 26  4  0
  8 28  1  0
  9 13  2  0
 10 18  1  0
 10 21  4  0
 10 30  4  0
 11 17  2  0
 12 18  1  0
 13 15  1  0
 14 24  1  0
 15 25  1  0
 16 28  2  0
 17 20  1  0
 19 24  4  0
 20 23  1  0
 21 22  4  0
 22 23  4  0
 25 26  4  0
 27 29  2  0
M  END
$$$$

 Created by Python create_sdf_string function

 30 33  0  0  0  0  0  0  0  0999 V2000
    8.3036    9.8571   18.4133 C   0  0  0  0  0  0  0  0  0  0  0  0
    8.3694    7.6612   22.6703 C   0  0  0  0  0  0  0  0  0  0  0  0
    8.4143    6.6863   16.2273 C   0  0  0  0  0  0  0  0  0  0  0  0
   10.7581    6.5674   21.7636 C   0  0  0  0  0  0  0  0  0  0  0  0
    8.4452    8.7960   19.2958 O   0  0  0  0  0  0  0  0  0  0  0  0
    8.7122    6.7842   24.8569 C   0  0  0  0  0  0  0  0  0  0  0  0
   10.3400    6.1726   14.3081 C   0  0  0  0  0  0  0  0  0  0  0  0
    7.4297    7.5873   24.8962 C   0  0  0  0  0  0  0  0  0  0  0  0
    8.1566   10.0536   16.0516 O   0  0  0  0  0  0  0  0  0  0  0  0
   12.4989    6.2074   20.1776 C   0  0  0  0  0  0  0  0  0  0  0  0
    6.9192    9.1053   20.9073 O   0  0  0  0  0  0  0  0  0  0  0  0
   14.3979    6.0729   18.7784 C   0  0  0  0  0  0  0  0  0  0  0  0
    8.6811    9.5354   16.9998 C   0  0  0  0  0  0  0  0  0  0  0  0
    9.2512    4.2713   13.7653 O   0  0  0  0  0  0  0  0  0  0  0  0
    9.6495    8.6317   16.8332 N   0  0  0  0  0  0  0  0  0  0  0  0
    6.2934    8.6988   23.1988 O   0  0  0  0  0  0  0  0  0  0  0  0
    7.9806    8.6543   20.5437 C   0  0  0  0  0  0  0  0  0  0  0  0
   13.7270    5.7144   19.8610 O   0  0  0  0  0  0  0  0  0  0  0  0
    8.3351    5.5235   15.4478 C   0  0  0  0  0  0  0  0  0  0  0  0
    8.7700    7.8434   21.3915 C   0  0  0  0  0  0  0  0  0  0  0  0
   11.7856    6.8851   19.2401 C   0  0  0  0  0  0  0  0  0  0  0  0
   10.5281    7.4276   19.5649 C   0  0  0  0  0  0  0  0  0  0  0  0
   10.0256    7.2907   20.8484 C   0  0  0  0  0  0  0  0  0  0  0  0
    9.3113    5.3049   14.4911 C   0  0  0  0  0  0  0  0  0  0  0  0
    9.4607    7.5646   16.0139 C   0  0  0  0  0  0  0  0  0  0  0  0
   10.4192    7.3157   15.0955 C   0  0  0  0  0  0  0  0  0  0  0  0
   10.2489    6.4227   23.0218 N   0  0  0  0  0  0  0  0  0  0  0  0
    7.2472    8.0746   23.5050 C   0  0  0  0  0  0  0  0  0  0  0  0
    9.2051    6.9101   23.4604 C   0  0  0  0  0  0  0  0  0  0  0  0
   11.9646    6.0299   21.4251 C   0  0  0  0  0  0  0  0  0  0  0  0
  1  5  1  0
  1 13  1  0
  2 20  2  0
  2 28  1  0
  2 29  1  0
  3 19  4  0
  3 25  4  0
  4 23  4  0
  4 27  1  0
  4 30  4  0
  5 17  1  0
  6  8  1  0
  6 29  1  0
  7 24  4  0
  7 26  4  0
  8 28  1  0
  9 13  2  0
 10 18  1  0
 10 21  4  0
 10 30  4  0
 11 17  2  0
 12 18  1  0
 13 15  1  0
 14 24  1  0
 15 25  1  0
 16 28  2  0
 17 20  1  0
 19 24  4  0
 20 23  1  0
 21 22  4  0
 22 23  4  0
 25 26  4  0
 27 29  2  0
M  END
$$$$

 Created by Python create_sdf_string function

 30 33  0  0  0  0  0  0  0  0999 V2000
    8.3036    9.8571   18.4133 C   0  0  0  0  0  0  0  0  0  0  0  0
    8.3694    7.6612   22.6703 C   0  0  0  0  0  0  0  0  0  0  0  0
    8.4143    6.6863   16.2273 C   0  0  0  0  0  0  0  0  0  0  0  0
   10.7581    6.5674   21.7636 C   0  0  0  0  0  0  0  0  0  0  0  0
    8.4452    8.7960   19.2958 O   0  0  0  0  0  0  0  0  0  0  0  0
    8.7122    6.7842   24.8569 C   0  0  0  0  0  0  0  0  0  0  0  0
   10.3400    6.1726   14.3081 C   0  0  0  0  0  0  0  0  0  0  0  0
    7.4297    7.5873   24.8962 C   0  0  0  0  0  0  0  0  0  0  0  0
    8.1566   10.0536   16.0516 O   0  0  0  0  0  0  0  0  0  0  0  0
   12.4989    6.2074   20.1776 C   0  0  0  0  0  0  0  0  0  0  0  0
    6.9192    9.1053   20.9073 O   0  0  0  0  0  0  0  0  0  0  0  0
   14.3979    6.0729   18.7784 C   0  0  0  0  0  0  0  0  0  0  0  0
    8.6811    9.5354   16.9998 C   0  0  0  0  0  0  0  0  0  0  0  0
    9.2512    4.2713   13.7653 O   0  0  0  0  0  0  0  0  0  0  0  0
    9.6495    8.6317   16.8332 N   0  0  0  0  0  0  0  0  0  0  0  0
    6.2934    8.6988   23.1988 O   0  0  0  0  0  0  0  0  0  0  0  0
    7.9806    8.6543   20.5437 C   0  0  0  0  0  0  0  0  0  0  0  0
   13.7270    5.7144   19.8610 O   0  0  0  0  0  0  0  0  0  0  0  0
    8.3351    5.5235   15.4478 C   0  0  0  0  0  0  0  0  0  0  0  0
    8.7700    7.8434   21.3915 C   0  0  0  0  0  0  0  0  0  0  0  0
   11.7856    6.8851   19.2401 C   0  0  0  0  0  0  0  0  0  0  0  0
   10.5281    7.4276   19.5649 C   0  0  0  0  0  0  0  0  0  0  0  0
   10.0256    7.2907   20.8484 C   0  0  0  0  0  0  0  0  0  0  0  0
    9.3113    5.3049   14.4911 C   0  0  0  0  0  0  0  0  0  0  0  0
    9.4607    7.5646   16.0139 C   0  0  0  0  0  0  0  0  0  0  0  0
   10.4192    7.3157   15.0955 C   0  0  0  0  0  0  0  0  0  0  0  0
   10.2489    6.4227   23.0218 N   0  0  0  0  0  0  0  0  0  0  0  0
    7.2472    8.0746   23.5050 C   0  0  0  0  0  0  0  0  0  0  0  0
    9.2051    6.9101   23.4604 C   0  0  0  0  0  0  0  0  0  0  0  0
   11.9646    6.0299   21.4251 C   0  0  0  0  0  0  0  0  0  0  0  0
  1  5  1  0
  1 13  1  0
  2 20  2  0
  2 28  1  0
  2 29  1  0
  3 19  4  0
  3 25  4  0
  4 23  4  0
  4 27  1  0
  4 30  4  0
  5 17  1  0
  6  8  1  0
  6 29  1  0
  7 24  4  0
  7 26  4  0
  8 28  1  0
  9 13  2  0
 10 18  1  0
 10 21  4  0
 10 30  4  0
 11 17  2  0
 12 18  1  0
 13 15  1  0
 14 24  1  0
 15 25  1  0
 16 28  2  0
 17 20  1  0
 19 24  4  0
 20 23  1  0
 21 22  4  0
 22 23  4  0
 25 26  4  0
 27 29  2  0
M  END
$$$$

 Created by Python create_sdf_string function

 30 33  0  0  0  0  0  0  0  0999 V2000
    8.3036    9.8571   18.4133 C   0  0  0  0  0  0  0  0  0  0  0  0
    8.3694    7.6612   22.6703 C   0  0  0  0  0  0  0  0  0  0  0  0
    8.4143    6.6863   16.2273 C   0  0  0  0  0  0  0  0  0  0  0  0
   10.7581    6.5674   21.7636 C   0  0  0  0  0  0  0  0  0  0  0  0
    8.4452    8.7960   19.2958 O   0  0  0  0  0  0  0  0  0  0  0  0
    8.7122    6.7842   24.8569 C   0  0  0  0  0  0  0  0  0  0  0  0
   10.3400    6.1726   14.3081 C   0  0  0  0  0  0  0  0  0  0  0  0
    7.4297    7.5873   24.8962 C   0  0  0  0  0  0  0  0  0  0  0  0
    8.1566   10.0536   16.0516 O   0  0  0  0  0  0  0  0  0  0  0  0
   12.4989    6.2074   20.1776 C   0  0  0  0  0  0  0  0  0  0  0  0
    6.9192    9.1053   20.9073 O   0  0  0  0  0  0  0  0  0  0  0  0
   14.3979    6.0729   18.7784 C   0  0  0  0  0  0  0  0  0  0  0  0
    8.6811    9.5354   16.9998 C   0  0  0  0  0  0  0  0  0  0  0  0
    9.2512    4.2713   13.7653 O   0  0  0  0  0  0  0  0  0  0  0  0
    9.6495    8.6317   16.8332 N   0  0  0  0  0  0  0  0  0  0  0  0
    6.2934    8.6988   23.1988 O   0  0  0  0  0  0  0  0  0  0  0  0
    7.9806    8.6543   20.5437 C   0  0  0  0  0  0  0  0  0  0  0  0
   13.7270    5.7144   19.8610 O   0  0  0  0  0  0  0  0  0  0  0  0
    8.3351    5.5235   15.4478 C   0  0  0  0  0  0  0  0  0  0  0  0
    8.7700    7.8434   21.3915 C   0  0  0  0  0  0  0  0  0  0  0  0
   11.7856    6.8851   19.2401 C   0  0  0  0  0  0  0  0  0  0  0  0
   10.5281    7.4276   19.5649 C   0  0  0  0  0  0  0  0  0  0  0  0
   10.0256    7.2907   20.8484 C   0  0  0  0  0  0  0  0  0  0  0  0
    9.3113    5.3049   14.4911 C   0  0  0  0  0  0  0  0  0  0  0  0
    9.4607    7.5646   16.0139 C   0  0  0  0  0  0  0  0  0  0  0  0
   10.4192    7.3157   15.0955 C   0  0  0  0  0  0  0  0  0  0  0  0
   10.2489    6.4227   23.0218 N   0  0  0  0  0  0  0  0  0  0  0  0
    7.2472    8.0746   23.5050 C   0  0  0  0  0  0  0  0  0  0  0  0
    9.2051    6.9101   23.4604 C   0  0  0  0  0  0  0  0  0  0  0  0
   11.9646    6.0299   21.4251 C   0  0  0  0  0  0  0  0  0  0  0  0
  1  5  1  0
  1 13  1  0
  2 20  2  0
  2 28  1  0
  2 29  1  0
  3 19  4  0
  3 25  4  0
  4 23  4  0
  4 27  1  0
  4 30  4  0
  5 17  1  0
  6  8  1  0
  6 29  1  0
  7 24  4  0
  7 26  4  0
  8 28  1  0
  9 13  2  0
 10 18  1  0
 10 21  4  0
 10 30  4  0
 11 17  2  0
 12 18  1  0
 13 15  1  0
 14 24  1  0
 15 25  1  0
 16 28  2  0
 17 20  1  0
 19 24  4  0
 20 23  1  0
 21 22  4  0
 22 23  4  0
 25 26  4  0
 27 29  2  0
M  END
$$$$

 Created by Python create_sdf_string function

 30 33  0  0  0  0  0  0  0  0999 V2000
    8.3036    9.8571   18.4133 C   0  0  0  0  0  0  0  0  0  0  0  0
    8.3694    7.6612   22.6703 C   0  0  0  0  0  0  0  0  0  0  0  0
    8.4143    6.6863   16.2273 C   0  0  0  0  0  0  0  0  0  0  0  0
   10.7581    6.5674   21.7636 C   0  0  0  0  0  0  0  0  0  0  0  0
    8.4452    8.7960   19.2958 O   0  0  0  0  0  0  0  0  0  0  0  0
    8.7122    6.7842   24.8569 C   0  0  0  0  0  0  0  0  0  0  0  0
   10.3400    6.1726   14.3081 C   0  0  0  0  0  0  0  0  0  0  0  0
    7.4297    7.5873   24.8962 C   0  0  0  0  0  0  0  0  0  0  0  0
    8.1566   10.0536   16.0516 O   0  0  0  0  0  0  0  0  0  0  0  0
   12.4989    6.2074   20.1776 C   0  0  0  0  0  0  0  0  0  0  0  0
    6.9192    9.1053   20.9073 O   0  0  0  0  0  0  0  0  0  0  0  0
   14.3979    6.0729   18.7784 C   0  0  0  0  0  0  0  0  0  0  0  0
    8.6811    9.5354   16.9998 C   0  0  0  0  0  0  0  0  0  0  0  0
    9.2512    4.2713   13.7653 O   0  0  0  0  0  0  0  0  0  0  0  0
    9.6495    8.6317   16.8332 N   0  0  0  0  0  0  0  0  0  0  0  0
    6.2934    8.6988   23.1988 O   0  0  0  0  0  0  0  0  0  0  0  0
    7.9806    8.6543   20.5437 C   0  0  0  0  0  0  0  0  0  0  0  0
   13.7270    5.7144   19.8610 O   0  0  0  0  0  0  0  0  0  0  0  0
    8.3351    5.5235   15.4478 C   0  0  0  0  0  0  0  0  0  0  0  0
    8.7700    7.8434   21.3915 C   0  0  0  0  0  0  0  0  0  0  0  0
   11.7856    6.8851   19.2401 C   0  0  0  0  0  0  0  0  0  0  0  0
   10.5281    7.4276   19.5649 C   0  0  0  0  0  0  0  0  0  0  0  0
   10.0256    7.2907   20.8484 C   0  0  0  0  0  0  0  0  0  0  0  0
    9.3113    5.3049   14.4911 C   0  0  0  0  0  0  0  0  0  0  0  0
    9.4607    7.5646   16.0139 C   0  0  0  0  0  0  0  0  0  0  0  0
   10.4192    7.3157   15.0955 C   0  0  0  0  0  0  0  0  0  0  0  0
   10.2489    6.4227   23.0218 N   0  0  0  0  0  0  0  0  0  0  0  0
    7.2472    8.0746   23.5050 C   0  0  0  0  0  0  0  0  0  0  0  0
    9.2051    6.9101   23.4604 C   0  0  0  0  0  0  0  0  0  0  0  0
   11.9646    6.0299   21.4251 C   0  0  0  0  0  0  0  0  0  0  0  0
  1  5  1  0
  1 13  1  0
  2 20  2  0
  2 28  1  0
  2 29  1  0
  3 19  4  0
  3 25  4  0
  4 23  4  0
  4 27  1  0
  4 30  4  0
  5 17  1  0
  6  8  1  0
  6 29  1  0
  7 24  4  0
  7 26  4  0
  8 28  1  0
  9 13  2  0
 10 18  1  0
 10 21  4  0
 10 30  4  0
 11 17  2  0
 12 18  1  0
 13 15  1  0
 14 24  1  0
 15 25  1  0
 16 28  2  0
 17 20  1  0
 19 24  4  0
 20 23  1  0
 21 22  4  0
 22 23  4  0
 25 26  4  0
 27 29  2  0
M  END
$$$$

 Created by Python create_sdf_string function

 30 33  0  0  0  0  0  0  0  0999 V2000
    8.3036    9.8571   18.4133 C   0  0  0  0  0  0  0  0  0  0  0  0
    8.3694    7.6612   22.6703 C   0  0  0  0  0  0  0  0  0  0  0  0
    8.4143    6.6863   16.2273 C   0  0  0  0  0  0  0  0  0  0  0  0
   10.7581    6.5674   21.7636 C   0  0  0  0  0  0  0  0  0  0  0  0
    8.4452    8.7960   19.2958 O   0  0  0  0  0  0  0  0  0  0  0  0
    8.7122    6.7842   24.8569 C   0  0  0  0  0  0  0  0  0  0  0  0
   10.3400    6.1726   14.3081 C   0  0  0  0  0  0  0  0  0  0  0  0
    7.4297    7.5873   24.8962 C   0  0  0  0  0  0  0  0  0  0  0  0
    8.1566   10.0536   16.0516 O   0  0  0  0  0  0  0  0  0  0  0  0
   12.4989    6.2074   20.1776 C   0  0  0  0  0  0  0  0  0  0  0  0
    6.9192    9.1053   20.9073 O   0  0  0  0  0  0  0  0  0  0  0  0
   14.3979    6.0729   18.7784 C   0  0  0  0  0  0  0  0  0  0  0  0
    8.6811    9.5354   16.9998 C   0  0  0  0  0  0  0  0  0  0  0  0
    9.2512    4.2713   13.7653 O   0  0  0  0  0  0  0  0  0  0  0  0
    9.6495    8.6317   16.8332 N   0  0  0  0  0  0  0  0  0  0  0  0
    6.2934    8.6988   23.1988 O   0  0  0  0  0  0  0  0  0  0  0  0
    7.9806    8.6543   20.5437 C   0  0  0  0  0  0  0  0  0  0  0  0
   13.7270    5.7144   19.8610 O   0  0  0  0  0  0  0  0  0  0  0  0
    8.3351    5.5235   15.4478 C   0  0  0  0  0  0  0  0  0  0  0  0
    8.7700    7.8434   21.3915 C   0  0  0  0  0  0  0  0  0  0  0  0
   11.7856    6.8851   19.2401 C   0  0  0  0  0  0  0  0  0  0  0  0
   10.5281    7.4276   19.5649 C   0  0  0  0  0  0  0  0  0  0  0  0
   10.0256    7.2907   20.8484 C   0  0  0  0  0  0  0  0  0  0  0  0
    9.3113    5.3049   14.4911 C   0  0  0  0  0  0  0  0  0  0  0  0
    9.4607    7.5646   16.0139 C   0  0  0  0  0  0  0  0  0  0  0  0
   10.4192    7.3157   15.0955 C   0  0  0  0  0  0  0  0  0  0  0  0
   10.2489    6.4227   23.0218 N   0  0  0  0  0  0  0  0  0  0  0  0
    7.2472    8.0746   23.5050 C   0  0  0  0  0  0  0  0  0  0  0  0
    9.2051    6.9101   23.4604 C   0  0  0  0  0  0  0  0  0  0  0  0
   11.9646    6.0299   21.4251 C   0  0  0  0  0  0  0  0  0  0  0  0
  1  5  1  0
  1 13  1  0
  2 20  2  0
  2 28  1  0
  2 29  1  0
  3 19  4  0
  3 25  4  0
  4 23  4  0
  4 27  1  0
  4 30  4  0
  5 17  1  0
  6  8  1  0
  6 29  1  0
  7 24  4  0
  7 26  4  0
  8 28  1  0
  9 13  2  0
 10 18  1  0
 10 21  4  0
 10 30  4  0
 11 17  2  0
 12 18  1  0
 13 15  1  0
 14 24  1  0
 15 25  1  0
 16 28  2  0
 17 20  1  0
 19 24  4  0
 20 23  1  0
 21 22  4  0
 22 23  4  0
 25 26  4  0
 27 29  2  0
M  END
$$$$

 Created by Python create_sdf_string function

 30 33  0  0  0  0  0  0  0  0999 V2000
    8.3036    9.8571   18.4133 C   0  0  0  0  0  0  0  0  0  0  0  0
    8.3694    7.6612   22.6703 C   0  0  0  0  0  0  0  0  0  0  0  0
    8.4143    6.6863   16.2273 C   0  0  0  0  0  0  0  0  0  0  0  0
   10.7581    6.5674   21.7636 C   0  0  0  0  0  0  0  0  0  0  0  0
    8.4452    8.7960   19.2958 O   0  0  0  0  0  0  0  0  0  0  0  0
    8.7122    6.7842   24.8569 C   0  0  0  0  0  0  0  0  0  0  0  0
   10.3400    6.1726   14.3081 C   0  0  0  0  0  0  0  0  0  0  0  0
    7.4297    7.5873   24.8962 C   0  0  0  0  0  0  0  0  0  0  0  0
    8.1566   10.0536   16.0516 O   0  0  0  0  0  0  0  0  0  0  0  0
   12.4989    6.2074   20.1776 C   0  0  0  0  0  0  0  0  0  0  0  0
    6.9192    9.1053   20.9073 O   0  0  0  0  0  0  0  0  0  0  0  0
   14.3979    6.0729   18.7784 C   0  0  0  0  0  0  0  0  0  0  0  0
    8.6811    9.5354   16.9998 C   0  0  0  0  0  0  0  0  0  0  0  0
    9.2512    4.2713   13.7653 O   0  0  0  0  0  0  0  0  0  0  0  0
    9.6495    8.6317   16.8332 N   0  0  0  0  0  0  0  0  0  0  0  0
    6.2934    8.6988   23.1988 O   0  0  0  0  0  0  0  0  0  0  0  0
    7.9806    8.6543   20.5437 C   0  0  0  0  0  0  0  0  0  0  0  0
   13.7270    5.7144   19.8610 O   0  0  0  0  0  0  0  0  0  0  0  0
    8.3351    5.5235   15.4478 C   0  0  0  0  0  0  0  0  0  0  0  0
    8.7700    7.8434   21.3915 C   0  0  0  0  0  0  0  0  0  0  0  0
   11.7856    6.8851   19.2401 C   0  0  0  0  0  0  0  0  0  0  0  0
   10.5281    7.4276   19.5649 C   0  0  0  0  0  0  0  0  0  0  0  0
   10.0256    7.2907   20.8484 C   0  0  0  0  0  0  0  0  0  0  0  0
    9.3113    5.3049   14.4911 C   0  0  0  0  0  0  0  0  0  0  0  0
    9.4607    7.5646   16.0139 C   0  0  0  0  0  0  0  0  0  0  0  0
   10.4192    7.3157   15.0955 C   0  0  0  0  0  0  0  0  0  0  0  0
   10.2489    6.4227   23.0218 N   0  0  0  0  0  0  0  0  0  0  0  0
    7.2472    8.0746   23.5050 C   0  0  0  0  0  0  0  0  0  0  0  0
    9.2051    6.9101   23.4604 C   0  0  0  0  0  0  0  0  0  0  0  0
   11.9646    6.0299   21.4251 C   0  0  0  0  0  0  0  0  0  0  0  0
  1  5  1  0
  1 13  1  0
  2 20  2  0
  2 28  1  0
  2 29  1  0
  3 19  4  0
  3 25  4  0
  4 23  4  0
  4 27  1  0
  4 30  4  0
  5 17  1  0
  6  8  1  0
  6 29  1  0
  7 24  4  0
  7 26  4  0
  8 28  1  0
  9 13  2  0
 10 18  1  0
 10 21  4  0
 10 30  4  0
 11 17  2  0
 12 18  1  0
 13 15  1  0
 14 24  1  0
 15 25  1  0
 16 28  2  0
 17 20  1  0
 19 24  4  0
 20 23  1  0
 21 22  4  0
 22 23  4  0
 25 26  4  0
 27 29  2  0
M  END
$$$$

 Created by Python create_sdf_string function

 30 33  0  0  0  0  0  0  0  0999 V2000
    8.3036    9.8571   18.4133 C   0  0  0  0  0  0  0  0  0  0  0  0
    8.3694    7.6612   22.6703 C   0  0  0  0  0  0  0  0  0  0  0  0
    8.4143    6.6863   16.2273 C   0  0  0  0  0  0  0  0  0  0  0  0
   10.7581    6.5674   21.7636 C   0  0  0  0  0  0  0  0  0  0  0  0
    8.4452    8.7960   19.2958 O   0  0  0  0  0  0  0  0  0  0  0  0
    8.7122    6.7842   24.8569 C   0  0  0  0  0  0  0  0  0  0  0  0
   10.3400    6.1726   14.3081 C   0  0  0  0  0  0  0  0  0  0  0  0
    7.4297    7.5873   24.8962 C   0  0  0  0  0  0  0  0  0  0  0  0
    8.1566   10.0536   16.0516 O   0  0  0  0  0  0  0  0  0  0  0  0
   12.4989    6.2074   20.1776 C   0  0  0  0  0  0  0  0  0  0  0  0
    6.9192    9.1053   20.9073 O   0  0  0  0  0  0  0  0  0  0  0  0
   14.3979    6.0729   18.7784 C   0  0  0  0  0  0  0  0  0  0  0  0
    8.6811    9.5354   16.9998 C   0  0  0  0  0  0  0  0  0  0  0  0
    9.2512    4.2713   13.7653 O   0  0  0  0  0  0  0  0  0  0  0  0
    9.6495    8.6317   16.8332 N   0  0  0  0  0  0  0  0  0  0  0  0
    6.2934    8.6988   23.1988 O   0  0  0  0  0  0  0  0  0  0  0  0
    7.9806    8.6543   20.5437 C   0  0  0  0  0  0  0  0  0  0  0  0
   13.7270    5.7144   19.8610 O   0  0  0  0  0  0  0  0  0  0  0  0
    8.3351    5.5235   15.4478 C   0  0  0  0  0  0  0  0  0  0  0  0
    8.7700    7.8434   21.3915 C   0  0  0  0  0  0  0  0  0  0  0  0
   11.7856    6.8851   19.2401 C   0  0  0  0  0  0  0  0  0  0  0  0
   10.5281    7.4276   19.5649 C   0  0  0  0  0  0  0  0  0  0  0  0
   10.0256    7.2907   20.8484 C   0  0  0  0  0  0  0  0  0  0  0  0
    9.3113    5.3049   14.4911 C   0  0  0  0  0  0  0  0  0  0  0  0
    9.4607    7.5646   16.0139 C   0  0  0  0  0  0  0  0  0  0  0  0
   10.4192    7.3157   15.0955 C   0  0  0  0  0  0  0  0  0  0  0  0
   10.2489    6.4227   23.0218 N   0  0  0  0  0  0  0  0  0  0  0  0
    7.2472    8.0746   23.5050 C   0  0  0  0  0  0  0  0  0  0  0  0
    9.2051    6.9101   23.4604 C   0  0  0  0  0  0  0  0  0  0  0  0
   11.9646    6.0299   21.4251 C   0  0  0  0  0  0  0  0  0  0  0  0
  1  5  1  0
  1 13  1  0
  2 20  2  0
  2 28  1  0
  2 29  1  0
  3 19  4  0
  3 25  4  0
  4 23  4  0
  4 27  1  0
  4 30  4  0
  5 17  1  0
  6  8  1  0
  6 29  1  0
  7 24  4  0
  7 26  4  0
  8 28  1  0
  9 13  2  0
 10 18  1  0
 10 21  4  0
 10 30  4  0
 11 17  2  0
 12 18  1  0
 13 15  1  0
 14 24  1  0
 15 25  1  0
 16 28  2  0
 17 20  1  0
 19 24  4  0
 20 23  1  0
 21 22  4  0
 22 23  4  0
 25 26  4  0
 27 29  2  0
M  END
$$$$

 Created by Python create_sdf_string function

 30 33  0  0  0  0  0  0  0  0999 V2000
    8.3036    9.8571   18.4133 C   0  0  0  0  0  0  0  0  0  0  0  0
    8.3694    7.6612   22.6703 C   0  0  0  0  0  0  0  0  0  0  0  0
    8.4143    6.6863   16.2273 C   0  0  0  0  0  0  0  0  0  0  0  0
   10.7581    6.5674   21.7636 C   0  0  0  0  0  0  0  0  0  0  0  0
    8.4452    8.7960   19.2958 O   0  0  0  0  0  0  0  0  0  0  0  0
    8.7122    6.7842   24.8569 C   0  0  0  0  0  0  0  0  0  0  0  0
   10.3400    6.1726   14.3081 C   0  0  0  0  0  0  0  0  0  0  0  0
    7.4297    7.5873   24.8962 C   0  0  0  0  0  0  0  0  0  0  0  0
    8.1566   10.0536   16.0516 O   0  0  0  0  0  0  0  0  0  0  0  0
   12.4989    6.2074   20.1776 C   0  0  0  0  0  0  0  0  0  0  0  0
    6.9192    9.1053   20.9073 O   0  0  0  0  0  0  0  0  0  0  0  0
   14.3979    6.0729   18.7784 C   0  0  0  0  0  0  0  0  0  0  0  0
    8.6811    9.5354   16.9998 C   0  0  0  0  0  0  0  0  0  0  0  0
    9.2512    4.2713   13.7653 O   0  0  0  0  0  0  0  0  0  0  0  0
    9.6495    8.6317   16.8332 N   0  0  0  0  0  0  0  0  0  0  0  0
    6.2934    8.6988   23.1988 O   0  0  0  0  0  0  0  0  0  0  0  0
    7.9806    8.6543   20.5437 C   0  0  0  0  0  0  0  0  0  0  0  0
   13.7270    5.7144   19.8610 O   0  0  0  0  0  0  0  0  0  0  0  0
    8.3351    5.5235   15.4478 C   0  0  0  0  0  0  0  0  0  0  0  0
    8.7700    7.8434   21.3915 C   0  0  0  0  0  0  0  0  0  0  0  0
   11.7856    6.8851   19.2401 C   0  0  0  0  0  0  0  0  0  0  0  0
   10.5281    7.4276   19.5649 C   0  0  0  0  0  0  0  0  0  0  0  0
   10.0256    7.2907   20.8484 C   0  0  0  0  0  0  0  0  0  0  0  0
    9.3113    5.3049   14.4911 C   0  0  0  0  0  0  0  0  0  0  0  0
    9.4607    7.5646   16.0139 C   0  0  0  0  0  0  0  0  0  0  0  0
   10.4192    7.3157   15.0955 C   0  0  0  0  0  0  0  0  0  0  0  0
   10.2489    6.4227   23.0218 N   0  0  0  0  0  0  0  0  0  0  0  0
    7.2472    8.0746   23.5050 C   0  0  0  0  0  0  0  0  0  0  0  0
    9.2051    6.9101   23.4604 C   0  0  0  0  0  0  0  0  0  0  0  0
   11.9646    6.0299   21.4251 C   0  0  0  0  0  0  0  0  0  0  0  0
  1  5  1  0
  1 13  1  0
  2 20  2  0
  2 28  1  0
  2 29  1  0
  3 19  4  0
  3 25  4  0
  4 23  4  0
  4 27  1  0
  4 30  4  0
  5 17  1  0
  6  8  1  0
  6 29  1  0
  7 24  4  0
  7 26  4  0
  8 28  1  0
  9 13  2  0
 10 18  1  0
 10 21  4  0
 10 30  4  0
 11 17  2  0
 12 18  1  0
 13 15  1  0
 14 24  1  0
 15 25  1  0
 16 28  2  0
 17 20  1  0
 19 24  4  0
 20 23  1  0
 21 22  4  0
 22 23  4  0
 25 26  4  0
 27 29  2  0
M  END
$$$$

 Created by Python create_sdf_string function

 30 33  0  0  0  0  0  0  0  0999 V2000
    8.3036    9.8571   18.4133 C   0  0  0  0  0  0  0  0  0  0  0  0
    8.3694    7.6612   22.6703 C   0  0  0  0  0  0  0  0  0  0  0  0
    8.4143    6.6863   16.2273 C   0  0  0  0  0  0  0  0  0  0  0  0
   10.7581    6.5674   21.7636 C   0  0  0  0  0  0  0  0  0  0  0  0
    8.4452    8.7960   19.2958 O   0  0  0  0  0  0  0  0  0  0  0  0
    8.7122    6.7842   24.8569 C   0  0  0  0  0  0  0  0  0  0  0  0
   10.3400    6.1726   14.3081 C   0  0  0  0  0  0  0  0  0  0  0  0
    7.4297    7.5873   24.8962 C   0  0  0  0  0  0  0  0  0  0  0  0
    8.1566   10.0536   16.0516 O   0  0  0  0  0  0  0  0  0  0  0  0
   12.4989    6.2074   20.1776 C   0  0  0  0  0  0  0  0  0  0  0  0
    6.9192    9.1053   20.9073 O   0  0  0  0  0  0  0  0  0  0  0  0
   14.3979    6.0729   18.7784 C   0  0  0  0  0  0  0  0  0  0  0  0
    8.6811    9.5354   16.9998 C   0  0  0  0  0  0  0  0  0  0  0  0
    9.2512    4.2713   13.7653 O   0  0  0  0  0  0  0  0  0  0  0  0
    9.6495    8.6317   16.8332 N   0  0  0  0  0  0  0  0  0  0  0  0
    6.2934    8.6988   23.1988 O   0  0  0  0  0  0  0  0  0  0  0  0
    7.9806    8.6543   20.5437 C   0  0  0  0  0  0  0  0  0  0  0  0
   13.7270    5.7144   19.8610 O   0  0  0  0  0  0  0  0  0  0  0  0
    8.3351    5.5235   15.4478 C   0  0  0  0  0  0  0  0  0  0  0  0
    8.7700    7.8434   21.3915 C   0  0  0  0  0  0  0  0  0  0  0  0
   11.7856    6.8851   19.2401 C   0  0  0  0  0  0  0  0  0  0  0  0
   10.5281    7.4276   19.5649 C   0  0  0  0  0  0  0  0  0  0  0  0
   10.0256    7.2907   20.8484 C   0  0  0  0  0  0  0  0  0  0  0  0
    9.3113    5.3049   14.4911 C   0  0  0  0  0  0  0  0  0  0  0  0
    9.4607    7.5646   16.0139 C   0  0  0  0  0  0  0  0  0  0  0  0
   10.4192    7.3157   15.0955 C   0  0  0  0  0  0  0  0  0  0  0  0
   10.2489    6.4227   23.0218 N   0  0  0  0  0  0  0  0  0  0  0  0
    7.2472    8.0746   23.5050 C   0  0  0  0  0  0  0  0  0  0  0  0
    9.2051    6.9101   23.4604 C   0  0  0  0  0  0  0  0  0  0  0  0
   11.9646    6.0299   21.4251 C   0  0  0  0  0  0  0  0  0  0  0  0
  1  5  1  0
  1 13  1  0
  2 20  2  0
  2 28  1  0
  2 29  1  0
  3 19  4  0
  3 25  4  0
  4 23  4  0
  4 27  1  0
  4 30  4  0
  5 17  1  0
  6  8  1  0
  6 29  1  0
  7 24  4  0
  7 26  4  0
  8 28  1  0
  9 13  2  0
 10 18  1  0
 10 21  4  0
 10 30  4  0
 11 17  2  0
 12 18  1  0
 13 15  1  0
 14 24  1  0
 15 25  1  0
 16 28  2  0
 17 20  1  0
 19 24  4  0
 20 23  1  0
 21 22  4  0
 22 23  4  0
 25 26  4  0
 27 29  2  0
M  END
$$$$

 Created by Python create_sdf_string function

 30 33  0  0  0  0  0  0  0  0999 V2000
    8.3036    9.8571   18.4133 C   0  0  0  0  0  0  0  0  0  0  0  0
    8.3694    7.6612   22.6703 C   0  0  0  0  0  0  0  0  0  0  0  0
    8.4143    6.6863   16.2273 C   0  0  0  0  0  0  0  0  0  0  0  0
   10.7581    6.5674   21.7636 C   0  0  0  0  0  0  0  0  0  0  0  0
    8.4452    8.7960   19.2958 O   0  0  0  0  0  0  0  0  0  0  0  0
    8.7122    6.7842   24.8569 C   0  0  0  0  0  0  0  0  0  0  0  0
   10.3400    6.1726   14.3081 C   0  0  0  0  0  0  0  0  0  0  0  0
    7.4297    7.5873   24.8962 C   0  0  0  0  0  0  0  0  0  0  0  0
    8.1566   10.0536   16.0516 O   0  0  0  0  0  0  0  0  0  0  0  0
   12.4989    6.2074   20.1776 C   0  0  0  0  0  0  0  0  0  0  0  0
    6.9192    9.1053   20.9073 O   0  0  0  0  0  0  0  0  0  0  0  0
   14.3979    6.0729   18.7784 C   0  0  0  0  0  0  0  0  0  0  0  0
    8.6811    9.5354   16.9998 C   0  0  0  0  0  0  0  0  0  0  0  0
    9.2512    4.2713   13.7653 O   0  0  0  0  0  0  0  0  0  0  0  0
    9.6495    8.6317   16.8332 N   0  0  0  0  0  0  0  0  0  0  0  0
    6.2934    8.6988   23.1988 O   0  0  0  0  0  0  0  0  0  0  0  0
    7.9806    8.6543   20.5437 C   0  0  0  0  0  0  0  0  0  0  0  0
   13.7270    5.7144   19.8610 O   0  0  0  0  0  0  0  0  0  0  0  0
    8.3351    5.5235   15.4478 C   0  0  0  0  0  0  0  0  0  0  0  0
    8.7700    7.8434   21.3915 C   0  0  0  0  0  0  0  0  0  0  0  0
   11.7856    6.8851   19.2401 C   0  0  0  0  0  0  0  0  0  0  0  0
   10.5281    7.4276   19.5649 C   0  0  0  0  0  0  0  0  0  0  0  0
   10.0256    7.2907   20.8484 C   0  0  0  0  0  0  0  0  0  0  0  0
    9.3113    5.3049   14.4911 C   0  0  0  0  0  0  0  0  0  0  0  0
    9.4607    7.5646   16.0139 C   0  0  0  0  0  0  0  0  0  0  0  0
   10.4192    7.3157   15.0955 C   0  0  0  0  0  0  0  0  0  0  0  0
   10.2489    6.4227   23.0218 N   0  0  0  0  0  0  0  0  0  0  0  0
    7.2472    8.0746   23.5050 C   0  0  0  0  0  0  0  0  0  0  0  0
    9.2051    6.9101   23.4604 C   0  0  0  0  0  0  0  0  0  0  0  0
   11.9646    6.0299   21.4251 C   0  0  0  0  0  0  0  0  0  0  0  0
  1  5  1  0
  1 13  1  0
  2 20  2  0
  2 28  1  0
  2 29  1  0
  3 19  4  0
  3 25  4  0
  4 23  4  0
  4 27  1  0
  4 30  4  0
  5 17  1  0
  6  8  1  0
  6 29  1  0
  7 24  4  0
  7 26  4  0
  8 28  1  0
  9 13  2  0
 10 18  1  0
 10 21  4  0
 10 30  4  0
 11 17  2  0
 12 18  1  0
 13 15  1  0
 14 24  1  0
 15 25  1  0
 16 28  2  0
 17 20  1  0
 19 24  4  0
 20 23  1  0
 21 22  4  0
 22 23  4  0
 25 26  4  0
 27 29  2  0
M  END
$$$$

 Created by Python create_sdf_string function

 30 33  0  0  0  0  0  0  0  0999 V2000
    8.3036    9.8571   18.4133 C   0  0  0  0  0  0  0  0  0  0  0  0
    8.3694    7.6612   22.6703 C   0  0  0  0  0  0  0  0  0  0  0  0
    8.4143    6.6863   16.2273 C   0  0  0  0  0  0  0  0  0  0  0  0
   10.7581    6.5674   21.7636 C   0  0  0  0  0  0  0  0  0  0  0  0
    8.4452    8.7960   19.2958 O   0  0  0  0  0  0  0  0  0  0  0  0
    8.7122    6.7842   24.8569 C   0  0  0  0  0  0  0  0  0  0  0  0
   10.3400    6.1726   14.3081 C   0  0  0  0  0  0  0  0  0  0  0  0
    7.4297    7.5873   24.8962 C   0  0  0  0  0  0  0  0  0  0  0  0
    8.1566   10.0536   16.0516 O   0  0  0  0  0  0  0  0  0  0  0  0
   12.4989    6.2074   20.1776 C   0  0  0  0  0  0  0  0  0  0  0  0
    6.9192    9.1053   20.9073 O   0  0  0  0  0  0  0  0  0  0  0  0
   14.3979    6.0729   18.7784 C   0  0  0  0  0  0  0  0  0  0  0  0
    8.6811    9.5354   16.9998 C   0  0  0  0  0  0  0  0  0  0  0  0
    9.2512    4.2713   13.7653 O   0  0  0  0  0  0  0  0  0  0  0  0
    9.6495    8.6317   16.8332 N   0  0  0  0  0  0  0  0  0  0  0  0
    6.2934    8.6988   23.1988 O   0  0  0  0  0  0  0  0  0  0  0  0
    7.9806    8.6543   20.5437 C   0  0  0  0  0  0  0  0  0  0  0  0
   13.7270    5.7144   19.8610 O   0  0  0  0  0  0  0  0  0  0  0  0
    8.3351    5.5235   15.4478 C   0  0  0  0  0  0  0  0  0  0  0  0
    8.7700    7.8434   21.3915 C   0  0  0  0  0  0  0  0  0  0  0  0
   11.7856    6.8851   19.2401 C   0  0  0  0  0  0  0  0  0  0  0  0
   10.5281    7.4276   19.5649 C   0  0  0  0  0  0  0  0  0  0  0  0
   10.0256    7.2907   20.8484 C   0  0  0  0  0  0  0  0  0  0  0  0
    9.3113    5.3049   14.4911 C   0  0  0  0  0  0  0  0  0  0  0  0
    9.4607    7.5646   16.0139 C   0  0  0  0  0  0  0  0  0  0  0  0
   10.4192    7.3157   15.0955 C   0  0  0  0  0  0  0  0  0  0  0  0
   10.2489    6.4227   23.0218 N   0  0  0  0  0  0  0  0  0  0  0  0
    7.2472    8.0746   23.5050 C   0  0  0  0  0  0  0  0  0  0  0  0
    9.2051    6.9101   23.4604 C   0  0  0  0  0  0  0  0  0  0  0  0
   11.9646    6.0299   21.4251 C   0  0  0  0  0  0  0  0  0  0  0  0
  1  5  1  0
  1 13  1  0
  2 20  2  0
  2 28  1  0
  2 29  1  0
  3 19  4  0
  3 25  4  0
  4 23  4  0
  4 27  1  0
  4 30  4  0
  5 17  1  0
  6  8  1  0
  6 29  1  0
  7 24  4  0
  7 26  4  0
  8 28  1  0
  9 13  2  0
 10 18  1  0
 10 21  4  0
 10 30  4  0
 11 17  2  0
 12 18  1  0
 13 15  1  0
 14 24  1  0
 15 25  1  0
 16 28  2  0
 17 20  1  0
 19 24  4  0
 20 23  1  0
 21 22  4  0
 22 23  4  0
 25 26  4  0
 27 29  2  0
M  END
$$$$

 Created by Python create_sdf_string function

 30 33  0  0  0  0  0  0  0  0999 V2000
    8.3036    9.8571   18.4133 C   0  0  0  0  0  0  0  0  0  0  0  0
    8.3694    7.6612   22.6703 C   0  0  0  0  0  0  0  0  0  0  0  0
    8.4143    6.6863   16.2273 C   0  0  0  0  0  0  0  0  0  0  0  0
   10.7581    6.5674   21.7636 C   0  0  0  0  0  0  0  0  0  0  0  0
    8.4452    8.7960   19.2958 O   0  0  0  0  0  0  0  0  0  0  0  0
    8.7122    6.7842   24.8569 C   0  0  0  0  0  0  0  0  0  0  0  0
   10.3400    6.1726   14.3081 C   0  0  0  0  0  0  0  0  0  0  0  0
    7.4297    7.5873   24.8962 C   0  0  0  0  0  0  0  0  0  0  0  0
    8.1566   10.0536   16.0516 O   0  0  0  0  0  0  0  0  0  0  0  0
   12.4989    6.2074   20.1776 C   0  0  0  0  0  0  0  0  0  0  0  0
    6.9192    9.1053   20.9073 O   0  0  0  0  0  0  0  0  0  0  0  0
   14.3979    6.0729   18.7784 C   0  0  0  0  0  0  0  0  0  0  0  0
    8.6811    9.5354   16.9998 C   0  0  0  0  0  0  0  0  0  0  0  0
    9.2512    4.2713   13.7653 O   0  0  0  0  0  0  0  0  0  0  0  0
    9.6495    8.6317   16.8332 N   0  0  0  0  0  0  0  0  0  0  0  0
    6.2934    8.6988   23.1988 O   0  0  0  0  0  0  0  0  0  0  0  0
    7.9806    8.6543   20.5437 C   0  0  0  0  0  0  0  0  0  0  0  0
   13.7270    5.7144   19.8610 O   0  0  0  0  0  0  0  0  0  0  0  0
    8.3351    5.5235   15.4478 C   0  0  0  0  0  0  0  0  0  0  0  0
    8.7700    7.8434   21.3915 C   0  0  0  0  0  0  0  0  0  0  0  0
   11.7856    6.8851   19.2401 C   0  0  0  0  0  0  0  0  0  0  0  0
   10.5281    7.4276   19.5649 C   0  0  0  0  0  0  0  0  0  0  0  0
   10.0256    7.2907   20.8484 C   0  0  0  0  0  0  0  0  0  0  0  0
    9.3113    5.3049   14.4911 C   0  0  0  0  0  0  0  0  0  0  0  0
    9.4607    7.5646   16.0139 C   0  0  0  0  0  0  0  0  0  0  0  0
   10.4192    7.3157   15.0955 C   0  0  0  0  0  0  0  0  0  0  0  0
   10.2489    6.4227   23.0218 N   0  0  0  0  0  0  0  0  0  0  0  0
    7.2472    8.0746   23.5050 C   0  0  0  0  0  0  0  0  0  0  0  0
    9.2051    6.9101   23.4604 C   0  0  0  0  0  0  0  0  0  0  0  0
   11.9646    6.0299   21.4251 C   0  0  0  0  0  0  0  0  0  0  0  0
  1  5  1  0
  1 13  1  0
  2 20  2  0
  2 28  1  0
  2 29  1  0
  3 19  4  0
  3 25  4  0
  4 23  4  0
  4 27  1  0
  4 30  4  0
  5 17  1  0
  6  8  1  0
  6 29  1  0
  7 24  4  0
  7 26  4  0
  8 28  1  0
  9 13  2  0
 10 18  1  0
 10 21  4  0
 10 30  4  0
 11 17  2  0
 12 18  1  0
 13 15  1  0
 14 24  1  0
 15 25  1  0
 16 28  2  0
 17 20  1  0
 19 24  4  0
 20 23  1  0
 21 22  4  0
 22 23  4  0
 25 26  4  0
 27 29  2  0
M  END
$$$$

 Created by Python create_sdf_string function

 30 33  0  0  0  0  0  0  0  0999 V2000
    8.3036    9.8571   18.4133 C   0  0  0  0  0  0  0  0  0  0  0  0
    8.3694    7.6612   22.6703 C   0  0  0  0  0  0  0  0  0  0  0  0
    8.4143    6.6863   16.2273 C   0  0  0  0  0  0  0  0  0  0  0  0
   10.7581    6.5674   21.7636 C   0  0  0  0  0  0  0  0  0  0  0  0
    8.4452    8.7960   19.2958 O   0  0  0  0  0  0  0  0  0  0  0  0
    8.7122    6.7842   24.8569 C   0  0  0  0  0  0  0  0  0  0  0  0
   10.3400    6.1726   14.3081 C   0  0  0  0  0  0  0  0  0  0  0  0
    7.4297    7.5873   24.8962 C   0  0  0  0  0  0  0  0  0  0  0  0
    8.1566   10.0536   16.0516 O   0  0  0  0  0  0  0  0  0  0  0  0
   12.4989    6.2074   20.1776 C   0  0  0  0  0  0  0  0  0  0  0  0
    6.9192    9.1053   20.9073 O   0  0  0  0  0  0  0  0  0  0  0  0
   14.3979    6.0729   18.7784 C   0  0  0  0  0  0  0  0  0  0  0  0
    8.6811    9.5354   16.9998 C   0  0  0  0  0  0  0  0  0  0  0  0
    9.2512    4.2713   13.7653 O   0  0  0  0  0  0  0  0  0  0  0  0
    9.6495    8.6317   16.8332 N   0  0  0  0  0  0  0  0  0  0  0  0
    6.2934    8.6988   23.1988 O   0  0  0  0  0  0  0  0  0  0  0  0
    7.9806    8.6543   20.5437 C   0  0  0  0  0  0  0  0  0  0  0  0
   13.7270    5.7144   19.8610 O   0  0  0  0  0  0  0  0  0  0  0  0
    8.3351    5.5235   15.4478 C   0  0  0  0  0  0  0  0  0  0  0  0
    8.7700    7.8434   21.3915 C   0  0  0  0  0  0  0  0  0  0  0  0
   11.7856    6.8851   19.2401 C   0  0  0  0  0  0  0  0  0  0  0  0
   10.5281    7.4276   19.5649 C   0  0  0  0  0  0  0  0  0  0  0  0
   10.0256    7.2907   20.8484 C   0  0  0  0  0  0  0  0  0  0  0  0
    9.3113    5.3049   14.4911 C   0  0  0  0  0  0  0  0  0  0  0  0
    9.4607    7.5646   16.0139 C   0  0  0  0  0  0  0  0  0  0  0  0
   10.4192    7.3157   15.0955 C   0  0  0  0  0  0  0  0  0  0  0  0
   10.2489    6.4227   23.0218 N   0  0  0  0  0  0  0  0  0  0  0  0
    7.2472    8.0746   23.5050 C   0  0  0  0  0  0  0  0  0  0  0  0
    9.2051    6.9101   23.4604 C   0  0  0  0  0  0  0  0  0  0  0  0
   11.9646    6.0299   21.4251 C   0  0  0  0  0  0  0  0  0  0  0  0
  1  5  1  0
  1 13  1  0
  2 20  2  0
  2 28  1  0
  2 29  1  0
  3 19  4  0
  3 25  4  0
  4 23  4  0
  4 27  1  0
  4 30  4  0
  5 17  1  0
  6  8  1  0
  6 29  1  0
  7 24  4  0
  7 26  4  0
  8 28  1  0
  9 13  2  0
 10 18  1  0
 10 21  4  0
 10 30  4  0
 11 17  2  0
 12 18  1  0
 13 15  1  0
 14 24  1  0
 15 25  1  0
 16 28  2  0
 17 20  1  0
 19 24  4  0
 20 23  1  0
 21 22  4  0
 22 23  4  0
 25 26  4  0
 27 29  2  0
M  END
$$$$

 Created by Python create_sdf_string function

 30 33  0  0  0  0  0  0  0  0999 V2000
    8.3036    9.8571   18.4133 C   0  0  0  0  0  0  0  0  0  0  0  0
    8.3694    7.6612   22.6703 C   0  0  0  0  0  0  0  0  0  0  0  0
    8.4143    6.6863   16.2273 C   0  0  0  0  0  0  0  0  0  0  0  0
   10.7581    6.5674   21.7636 C   0  0  0  0  0  0  0  0  0  0  0  0
    8.4452    8.7960   19.2958 O   0  0  0  0  0  0  0  0  0  0  0  0
    8.7122    6.7842   24.8569 C   0  0  0  0  0  0  0  0  0  0  0  0
   10.3400    6.1726   14.3081 C   0  0  0  0  0  0  0  0  0  0  0  0
    7.4297    7.5873   24.8962 C   0  0  0  0  0  0  0  0  0  0  0  0
    8.1566   10.0536   16.0516 O   0  0  0  0  0  0  0  0  0  0  0  0
   12.4989    6.2074   20.1776 C   0  0  0  0  0  0  0  0  0  0  0  0
    6.9192    9.1053   20.9073 O   0  0  0  0  0  0  0  0  0  0  0  0
   14.3979    6.0729   18.7784 C   0  0  0  0  0  0  0  0  0  0  0  0
    8.6811    9.5354   16.9998 C   0  0  0  0  0  0  0  0  0  0  0  0
    9.2512    4.2713   13.7653 O   0  0  0  0  0  0  0  0  0  0  0  0
    9.6495    8.6317   16.8332 N   0  0  0  0  0  0  0  0  0  0  0  0
    6.2934    8.6988   23.1988 O   0  0  0  0  0  0  0  0  0  0  0  0
    7.9806    8.6543   20.5437 C   0  0  0  0  0  0  0  0  0  0  0  0
   13.7270    5.7144   19.8610 O   0  0  0  0  0  0  0  0  0  0  0  0
    8.3351    5.5235   15.4478 C   0  0  0  0  0  0  0  0  0  0  0  0
    8.7700    7.8434   21.3915 C   0  0  0  0  0  0  0  0  0  0  0  0
   11.7856    6.8851   19.2401 C   0  0  0  0  0  0  0  0  0  0  0  0
   10.5281    7.4276   19.5649 C   0  0  0  0  0  0  0  0  0  0  0  0
   10.0256    7.2907   20.8484 C   0  0  0  0  0  0  0  0  0  0  0  0
    9.3113    5.3049   14.4911 C   0  0  0  0  0  0  0  0  0  0  0  0
    9.4607    7.5646   16.0139 C   0  0  0  0  0  0  0  0  0  0  0  0
   10.4192    7.3157   15.0955 C   0  0  0  0  0  0  0  0  0  0  0  0
   10.2489    6.4227   23.0218 N   0  0  0  0  0  0  0  0  0  0  0  0
    7.2472    8.0746   23.5050 C   0  0  0  0  0  0  0  0  0  0  0  0
    9.2051    6.9101   23.4604 C   0  0  0  0  0  0  0  0  0  0  0  0
   11.9646    6.0299   21.4251 C   0  0  0  0  0  0  0  0  0  0  0  0
  1  5  1  0
  1 13  1  0
  2 20  2  0
  2 28  1  0
  2 29  1  0
  3 19  4  0
  3 25  4  0
  4 23  4  0
  4 27  1  0
  4 30  4  0
  5 17  1  0
  6  8  1  0
  6 29  1  0
  7 24  4  0
  7 26  4  0
  8 28  1  0
  9 13  2  0
 10 18  1  0
 10 21  4  0
 10 30  4  0
 11 17  2  0
 12 18  1  0
 13 15  1  0
 14 24  1  0
 15 25  1  0
 16 28  2  0
 17 20  1  0
 19 24  4  0
 20 23  1  0
 21 22  4  0
 22 23  4  0
 25 26  4  0
 27 29  2  0
M  END
$$$$

 Created by Python create_sdf_string function

 30 33  0  0  0  0  0  0  0  0999 V2000
    8.3036    9.8571   18.4133 C   0  0  0  0  0  0  0  0  0  0  0  0
    8.3694    7.6612   22.6703 C   0  0  0  0  0  0  0  0  0  0  0  0
    8.4143    6.6863   16.2273 C   0  0  0  0  0  0  0  0  0  0  0  0
   10.7581    6.5674   21.7636 C   0  0  0  0  0  0  0  0  0  0  0  0
    8.4452    8.7960   19.2958 O   0  0  0  0  0  0  0  0  0  0  0  0
    8.7122    6.7842   24.8569 C   0  0  0  0  0  0  0  0  0  0  0  0
   10.3400    6.1726   14.3081 C   0  0  0  0  0  0  0  0  0  0  0  0
    7.4297    7.5873   24.8962 C   0  0  0  0  0  0  0  0  0  0  0  0
    8.1566   10.0536   16.0516 O   0  0  0  0  0  0  0  0  0  0  0  0
   12.4989    6.2074   20.1776 C   0  0  0  0  0  0  0  0  0  0  0  0
    6.9192    9.1053   20.9073 O   0  0  0  0  0  0  0  0  0  0  0  0
   14.3979    6.0729   18.7784 C   0  0  0  0  0  0  0  0  0  0  0  0
    8.6811    9.5354   16.9998 C   0  0  0  0  0  0  0  0  0  0  0  0
    9.2512    4.2713   13.7653 O   0  0  0  0  0  0  0  0  0  0  0  0
    9.6495    8.6317   16.8332 N   0  0  0  0  0  0  0  0  0  0  0  0
    6.2934    8.6988   23.1988 O   0  0  0  0  0  0  0  0  0  0  0  0
    7.9806    8.6543   20.5437 C   0  0  0  0  0  0  0  0  0  0  0  0
   13.7270    5.7144   19.8610 O   0  0  0  0  0  0  0  0  0  0  0  0
    8.3351    5.5235   15.4478 C   0  0  0  0  0  0  0  0  0  0  0  0
    8.7700    7.8434   21.3915 C   0  0  0  0  0  0  0  0  0  0  0  0
   11.7856    6.8851   19.2401 C   0  0  0  0  0  0  0  0  0  0  0  0
   10.5281    7.4276   19.5649 C   0  0  0  0  0  0  0  0  0  0  0  0
   10.0256    7.2907   20.8484 C   0  0  0  0  0  0  0  0  0  0  0  0
    9.3113    5.3049   14.4911 C   0  0  0  0  0  0  0  0  0  0  0  0
    9.4607    7.5646   16.0139 C   0  0  0  0  0  0  0  0  0  0  0  0
   10.4192    7.3157   15.0955 C   0  0  0  0  0  0  0  0  0  0  0  0
   10.2489    6.4227   23.0218 N   0  0  0  0  0  0  0  0  0  0  0  0
    7.2472    8.0746   23.5050 C   0  0  0  0  0  0  0  0  0  0  0  0
    9.2051    6.9101   23.4604 C   0  0  0  0  0  0  0  0  0  0  0  0
   11.9646    6.0299   21.4251 C   0  0  0  0  0  0  0  0  0  0  0  0
  1  5  1  0
  1 13  1  0
  2 20  2  0
  2 28  1  0
  2 29  1  0
  3 19  4  0
  3 25  4  0
  4 23  4  0
  4 27  1  0
  4 30  4  0
  5 17  1  0
  6  8  1  0
  6 29  1  0
  7 24  4  0
  7 26  4  0
  8 28  1  0
  9 13  2  0
 10 18  1  0
 10 21  4  0
 10 30  4  0
 11 17  2  0
 12 18  1  0
 13 15  1  0
 14 24  1  0
 15 25  1  0
 16 28  2  0
 17 20  1  0
 19 24  4  0
 20 23  1  0
 21 22  4  0
 22 23  4  0
 25 26  4  0
 27 29  2  0
M  END
$$$$

 Created by Python create_sdf_string function

 30 33  0  0  0  0  0  0  0  0999 V2000
    8.3036    9.8571   18.4133 C   0  0  0  0  0  0  0  0  0  0  0  0
    8.3694    7.6612   22.6703 C   0  0  0  0  0  0  0  0  0  0  0  0
    8.4143    6.6863   16.2273 C   0  0  0  0  0  0  0  0  0  0  0  0
   10.7581    6.5674   21.7636 C   0  0  0  0  0  0  0  0  0  0  0  0
    8.4452    8.7960   19.2958 O   0  0  0  0  0  0  0  0  0  0  0  0
    8.7122    6.7842   24.8569 C   0  0  0  0  0  0  0  0  0  0  0  0
   10.3400    6.1726   14.3081 C   0  0  0  0  0  0  0  0  0  0  0  0
    7.4297    7.5873   24.8962 C   0  0  0  0  0  0  0  0  0  0  0  0
    8.1566   10.0536   16.0516 O   0  0  0  0  0  0  0  0  0  0  0  0
   12.4989    6.2074   20.1776 C   0  0  0  0  0  0  0  0  0  0  0  0
    6.9192    9.1053   20.9073 O   0  0  0  0  0  0  0  0  0  0  0  0
   14.3979    6.0729   18.7784 C   0  0  0  0  0  0  0  0  0  0  0  0
    8.6811    9.5354   16.9998 C   0  0  0  0  0  0  0  0  0  0  0  0
    9.2512    4.2713   13.7653 O   0  0  0  0  0  0  0  0  0  0  0  0
    9.6495    8.6317   16.8332 N   0  0  0  0  0  0  0  0  0  0  0  0
    6.2934    8.6988   23.1988 O   0  0  0  0  0  0  0  0  0  0  0  0
    7.9806    8.6543   20.5437 C   0  0  0  0  0  0  0  0  0  0  0  0
   13.7270    5.7144   19.8610 O   0  0  0  0  0  0  0  0  0  0  0  0
    8.3351    5.5235   15.4478 C   0  0  0  0  0  0  0  0  0  0  0  0
    8.7700    7.8434   21.3915 C   0  0  0  0  0  0  0  0  0  0  0  0
   11.7856    6.8851   19.2401 C   0  0  0  0  0  0  0  0  0  0  0  0
   10.5281    7.4276   19.5649 C   0  0  0  0  0  0  0  0  0  0  0  0
   10.0256    7.2907   20.8484 C   0  0  0  0  0  0  0  0  0  0  0  0
    9.3113    5.3049   14.4911 C   0  0  0  0  0  0  0  0  0  0  0  0
    9.4607    7.5646   16.0139 C   0  0  0  0  0  0  0  0  0  0  0  0
   10.4192    7.3157   15.0955 C   0  0  0  0  0  0  0  0  0  0  0  0
   10.2489    6.4227   23.0218 N   0  0  0  0  0  0  0  0  0  0  0  0
    7.2472    8.0746   23.5050 C   0  0  0  0  0  0  0  0  0  0  0  0
    9.2051    6.9101   23.4604 C   0  0  0  0  0  0  0  0  0  0  0  0
   11.9646    6.0299   21.4251 C   0  0  0  0  0  0  0  0  0  0  0  0
  1  5  1  0
  1 13  1  0
  2 20  2  0
  2 28  1  0
  2 29  1  0
  3 19  4  0
  3 25  4  0
  4 23  4  0
  4 27  1  0
  4 30  4  0
  5 17  1  0
  6  8  1  0
  6 29  1  0
  7 24  4  0
  7 26  4  0
  8 28  1  0
  9 13  2  0
 10 18  1  0
 10 21  4  0
 10 30  4  0
 11 17  2  0
 12 18  1  0
 13 15  1  0
 14 24  1  0
 15 25  1  0
 16 28  2  0
 17 20  1  0
 19 24  4  0
 20 23  1  0
 21 22  4  0
 22 23  4  0
 25 26  4  0
 27 29  2  0
M  END
$$$$

 Created by Python create_sdf_string function

 30 33  0  0  0  0  0  0  0  0999 V2000
    8.3036    9.8571   18.4133 C   0  0  0  0  0  0  0  0  0  0  0  0
    8.3694    7.6612   22.6703 C   0  0  0  0  0  0  0  0  0  0  0  0
    8.4143    6.6863   16.2273 C   0  0  0  0  0  0  0  0  0  0  0  0
   10.7581    6.5674   21.7636 C   0  0  0  0  0  0  0  0  0  0  0  0
    8.4452    8.7960   19.2958 O   0  0  0  0  0  0  0  0  0  0  0  0
    8.7122    6.7842   24.8569 C   0  0  0  0  0  0  0  0  0  0  0  0
   10.3400    6.1726   14.3081 C   0  0  0  0  0  0  0  0  0  0  0  0
    7.4297    7.5873   24.8962 C   0  0  0  0  0  0  0  0  0  0  0  0
    8.1566   10.0536   16.0516 O   0  0  0  0  0  0  0  0  0  0  0  0
   12.4989    6.2074   20.1776 C   0  0  0  0  0  0  0  0  0  0  0  0
    6.9192    9.1053   20.9073 O   0  0  0  0  0  0  0  0  0  0  0  0
   14.3979    6.0729   18.7784 C   0  0  0  0  0  0  0  0  0  0  0  0
    8.6811    9.5354   16.9998 C   0  0  0  0  0  0  0  0  0  0  0  0
    9.2512    4.2713   13.7653 O   0  0  0  0  0  0  0  0  0  0  0  0
    9.6495    8.6317   16.8332 N   0  0  0  0  0  0  0  0  0  0  0  0
    6.2934    8.6988   23.1988 O   0  0  0  0  0  0  0  0  0  0  0  0
    7.9806    8.6543   20.5437 C   0  0  0  0  0  0  0  0  0  0  0  0
   13.7270    5.7144   19.8610 O   0  0  0  0  0  0  0  0  0  0  0  0
    8.3351    5.5235   15.4478 C   0  0  0  0  0  0  0  0  0  0  0  0
    8.7700    7.8434   21.3915 C   0  0  0  0  0  0  0  0  0  0  0  0
   11.7856    6.8851   19.2401 C   0  0  0  0  0  0  0  0  0  0  0  0
   10.5281    7.4276   19.5649 C   0  0  0  0  0  0  0  0  0  0  0  0
   10.0256    7.2907   20.8484 C   0  0  0  0  0  0  0  0  0  0  0  0
    9.3113    5.3049   14.4911 C   0  0  0  0  0  0  0  0  0  0  0  0
    9.4607    7.5646   16.0139 C   0  0  0  0  0  0  0  0  0  0  0  0
   10.4192    7.3157   15.0955 C   0  0  0  0  0  0  0  0  0  0  0  0
   10.2489    6.4227   23.0218 N   0  0  0  0  0  0  0  0  0  0  0  0
    7.2472    8.0746   23.5050 C   0  0  0  0  0  0  0  0  0  0  0  0
    9.2051    6.9101   23.4604 C   0  0  0  0  0  0  0  0  0  0  0  0
   11.9646    6.0299   21.4251 C   0  0  0  0  0  0  0  0  0  0  0  0
  1  5  1  0
  1 13  1  0
  2 20  2  0
  2 28  1  0
  2 29  1  0
  3 19  4  0
  3 25  4  0
  4 23  4  0
  4 27  1  0
  4 30  4  0
  5 17  1  0
  6  8  1  0
  6 29  1  0
  7 24  4  0
  7 26  4  0
  8 28  1  0
  9 13  2  0
 10 18  1  0
 10 21  4  0
 10 30  4  0
 11 17  2  0
 12 18  1  0
 13 15  1  0
 14 24  1  0
 15 25  1  0
 16 28  2  0
 17 20  1  0
 19 24  4  0
 20 23  1  0
 21 22  4  0
 22 23  4  0
 25 26  4  0
 27 29  2  0
M  END
$$$$

 Created by Python create_sdf_string function

 30 33  0  0  0  0  0  0  0  0999 V2000
    8.3036    9.8571   18.4133 C   0  0  0  0  0  0  0  0  0  0  0  0
    8.3694    7.6612   22.6703 C   0  0  0  0  0  0  0  0  0  0  0  0
    8.4143    6.6863   16.2273 C   0  0  0  0  0  0  0  0  0  0  0  0
   10.7581    6.5674   21.7636 C   0  0  0  0  0  0  0  0  0  0  0  0
    8.4452    8.7960   19.2958 O   0  0  0  0  0  0  0  0  0  0  0  0
    8.7122    6.7842   24.8569 C   0  0  0  0  0  0  0  0  0  0  0  0
   10.3400    6.1726   14.3081 C   0  0  0  0  0  0  0  0  0  0  0  0
    7.4297    7.5873   24.8962 C   0  0  0  0  0  0  0  0  0  0  0  0
    8.1566   10.0536   16.0516 O   0  0  0  0  0  0  0  0  0  0  0  0
   12.4989    6.2074   20.1776 C   0  0  0  0  0  0  0  0  0  0  0  0
    6.9192    9.1053   20.9073 O   0  0  0  0  0  0  0  0  0  0  0  0
   14.3979    6.0729   18.7784 C   0  0  0  0  0  0  0  0  0  0  0  0
    8.6811    9.5354   16.9998 C   0  0  0  0  0  0  0  0  0  0  0  0
    9.2512    4.2713   13.7653 O   0  0  0  0  0  0  0  0  0  0  0  0
    9.6495    8.6317   16.8332 N   0  0  0  0  0  0  0  0  0  0  0  0
    6.2934    8.6988   23.1988 O   0  0  0  0  0  0  0  0  0  0  0  0
    7.9806    8.6543   20.5437 C   0  0  0  0  0  0  0  0  0  0  0  0
   13.7270    5.7144   19.8610 O   0  0  0  0  0  0  0  0  0  0  0  0
    8.3351    5.5235   15.4478 C   0  0  0  0  0  0  0  0  0  0  0  0
    8.7700    7.8434   21.3915 C   0  0  0  0  0  0  0  0  0  0  0  0
   11.7856    6.8851   19.2401 C   0  0  0  0  0  0  0  0  0  0  0  0
   10.5281    7.4276   19.5649 C   0  0  0  0  0  0  0  0  0  0  0  0
   10.0256    7.2907   20.8484 C   0  0  0  0  0  0  0  0  0  0  0  0
    9.3113    5.3049   14.4911 C   0  0  0  0  0  0  0  0  0  0  0  0
    9.4607    7.5646   16.0139 C   0  0  0  0  0  0  0  0  0  0  0  0
   10.4192    7.3157   15.0955 C   0  0  0  0  0  0  0  0  0  0  0  0
   10.2489    6.4227   23.0218 N   0  0  0  0  0  0  0  0  0  0  0  0
    7.2472    8.0746   23.5050 C   0  0  0  0  0  0  0  0  0  0  0  0
    9.2051    6.9101   23.4604 C   0  0  0  0  0  0  0  0  0  0  0  0
   11.9646    6.0299   21.4251 C   0  0  0  0  0  0  0  0  0  0  0  0
  1  5  1  0
  1 13  1  0
  2 20  2  0
  2 28  1  0
  2 29  1  0
  3 19  4  0
  3 25  4  0
  4 23  4  0
  4 27  1  0
  4 30  4  0
  5 17  1  0
  6  8  1  0
  6 29  1  0
  7 24  4  0
  7 26  4  0
  8 28  1  0
  9 13  2  0
 10 18  1  0
 10 21  4  0
 10 30  4  0
 11 17  2  0
 12 18  1  0
 13 15  1  0
 14 24  1  0
 15 25  1  0
 16 28  2  0
 17 20  1  0
 19 24  4  0
 20 23  1  0
 21 22  4  0
 22 23  4  0
 25 26  4  0
 27 29  2  0
M  END
$$$$

 Created by Python create_sdf_string function

 30 33  0  0  0  0  0  0  0  0999 V2000
    8.3036    9.8571   18.4133 C   0  0  0  0  0  0  0  0  0  0  0  0
    8.3694    7.6612   22.6703 C   0  0  0  0  0  0  0  0  0  0  0  0
    8.4143    6.6863   16.2273 C   0  0  0  0  0  0  0  0  0  0  0  0
   10.7581    6.5674   21.7636 C   0  0  0  0  0  0  0  0  0  0  0  0
    8.4452    8.7960   19.2958 O   0  0  0  0  0  0  0  0  0  0  0  0
    8.7122    6.7842   24.8569 C   0  0  0  0  0  0  0  0  0  0  0  0
   10.3400    6.1726   14.3081 C   0  0  0  0  0  0  0  0  0  0  0  0
    7.4297    7.5873   24.8962 C   0  0  0  0  0  0  0  0  0  0  0  0
    8.1566   10.0536   16.0516 O   0  0  0  0  0  0  0  0  0  0  0  0
   12.4989    6.2074   20.1776 C   0  0  0  0  0  0  0  0  0  0  0  0
    6.9192    9.1053   20.9073 O   0  0  0  0  0  0  0  0  0  0  0  0
   14.3979    6.0729   18.7784 C   0  0  0  0  0  0  0  0  0  0  0  0
    8.6811    9.5354   16.9998 C   0  0  0  0  0  0  0  0  0  0  0  0
    9.2512    4.2713   13.7653 O   0  0  0  0  0  0  0  0  0  0  0  0
    9.6495    8.6317   16.8332 N   0  0  0  0  0  0  0  0  0  0  0  0
    6.2934    8.6988   23.1988 O   0  0  0  0  0  0  0  0  0  0  0  0
    7.9806    8.6543   20.5437 C   0  0  0  0  0  0  0  0  0  0  0  0
   13.7270    5.7144   19.8610 O   0  0  0  0  0  0  0  0  0  0  0  0
    8.3351    5.5235   15.4478 C   0  0  0  0  0  0  0  0  0  0  0  0
    8.7700    7.8434   21.3915 C   0  0  0  0  0  0  0  0  0  0  0  0
   11.7856    6.8851   19.2401 C   0  0  0  0  0  0  0  0  0  0  0  0
   10.5281    7.4276   19.5649 C   0  0  0  0  0  0  0  0  0  0  0  0
   10.0256    7.2907   20.8484 C   0  0  0  0  0  0  0  0  0  0  0  0
    9.3113    5.3049   14.4911 C   0  0  0  0  0  0  0  0  0  0  0  0
    9.4607    7.5646   16.0139 C   0  0  0  0  0  0  0  0  0  0  0  0
   10.4192    7.3157   15.0955 C   0  0  0  0  0  0  0  0  0  0  0  0
   10.2489    6.4227   23.0218 N   0  0  0  0  0  0  0  0  0  0  0  0
    7.2472    8.0746   23.5050 C   0  0  0  0  0  0  0  0  0  0  0  0
    9.2051    6.9101   23.4604 C   0  0  0  0  0  0  0  0  0  0  0  0
   11.9646    6.0299   21.4251 C   0  0  0  0  0  0  0  0  0  0  0  0
  1  5  1  0
  1 13  1  0
  2 20  2  0
  2 28  1  0
  2 29  1  0
  3 19  4  0
  3 25  4  0
  4 23  4  0
  4 27  1  0
  4 30  4  0
  5 17  1  0
  6  8  1  0
  6 29  1  0
  7 24  4  0
  7 26  4  0
  8 28  1  0
  9 13  2  0
 10 18  1  0
 10 21  4  0
 10 30  4  0
 11 17  2  0
 12 18  1  0
 13 15  1  0
 14 24  1  0
 15 25  1  0
 16 28  2  0
 17 20  1  0
 19 24  4  0
 20 23  1  0
 21 22  4  0
 22 23  4  0
 25 26  4  0
 27 29  2  0
M  END
$$$$

 Created by Python create_sdf_string function

 30 33  0  0  0  0  0  0  0  0999 V2000
    8.3036    9.8571   18.4133 C   0  0  0  0  0  0  0  0  0  0  0  0
    8.3694    7.6612   22.6703 C   0  0  0  0  0  0  0  0  0  0  0  0
    8.4143    6.6863   16.2273 C   0  0  0  0  0  0  0  0  0  0  0  0
   10.7581    6.5674   21.7636 C   0  0  0  0  0  0  0  0  0  0  0  0
    8.4452    8.7960   19.2958 O   0  0  0  0  0  0  0  0  0  0  0  0
    8.7122    6.7842   24.8569 C   0  0  0  0  0  0  0  0  0  0  0  0
   10.3400    6.1726   14.3081 C   0  0  0  0  0  0  0  0  0  0  0  0
    7.4297    7.5873   24.8962 C   0  0  0  0  0  0  0  0  0  0  0  0
    8.1566   10.0536   16.0516 O   0  0  0  0  0  0  0  0  0  0  0  0
   12.4989    6.2074   20.1776 C   0  0  0  0  0  0  0  0  0  0  0  0
    6.9192    9.1053   20.9073 O   0  0  0  0  0  0  0  0  0  0  0  0
   14.3979    6.0729   18.7784 C   0  0  0  0  0  0  0  0  0  0  0  0
    8.6811    9.5354   16.9998 C   0  0  0  0  0  0  0  0  0  0  0  0
    9.2512    4.2713   13.7653 O   0  0  0  0  0  0  0  0  0  0  0  0
    9.6495    8.6317   16.8332 N   0  0  0  0  0  0  0  0  0  0  0  0
    6.2934    8.6988   23.1988 O   0  0  0  0  0  0  0  0  0  0  0  0
    7.9806    8.6543   20.5437 C   0  0  0  0  0  0  0  0  0  0  0  0
   13.7270    5.7144   19.8610 O   0  0  0  0  0  0  0  0  0  0  0  0
    8.3351    5.5235   15.4478 C   0  0  0  0  0  0  0  0  0  0  0  0
    8.7700    7.8434   21.3915 C   0  0  0  0  0  0  0  0  0  0  0  0
   11.7856    6.8851   19.2401 C   0  0  0  0  0  0  0  0  0  0  0  0
   10.5281    7.4276   19.5649 C   0  0  0  0  0  0  0  0  0  0  0  0
   10.0256    7.2907   20.8484 C   0  0  0  0  0  0  0  0  0  0  0  0
    9.3113    5.3049   14.4911 C   0  0  0  0  0  0  0  0  0  0  0  0
    9.4607    7.5646   16.0139 C   0  0  0  0  0  0  0  0  0  0  0  0
   10.4192    7.3157   15.0955 C   0  0  0  0  0  0  0  0  0  0  0  0
   10.2489    6.4227   23.0218 N   0  0  0  0  0  0  0  0  0  0  0  0
    7.2472    8.0746   23.5050 C   0  0  0  0  0  0  0  0  0  0  0  0
    9.2051    6.9101   23.4604 C   0  0  0  0  0  0  0  0  0  0  0  0
   11.9646    6.0299   21.4251 C   0  0  0  0  0  0  0  0  0  0  0  0
  1  5  1  0
  1 13  1  0
  2 20  2  0
  2 28  1  0
  2 29  1  0
  3 19  4  0
  3 25  4  0
  4 23  4  0
  4 27  1  0
  4 30  4  0
  5 17  1  0
  6  8  1  0
  6 29  1  0
  7 24  4  0
  7 26  4  0
  8 28  1  0
  9 13  2  0
 10 18  1  0
 10 21  4  0
 10 30  4  0
 11 17  2  0
 12 18  1  0
 13 15  1  0
 14 24  1  0
 15 25  1  0
 16 28  2  0
 17 20  1  0
 19 24  4  0
 20 23  1  0
 21 22  4  0
 22 23  4  0
 25 26  4  0
 27 29  2  0
M  END
$$$$

 Created by Python create_sdf_string function

 30 33  0  0  0  0  0  0  0  0999 V2000
    8.3036    9.8571   18.4133 C   0  0  0  0  0  0  0  0  0  0  0  0
    8.3694    7.6612   22.6703 C   0  0  0  0  0  0  0  0  0  0  0  0
    8.4143    6.6863   16.2273 C   0  0  0  0  0  0  0  0  0  0  0  0
   10.7581    6.5674   21.7636 C   0  0  0  0  0  0  0  0  0  0  0  0
    8.4452    8.7960   19.2958 O   0  0  0  0  0  0  0  0  0  0  0  0
    8.7122    6.7842   24.8569 C   0  0  0  0  0  0  0  0  0  0  0  0
   10.3400    6.1726   14.3081 C   0  0  0  0  0  0  0  0  0  0  0  0
    7.4297    7.5873   24.8962 C   0  0  0  0  0  0  0  0  0  0  0  0
    8.1566   10.0536   16.0516 O   0  0  0  0  0  0  0  0  0  0  0  0
   12.4989    6.2074   20.1776 C   0  0  0  0  0  0  0  0  0  0  0  0
    6.9192    9.1053   20.9073 O   0  0  0  0  0  0  0  0  0  0  0  0
   14.3979    6.0729   18.7784 C   0  0  0  0  0  0  0  0  0  0  0  0
    8.6811    9.5354   16.9998 C   0  0  0  0  0  0  0  0  0  0  0  0
    9.2512    4.2713   13.7653 O   0  0  0  0  0  0  0  0  0  0  0  0
    9.6495    8.6317   16.8332 N   0  0  0  0  0  0  0  0  0  0  0  0
    6.2934    8.6988   23.1988 O   0  0  0  0  0  0  0  0  0  0  0  0
    7.9806    8.6543   20.5437 C   0  0  0  0  0  0  0  0  0  0  0  0
   13.7270    5.7144   19.8610 O   0  0  0  0  0  0  0  0  0  0  0  0
    8.3351    5.5235   15.4478 C   0  0  0  0  0  0  0  0  0  0  0  0
    8.7700    7.8434   21.3915 C   0  0  0  0  0  0  0  0  0  0  0  0
   11.7856    6.8851   19.2401 C   0  0  0  0  0  0  0  0  0  0  0  0
   10.5281    7.4276   19.5649 C   0  0  0  0  0  0  0  0  0  0  0  0
   10.0256    7.2907   20.8484 C   0  0  0  0  0  0  0  0  0  0  0  0
    9.3113    5.3049   14.4911 C   0  0  0  0  0  0  0  0  0  0  0  0
    9.4607    7.5646   16.0139 C   0  0  0  0  0  0  0  0  0  0  0  0
   10.4192    7.3157   15.0955 C   0  0  0  0  0  0  0  0  0  0  0  0
   10.2489    6.4227   23.0218 N   0  0  0  0  0  0  0  0  0  0  0  0
    7.2472    8.0746   23.5050 C   0  0  0  0  0  0  0  0  0  0  0  0
    9.2051    6.9101   23.4604 C   0  0  0  0  0  0  0  0  0  0  0  0
   11.9646    6.0299   21.4251 C   0  0  0  0  0  0  0  0  0  0  0  0
  1  5  1  0
  1 13  1  0
  2 20  2  0
  2 28  1  0
  2 29  1  0
  3 19  4  0
  3 25  4  0
  4 23  4  0
  4 27  1  0
  4 30  4  0
  5 17  1  0
  6  8  1  0
  6 29  1  0
  7 24  4  0
  7 26  4  0
  8 28  1  0
  9 13  2  0
 10 18  1  0
 10 21  4  0
 10 30  4  0
 11 17  2  0
 12 18  1  0
 13 15  1  0
 14 24  1  0
 15 25  1  0
 16 28  2  0
 17 20  1  0
 19 24  4  0
 20 23  1  0
 21 22  4  0
 22 23  4  0
 25 26  4  0
 27 29  2  0
M  END
$$$$

 Created by Python create_sdf_string function

 30 33  0  0  0  0  0  0  0  0999 V2000
    8.3036    9.8571   18.4133 C   0  0  0  0  0  0  0  0  0  0  0  0
    8.3694    7.6612   22.6703 C   0  0  0  0  0  0  0  0  0  0  0  0
    8.4143    6.6863   16.2273 C   0  0  0  0  0  0  0  0  0  0  0  0
   10.7581    6.5674   21.7636 C   0  0  0  0  0  0  0  0  0  0  0  0
    8.4452    8.7960   19.2958 O   0  0  0  0  0  0  0  0  0  0  0  0
    8.7122    6.7842   24.8569 C   0  0  0  0  0  0  0  0  0  0  0  0
   10.3400    6.1726   14.3081 C   0  0  0  0  0  0  0  0  0  0  0  0
    7.4297    7.5873   24.8962 C   0  0  0  0  0  0  0  0  0  0  0  0
    8.1566   10.0536   16.0516 O   0  0  0  0  0  0  0  0  0  0  0  0
   12.4989    6.2074   20.1776 C   0  0  0  0  0  0  0  0  0  0  0  0
    6.9192    9.1053   20.9073 O   0  0  0  0  0  0  0  0  0  0  0  0
   14.3979    6.0729   18.7784 C   0  0  0  0  0  0  0  0  0  0  0  0
    8.6811    9.5354   16.9998 C   0  0  0  0  0  0  0  0  0  0  0  0
    9.2512    4.2713   13.7653 O   0  0  0  0  0  0  0  0  0  0  0  0
    9.6495    8.6317   16.8332 N   0  0  0  0  0  0  0  0  0  0  0  0
    6.2934    8.6988   23.1988 O   0  0  0  0  0  0  0  0  0  0  0  0
    7.9806    8.6543   20.5437 C   0  0  0  0  0  0  0  0  0  0  0  0
   13.7270    5.7144   19.8610 O   0  0  0  0  0  0  0  0  0  0  0  0
    8.3351    5.5235   15.4478 C   0  0  0  0  0  0  0  0  0  0  0  0
    8.7700    7.8434   21.3915 C   0  0  0  0  0  0  0  0  0  0  0  0
   11.7856    6.8851   19.2401 C   0  0  0  0  0  0  0  0  0  0  0  0
   10.5281    7.4276   19.5649 C   0  0  0  0  0  0  0  0  0  0  0  0
   10.0256    7.2907   20.8484 C   0  0  0  0  0  0  0  0  0  0  0  0
    9.3113    5.3049   14.4911 C   0  0  0  0  0  0  0  0  0  0  0  0
    9.4607    7.5646   16.0139 C   0  0  0  0  0  0  0  0  0  0  0  0
   10.4192    7.3157   15.0955 C   0  0  0  0  0  0  0  0  0  0  0  0
   10.2489    6.4227   23.0218 N   0  0  0  0  0  0  0  0  0  0  0  0
    7.2472    8.0746   23.5050 C   0  0  0  0  0  0  0  0  0  0  0  0
    9.2051    6.9101   23.4604 C   0  0  0  0  0  0  0  0  0  0  0  0
   11.9646    6.0299   21.4251 C   0  0  0  0  0  0  0  0  0  0  0  0
  1  5  1  0
  1 13  1  0
  2 20  2  0
  2 28  1  0
  2 29  1  0
  3 19  4  0
  3 25  4  0
  4 23  4  0
  4 27  1  0
  4 30  4  0
  5 17  1  0
  6  8  1  0
  6 29  1  0
  7 24  4  0
  7 26  4  0
  8 28  1  0
  9 13  2  0
 10 18  1  0
 10 21  4  0
 10 30  4  0
 11 17  2  0
 12 18  1  0
 13 15  1  0
 14 24  1  0
 15 25  1  0
 16 28  2  0
 17 20  1  0
 19 24  4  0
 20 23  1  0
 21 22  4  0
 22 23  4  0
 25 26  4  0
 27 29  2  0
M  END
$$$$

 Created by Python create_sdf_string function

 30 33  0  0  0  0  0  0  0  0999 V2000
    8.3036    9.8571   18.4133 C   0  0  0  0  0  0  0  0  0  0  0  0
    8.3694    7.6612   22.6703 C   0  0  0  0  0  0  0  0  0  0  0  0
    8.4143    6.6863   16.2273 C   0  0  0  0  0  0  0  0  0  0  0  0
   10.7581    6.5674   21.7636 C   0  0  0  0  0  0  0  0  0  0  0  0
    8.4452    8.7960   19.2958 O   0  0  0  0  0  0  0  0  0  0  0  0
    8.7122    6.7842   24.8569 C   0  0  0  0  0  0  0  0  0  0  0  0
   10.3400    6.1726   14.3081 C   0  0  0  0  0  0  0  0  0  0  0  0
    7.4297    7.5873   24.8962 C   0  0  0  0  0  0  0  0  0  0  0  0
    8.1566   10.0536   16.0516 O   0  0  0  0  0  0  0  0  0  0  0  0
   12.4989    6.2074   20.1776 C   0  0  0  0  0  0  0  0  0  0  0  0
    6.9192    9.1053   20.9073 O   0  0  0  0  0  0  0  0  0  0  0  0
   14.3979    6.0729   18.7784 C   0  0  0  0  0  0  0  0  0  0  0  0
    8.6811    9.5354   16.9998 C   0  0  0  0  0  0  0  0  0  0  0  0
    9.2512    4.2713   13.7653 O   0  0  0  0  0  0  0  0  0  0  0  0
    9.6495    8.6317   16.8332 N   0  0  0  0  0  0  0  0  0  0  0  0
    6.2934    8.6988   23.1988 O   0  0  0  0  0  0  0  0  0  0  0  0
    7.9806    8.6543   20.5437 C   0  0  0  0  0  0  0  0  0  0  0  0
   13.7270    5.7144   19.8610 O   0  0  0  0  0  0  0  0  0  0  0  0
    8.3351    5.5235   15.4478 C   0  0  0  0  0  0  0  0  0  0  0  0
    8.7700    7.8434   21.3915 C   0  0  0  0  0  0  0  0  0  0  0  0
   11.7856    6.8851   19.2401 C   0  0  0  0  0  0  0  0  0  0  0  0
   10.5281    7.4276   19.5649 C   0  0  0  0  0  0  0  0  0  0  0  0
   10.0256    7.2907   20.8484 C   0  0  0  0  0  0  0  0  0  0  0  0
    9.3113    5.3049   14.4911 C   0  0  0  0  0  0  0  0  0  0  0  0
    9.4607    7.5646   16.0139 C   0  0  0  0  0  0  0  0  0  0  0  0
   10.4192    7.3157   15.0955 C   0  0  0  0  0  0  0  0  0  0  0  0
   10.2489    6.4227   23.0218 N   0  0  0  0  0  0  0  0  0  0  0  0
    7.2472    8.0746   23.5050 C   0  0  0  0  0  0  0  0  0  0  0  0
    9.2051    6.9101   23.4604 C   0  0  0  0  0  0  0  0  0  0  0  0
   11.9646    6.0299   21.4251 C   0  0  0  0  0  0  0  0  0  0  0  0
  1  5  1  0
  1 13  1  0
  2 20  2  0
  2 28  1  0
  2 29  1  0
  3 19  4  0
  3 25  4  0
  4 23  4  0
  4 27  1  0
  4 30  4  0
  5 17  1  0
  6  8  1  0
  6 29  1  0
  7 24  4  0
  7 26  4  0
  8 28  1  0
  9 13  2  0
 10 18  1  0
 10 21  4  0
 10 30  4  0
 11 17  2  0
 12 18  1  0
 13 15  1  0
 14 24  1  0
 15 25  1  0
 16 28  2  0
 17 20  1  0
 19 24  4  0
 20 23  1  0
 21 22  4  0
 22 23  4  0
 25 26  4  0
 27 29  2  0
M  END
$$$$

 Created by Python create_sdf_string function

 30 33  0  0  0  0  0  0  0  0999 V2000
    8.3036    9.8571   18.4133 C   0  0  0  0  0  0  0  0  0  0  0  0
    8.3694    7.6612   22.6703 C   0  0  0  0  0  0  0  0  0  0  0  0
    8.4143    6.6863   16.2273 C   0  0  0  0  0  0  0  0  0  0  0  0
   10.7581    6.5674   21.7636 C   0  0  0  0  0  0  0  0  0  0  0  0
    8.4452    8.7960   19.2958 O   0  0  0  0  0  0  0  0  0  0  0  0
    8.7122    6.7842   24.8569 C   0  0  0  0  0  0  0  0  0  0  0  0
   10.3400    6.1726   14.3081 C   0  0  0  0  0  0  0  0  0  0  0  0
    7.4297    7.5873   24.8962 C   0  0  0  0  0  0  0  0  0  0  0  0
    8.1566   10.0536   16.0516 O   0  0  0  0  0  0  0  0  0  0  0  0
   12.4989    6.2074   20.1776 C   0  0  0  0  0  0  0  0  0  0  0  0
    6.9192    9.1053   20.9073 O   0  0  0  0  0  0  0  0  0  0  0  0
   14.3979    6.0729   18.7784 C   0  0  0  0  0  0  0  0  0  0  0  0
    8.6811    9.5354   16.9998 C   0  0  0  0  0  0  0  0  0  0  0  0
    9.2512    4.2713   13.7653 O   0  0  0  0  0  0  0  0  0  0  0  0
    9.6495    8.6317   16.8332 N   0  0  0  0  0  0  0  0  0  0  0  0
    6.2934    8.6988   23.1988 O   0  0  0  0  0  0  0  0  0  0  0  0
    7.9806    8.6543   20.5437 C   0  0  0  0  0  0  0  0  0  0  0  0
   13.7270    5.7144   19.8610 O   0  0  0  0  0  0  0  0  0  0  0  0
    8.3351    5.5235   15.4478 C   0  0  0  0  0  0  0  0  0  0  0  0
    8.7700    7.8434   21.3915 C   0  0  0  0  0  0  0  0  0  0  0  0
   11.7856    6.8851   19.2401 C   0  0  0  0  0  0  0  0  0  0  0  0
   10.5281    7.4276   19.5649 C   0  0  0  0  0  0  0  0  0  0  0  0
   10.0256    7.2907   20.8484 C   0  0  0  0  0  0  0  0  0  0  0  0
    9.3113    5.3049   14.4911 C   0  0  0  0  0  0  0  0  0  0  0  0
    9.4607    7.5646   16.0139 C   0  0  0  0  0  0  0  0  0  0  0  0
   10.4192    7.3157   15.0955 C   0  0  0  0  0  0  0  0  0  0  0  0
   10.2489    6.4227   23.0218 N   0  0  0  0  0  0  0  0  0  0  0  0
    7.2472    8.0746   23.5050 C   0  0  0  0  0  0  0  0  0  0  0  0
    9.2051    6.9101   23.4604 C   0  0  0  0  0  0  0  0  0  0  0  0
   11.9646    6.0299   21.4251 C   0  0  0  0  0  0  0  0  0  0  0  0
  1  5  1  0
  1 13  1  0
  2 20  2  0
  2 28  1  0
  2 29  1  0
  3 19  4  0
  3 25  4  0
  4 23  4  0
  4 27  1  0
  4 30  4  0
  5 17  1  0
  6  8  1  0
  6 29  1  0
  7 24  4  0
  7 26  4  0
  8 28  1  0
  9 13  2  0
 10 18  1  0
 10 21  4  0
 10 30  4  0
 11 17  2  0
 12 18  1  0
 13 15  1  0
 14 24  1  0
 15 25  1  0
 16 28  2  0
 17 20  1  0
 19 24  4  0
 20 23  1  0
 21 22  4  0
 22 23  4  0
 25 26  4  0
 27 29  2  0
M  END
$$$$

 Created by Python create_sdf_string function

 30 33  0  0  0  0  0  0  0  0999 V2000
    8.3036    9.8571   18.4133 C   0  0  0  0  0  0  0  0  0  0  0  0
    8.3694    7.6612   22.6703 C   0  0  0  0  0  0  0  0  0  0  0  0
    8.4143    6.6863   16.2273 C   0  0  0  0  0  0  0  0  0  0  0  0
   10.7581    6.5674   21.7636 C   0  0  0  0  0  0  0  0  0  0  0  0
    8.4452    8.7960   19.2958 O   0  0  0  0  0  0  0  0  0  0  0  0
    8.7122    6.7842   24.8569 C   0  0  0  0  0  0  0  0  0  0  0  0
   10.3400    6.1726   14.3081 C   0  0  0  0  0  0  0  0  0  0  0  0
    7.4297    7.5873   24.8962 C   0  0  0  0  0  0  0  0  0  0  0  0
    8.1566   10.0536   16.0516 O   0  0  0  0  0  0  0  0  0  0  0  0
   12.4989    6.2074   20.1776 C   0  0  0  0  0  0  0  0  0  0  0  0
    6.9192    9.1053   20.9073 O   0  0  0  0  0  0  0  0  0  0  0  0
   14.3979    6.0729   18.7784 C   0  0  0  0  0  0  0  0  0  0  0  0
    8.6811    9.5354   16.9998 C   0  0  0  0  0  0  0  0  0  0  0  0
    9.2512    4.2713   13.7653 O   0  0  0  0  0  0  0  0  0  0  0  0
    9.6495    8.6317   16.8332 N   0  0  0  0  0  0  0  0  0  0  0  0
    6.2934    8.6988   23.1988 O   0  0  0  0  0  0  0  0  0  0  0  0
    7.9806    8.6543   20.5437 C   0  0  0  0  0  0  0  0  0  0  0  0
   13.7270    5.7144   19.8610 O   0  0  0  0  0  0  0  0  0  0  0  0
    8.3351    5.5235   15.4478 C   0  0  0  0  0  0  0  0  0  0  0  0
    8.7700    7.8434   21.3915 C   0  0  0  0  0  0  0  0  0  0  0  0
   11.7856    6.8851   19.2401 C   0  0  0  0  0  0  0  0  0  0  0  0
   10.5281    7.4276   19.5649 C   0  0  0  0  0  0  0  0  0  0  0  0
   10.0256    7.2907   20.8484 C   0  0  0  0  0  0  0  0  0  0  0  0
    9.3113    5.3049   14.4911 C   0  0  0  0  0  0  0  0  0  0  0  0
    9.4607    7.5646   16.0139 C   0  0  0  0  0  0  0  0  0  0  0  0
   10.4192    7.3157   15.0955 C   0  0  0  0  0  0  0  0  0  0  0  0
   10.2489    6.4227   23.0218 N   0  0  0  0  0  0  0  0  0  0  0  0
    7.2472    8.0746   23.5050 C   0  0  0  0  0  0  0  0  0  0  0  0
    9.2051    6.9101   23.4604 C   0  0  0  0  0  0  0  0  0  0  0  0
   11.9646    6.0299   21.4251 C   0  0  0  0  0  0  0  0  0  0  0  0
  1  5  1  0
  1 13  1  0
  2 20  2  0
  2 28  1  0
  2 29  1  0
  3 19  4  0
  3 25  4  0
  4 23  4  0
  4 27  1  0
  4 30  4  0
  5 17  1  0
  6  8  1  0
  6 29  1  0
  7 24  4  0
  7 26  4  0
  8 28  1  0
  9 13  2  0
 10 18  1  0
 10 21  4  0
 10 30  4  0
 11 17  2  0
 12 18  1  0
 13 15  1  0
 14 24  1  0
 15 25  1  0
 16 28  2  0
 17 20  1  0
 19 24  4  0
 20 23  1  0
 21 22  4  0
 22 23  4  0
 25 26  4  0
 27 29  2  0
M  END
$$$$

 Created by Python create_sdf_string function

 30 33  0  0  0  0  0  0  0  0999 V2000
    8.3036    9.8571   18.4133 C   0  0  0  0  0  0  0  0  0  0  0  0
    8.3694    7.6612   22.6703 C   0  0  0  0  0  0  0  0  0  0  0  0
    8.4143    6.6863   16.2273 C   0  0  0  0  0  0  0  0  0  0  0  0
   10.7581    6.5674   21.7636 C   0  0  0  0  0  0  0  0  0  0  0  0
    8.4452    8.7960   19.2958 O   0  0  0  0  0  0  0  0  0  0  0  0
    8.7122    6.7842   24.8569 C   0  0  0  0  0  0  0  0  0  0  0  0
   10.3400    6.1726   14.3081 C   0  0  0  0  0  0  0  0  0  0  0  0
    7.4297    7.5873   24.8962 C   0  0  0  0  0  0  0  0  0  0  0  0
    8.1566   10.0536   16.0516 O   0  0  0  0  0  0  0  0  0  0  0  0
   12.4989    6.2074   20.1776 C   0  0  0  0  0  0  0  0  0  0  0  0
    6.9192    9.1053   20.9073 O   0  0  0  0  0  0  0  0  0  0  0  0
   14.3979    6.0729   18.7784 C   0  0  0  0  0  0  0  0  0  0  0  0
    8.6811    9.5354   16.9998 C   0  0  0  0  0  0  0  0  0  0  0  0
    9.2512    4.2713   13.7653 O   0  0  0  0  0  0  0  0  0  0  0  0
    9.6495    8.6317   16.8332 N   0  0  0  0  0  0  0  0  0  0  0  0
    6.2934    8.6988   23.1988 O   0  0  0  0  0  0  0  0  0  0  0  0
    7.9806    8.6543   20.5437 C   0  0  0  0  0  0  0  0  0  0  0  0
   13.7270    5.7144   19.8610 O   0  0  0  0  0  0  0  0  0  0  0  0
    8.3351    5.5235   15.4478 C   0  0  0  0  0  0  0  0  0  0  0  0
    8.7700    7.8434   21.3915 C   0  0  0  0  0  0  0  0  0  0  0  0
   11.7856    6.8851   19.2401 C   0  0  0  0  0  0  0  0  0  0  0  0
   10.5281    7.4276   19.5649 C   0  0  0  0  0  0  0  0  0  0  0  0
   10.0256    7.2907   20.8484 C   0  0  0  0  0  0  0  0  0  0  0  0
    9.3113    5.3049   14.4911 C   0  0  0  0  0  0  0  0  0  0  0  0
    9.4607    7.5646   16.0139 C   0  0  0  0  0  0  0  0  0  0  0  0
   10.4192    7.3157   15.0955 C   0  0  0  0  0  0  0  0  0  0  0  0
   10.2489    6.4227   23.0218 N   0  0  0  0  0  0  0  0  0  0  0  0
    7.2472    8.0746   23.5050 C   0  0  0  0  0  0  0  0  0  0  0  0
    9.2051    6.9101   23.4604 C   0  0  0  0  0  0  0  0  0  0  0  0
   11.9646    6.0299   21.4251 C   0  0  0  0  0  0  0  0  0  0  0  0
  1  5  1  0
  1 13  1  0
  2 20  2  0
  2 28  1  0
  2 29  1  0
  3 19  4  0
  3 25  4  0
  4 23  4  0
  4 27  1  0
  4 30  4  0
  5 17  1  0
  6  8  1  0
  6 29  1  0
  7 24  4  0
  7 26  4  0
  8 28  1  0
  9 13  2  0
 10 18  1  0
 10 21  4  0
 10 30  4  0
 11 17  2  0
 12 18  1  0
 13 15  1  0
 14 24  1  0
 15 25  1  0
 16 28  2  0
 17 20  1  0
 19 24  4  0
 20 23  1  0
 21 22  4  0
 22 23  4  0
 25 26  4  0
 27 29  2  0
M  END
$$$$

 Created by Python create_sdf_string function

 30 33  0  0  0  0  0  0  0  0999 V2000
    8.3036    9.8571   18.4133 C   0  0  0  0  0  0  0  0  0  0  0  0
    8.3694    7.6612   22.6703 C   0  0  0  0  0  0  0  0  0  0  0  0
    8.4143    6.6863   16.2273 C   0  0  0  0  0  0  0  0  0  0  0  0
   10.7581    6.5674   21.7636 C   0  0  0  0  0  0  0  0  0  0  0  0
    8.4452    8.7960   19.2958 O   0  0  0  0  0  0  0  0  0  0  0  0
    8.7122    6.7842   24.8569 C   0  0  0  0  0  0  0  0  0  0  0  0
   10.3400    6.1726   14.3081 C   0  0  0  0  0  0  0  0  0  0  0  0
    7.4297    7.5873   24.8962 C   0  0  0  0  0  0  0  0  0  0  0  0
    8.1566   10.0536   16.0516 O   0  0  0  0  0  0  0  0  0  0  0  0
   12.4989    6.2074   20.1776 C   0  0  0  0  0  0  0  0  0  0  0  0
    6.9192    9.1053   20.9073 O   0  0  0  0  0  0  0  0  0  0  0  0
   14.3979    6.0729   18.7784 C   0  0  0  0  0  0  0  0  0  0  0  0
    8.6811    9.5354   16.9998 C   0  0  0  0  0  0  0  0  0  0  0  0
    9.2512    4.2713   13.7653 O   0  0  0  0  0  0  0  0  0  0  0  0
    9.6495    8.6317   16.8332 N   0  0  0  0  0  0  0  0  0  0  0  0
    6.2934    8.6988   23.1988 O   0  0  0  0  0  0  0  0  0  0  0  0
    7.9806    8.6543   20.5437 C   0  0  0  0  0  0  0  0  0  0  0  0
   13.7270    5.7144   19.8610 O   0  0  0  0  0  0  0  0  0  0  0  0
    8.3351    5.5235   15.4478 C   0  0  0  0  0  0  0  0  0  0  0  0
    8.7700    7.8434   21.3915 C   0  0  0  0  0  0  0  0  0  0  0  0
   11.7856    6.8851   19.2401 C   0  0  0  0  0  0  0  0  0  0  0  0
   10.5281    7.4276   19.5649 C   0  0  0  0  0  0  0  0  0  0  0  0
   10.0256    7.2907   20.8484 C   0  0  0  0  0  0  0  0  0  0  0  0
    9.3113    5.3049   14.4911 C   0  0  0  0  0  0  0  0  0  0  0  0
    9.4607    7.5646   16.0139 C   0  0  0  0  0  0  0  0  0  0  0  0
   10.4192    7.3157   15.0955 C   0  0  0  0  0  0  0  0  0  0  0  0
   10.2489    6.4227   23.0218 N   0  0  0  0  0  0  0  0  0  0  0  0
    7.2472    8.0746   23.5050 C   0  0  0  0  0  0  0  0  0  0  0  0
    9.2051    6.9101   23.4604 C   0  0  0  0  0  0  0  0  0  0  0  0
   11.9646    6.0299   21.4251 C   0  0  0  0  0  0  0  0  0  0  0  0
  1  5  1  0
  1 13  1  0
  2 20  2  0
  2 28  1  0
  2 29  1  0
  3 19  4  0
  3 25  4  0
  4 23  4  0
  4 27  1  0
  4 30  4  0
  5 17  1  0
  6  8  1  0
  6 29  1  0
  7 24  4  0
  7 26  4  0
  8 28  1  0
  9 13  2  0
 10 18  1  0
 10 21  4  0
 10 30  4  0
 11 17  2  0
 12 18  1  0
 13 15  1  0
 14 24  1  0
 15 25  1  0
 16 28  2  0
 17 20  1  0
 19 24  4  0
 20 23  1  0
 21 22  4  0
 22 23  4  0
 25 26  4  0
 27 29  2  0
M  END
$$$$

 Created by Python create_sdf_string function

 30 33  0  0  0  0  0  0  0  0999 V2000
    8.3036    9.8571   18.4133 C   0  0  0  0  0  0  0  0  0  0  0  0
    8.3694    7.6612   22.6703 C   0  0  0  0  0  0  0  0  0  0  0  0
    8.4143    6.6863   16.2273 C   0  0  0  0  0  0  0  0  0  0  0  0
   10.7581    6.5674   21.7636 C   0  0  0  0  0  0  0  0  0  0  0  0
    8.4452    8.7960   19.2958 O   0  0  0  0  0  0  0  0  0  0  0  0
    8.7122    6.7842   24.8569 C   0  0  0  0  0  0  0  0  0  0  0  0
   10.3400    6.1726   14.3081 C   0  0  0  0  0  0  0  0  0  0  0  0
    7.4297    7.5873   24.8962 C   0  0  0  0  0  0  0  0  0  0  0  0
    8.1566   10.0536   16.0516 O   0  0  0  0  0  0  0  0  0  0  0  0
   12.4989    6.2074   20.1776 C   0  0  0  0  0  0  0  0  0  0  0  0
    6.9192    9.1053   20.9073 O   0  0  0  0  0  0  0  0  0  0  0  0
   14.3979    6.0729   18.7784 C   0  0  0  0  0  0  0  0  0  0  0  0
    8.6811    9.5354   16.9998 C   0  0  0  0  0  0  0  0  0  0  0  0
    9.2512    4.2713   13.7653 O   0  0  0  0  0  0  0  0  0  0  0  0
    9.6495    8.6317   16.8332 N   0  0  0  0  0  0  0  0  0  0  0  0
    6.2934    8.6988   23.1988 O   0  0  0  0  0  0  0  0  0  0  0  0
    7.9806    8.6543   20.5437 C   0  0  0  0  0  0  0  0  0  0  0  0
   13.7270    5.7144   19.8610 O   0  0  0  0  0  0  0  0  0  0  0  0
    8.3351    5.5235   15.4478 C   0  0  0  0  0  0  0  0  0  0  0  0
    8.7700    7.8434   21.3915 C   0  0  0  0  0  0  0  0  0  0  0  0
   11.7856    6.8851   19.2401 C   0  0  0  0  0  0  0  0  0  0  0  0
   10.5281    7.4276   19.5649 C   0  0  0  0  0  0  0  0  0  0  0  0
   10.0256    7.2907   20.8484 C   0  0  0  0  0  0  0  0  0  0  0  0
    9.3113    5.3049   14.4911 C   0  0  0  0  0  0  0  0  0  0  0  0
    9.4607    7.5646   16.0139 C   0  0  0  0  0  0  0  0  0  0  0  0
   10.4192    7.3157   15.0955 C   0  0  0  0  0  0  0  0  0  0  0  0
   10.2489    6.4227   23.0218 N   0  0  0  0  0  0  0  0  0  0  0  0
    7.2472    8.0746   23.5050 C   0  0  0  0  0  0  0  0  0  0  0  0
    9.2051    6.9101   23.4604 C   0  0  0  0  0  0  0  0  0  0  0  0
   11.9646    6.0299   21.4251 C   0  0  0  0  0  0  0  0  0  0  0  0
  1  5  1  0
  1 13  1  0
  2 20  2  0
  2 28  1  0
  2 29  1  0
  3 19  4  0
  3 25  4  0
  4 23  4  0
  4 27  1  0
  4 30  4  0
  5 17  1  0
  6  8  1  0
  6 29  1  0
  7 24  4  0
  7 26  4  0
  8 28  1  0
  9 13  2  0
 10 18  1  0
 10 21  4  0
 10 30  4  0
 11 17  2  0
 12 18  1  0
 13 15  1  0
 14 24  1  0
 15 25  1  0
 16 28  2  0
 17 20  1  0
 19 24  4  0
 20 23  1  0
 21 22  4  0
 22 23  4  0
 25 26  4  0
 27 29  2  0
M  END
$$$$

 Created by Python create_sdf_string function

 30 33  0  0  0  0  0  0  0  0999 V2000
    8.3036    9.8571   18.4133 C   0  0  0  0  0  0  0  0  0  0  0  0
    8.3694    7.6612   22.6703 C   0  0  0  0  0  0  0  0  0  0  0  0
    8.4143    6.6863   16.2273 C   0  0  0  0  0  0  0  0  0  0  0  0
   10.7581    6.5674   21.7636 C   0  0  0  0  0  0  0  0  0  0  0  0
    8.4452    8.7960   19.2958 O   0  0  0  0  0  0  0  0  0  0  0  0
    8.7122    6.7842   24.8569 C   0  0  0  0  0  0  0  0  0  0  0  0
   10.3400    6.1726   14.3081 C   0  0  0  0  0  0  0  0  0  0  0  0
    7.4297    7.5873   24.8962 C   0  0  0  0  0  0  0  0  0  0  0  0
    8.1566   10.0536   16.0516 O   0  0  0  0  0  0  0  0  0  0  0  0
   12.4989    6.2074   20.1776 C   0  0  0  0  0  0  0  0  0  0  0  0
    6.9192    9.1053   20.9073 O   0  0  0  0  0  0  0  0  0  0  0  0
   14.3979    6.0729   18.7784 C   0  0  0  0  0  0  0  0  0  0  0  0
    8.6811    9.5354   16.9998 C   0  0  0  0  0  0  0  0  0  0  0  0
    9.2512    4.2713   13.7653 O   0  0  0  0  0  0  0  0  0  0  0  0
    9.6495    8.6317   16.8332 N   0  0  0  0  0  0  0  0  0  0  0  0
    6.2934    8.6988   23.1988 O   0  0  0  0  0  0  0  0  0  0  0  0
    7.9806    8.6543   20.5437 C   0  0  0  0  0  0  0  0  0  0  0  0
   13.7270    5.7144   19.8610 O   0  0  0  0  0  0  0  0  0  0  0  0
    8.3351    5.5235   15.4478 C   0  0  0  0  0  0  0  0  0  0  0  0
    8.7700    7.8434   21.3915 C   0  0  0  0  0  0  0  0  0  0  0  0
   11.7856    6.8851   19.2401 C   0  0  0  0  0  0  0  0  0  0  0  0
   10.5281    7.4276   19.5649 C   0  0  0  0  0  0  0  0  0  0  0  0
   10.0256    7.2907   20.8484 C   0  0  0  0  0  0  0  0  0  0  0  0
    9.3113    5.3049   14.4911 C   0  0  0  0  0  0  0  0  0  0  0  0
    9.4607    7.5646   16.0139 C   0  0  0  0  0  0  0  0  0  0  0  0
   10.4192    7.3157   15.0955 C   0  0  0  0  0  0  0  0  0  0  0  0
   10.2489    6.4227   23.0218 N   0  0  0  0  0  0  0  0  0  0  0  0
    7.2472    8.0746   23.5050 C   0  0  0  0  0  0  0  0  0  0  0  0
    9.2051    6.9101   23.4604 C   0  0  0  0  0  0  0  0  0  0  0  0
   11.9646    6.0299   21.4251 C   0  0  0  0  0  0  0  0  0  0  0  0
  1  5  1  0
  1 13  1  0
  2 20  2  0
  2 28  1  0
  2 29  1  0
  3 19  4  0
  3 25  4  0
  4 23  4  0
  4 27  1  0
  4 30  4  0
  5 17  1  0
  6  8  1  0
  6 29  1  0
  7 24  4  0
  7 26  4  0
  8 28  1  0
  9 13  2  0
 10 18  1  0
 10 21  4  0
 10 30  4  0
 11 17  2  0
 12 18  1  0
 13 15  1  0
 14 24  1  0
 15 25  1  0
 16 28  2  0
 17 20  1  0
 19 24  4  0
 20 23  1  0
 21 22  4  0
 22 23  4  0
 25 26  4  0
 27 29  2  0
M  END
$$$$

 Created by Python create_sdf_string function

 30 33  0  0  0  0  0  0  0  0999 V2000
    8.3036    9.8571   18.4133 C   0  0  0  0  0  0  0  0  0  0  0  0
    8.3694    7.6612   22.6703 C   0  0  0  0  0  0  0  0  0  0  0  0
    8.4143    6.6863   16.2273 C   0  0  0  0  0  0  0  0  0  0  0  0
   10.7581    6.5674   21.7636 C   0  0  0  0  0  0  0  0  0  0  0  0
    8.4452    8.7960   19.2958 O   0  0  0  0  0  0  0  0  0  0  0  0
    8.7122    6.7842   24.8569 C   0  0  0  0  0  0  0  0  0  0  0  0
   10.3400    6.1726   14.3081 C   0  0  0  0  0  0  0  0  0  0  0  0
    7.4297    7.5873   24.8962 C   0  0  0  0  0  0  0  0  0  0  0  0
    8.1566   10.0536   16.0516 O   0  0  0  0  0  0  0  0  0  0  0  0
   12.4989    6.2074   20.1776 C   0  0  0  0  0  0  0  0  0  0  0  0
    6.9192    9.1053   20.9073 O   0  0  0  0  0  0  0  0  0  0  0  0
   14.3979    6.0729   18.7784 C   0  0  0  0  0  0  0  0  0  0  0  0
    8.6811    9.5354   16.9998 C   0  0  0  0  0  0  0  0  0  0  0  0
    9.2512    4.2713   13.7653 O   0  0  0  0  0  0  0  0  0  0  0  0
    9.6495    8.6317   16.8332 N   0  0  0  0  0  0  0  0  0  0  0  0
    6.2934    8.6988   23.1988 O   0  0  0  0  0  0  0  0  0  0  0  0
    7.9806    8.6543   20.5437 C   0  0  0  0  0  0  0  0  0  0  0  0
   13.7270    5.7144   19.8610 O   0  0  0  0  0  0  0  0  0  0  0  0
    8.3351    5.5235   15.4478 C   0  0  0  0  0  0  0  0  0  0  0  0
    8.7700    7.8434   21.3915 C   0  0  0  0  0  0  0  0  0  0  0  0
   11.7856    6.8851   19.2401 C   0  0  0  0  0  0  0  0  0  0  0  0
   10.5281    7.4276   19.5649 C   0  0  0  0  0  0  0  0  0  0  0  0
   10.0256    7.2907   20.8484 C   0  0  0  0  0  0  0  0  0  0  0  0
    9.3113    5.3049   14.4911 C   0  0  0  0  0  0  0  0  0  0  0  0
    9.4607    7.5646   16.0139 C   0  0  0  0  0  0  0  0  0  0  0  0
   10.4192    7.3157   15.0955 C   0  0  0  0  0  0  0  0  0  0  0  0
   10.2489    6.4227   23.0218 N   0  0  0  0  0  0  0  0  0  0  0  0
    7.2472    8.0746   23.5050 C   0  0  0  0  0  0  0  0  0  0  0  0
    9.2051    6.9101   23.4604 C   0  0  0  0  0  0  0  0  0  0  0  0
   11.9646    6.0299   21.4251 C   0  0  0  0  0  0  0  0  0  0  0  0
  1  5  1  0
  1 13  1  0
  2 20  2  0
  2 28  1  0
  2 29  1  0
  3 19  4  0
  3 25  4  0
  4 23  4  0
  4 27  1  0
  4 30  4  0
  5 17  1  0
  6  8  1  0
  6 29  1  0
  7 24  4  0
  7 26  4  0
  8 28  1  0
  9 13  2  0
 10 18  1  0
 10 21  4  0
 10 30  4  0
 11 17  2  0
 12 18  1  0
 13 15  1  0
 14 24  1  0
 15 25  1  0
 16 28  2  0
 17 20  1  0
 19 24  4  0
 20 23  1  0
 21 22  4  0
 22 23  4  0
 25 26  4  0
 27 29  2  0
M  END
$$$$

 Created by Python create_sdf_string function

 30 33  0  0  0  0  0  0  0  0999 V2000
    8.3036    9.8571   18.4133 C   0  0  0  0  0  0  0  0  0  0  0  0
    8.3694    7.6612   22.6703 C   0  0  0  0  0  0  0  0  0  0  0  0
    8.4143    6.6863   16.2273 C   0  0  0  0  0  0  0  0  0  0  0  0
   10.7581    6.5674   21.7636 C   0  0  0  0  0  0  0  0  0  0  0  0
    8.4452    8.7960   19.2958 O   0  0  0  0  0  0  0  0  0  0  0  0
    8.7122    6.7842   24.8569 C   0  0  0  0  0  0  0  0  0  0  0  0
   10.3400    6.1726   14.3081 C   0  0  0  0  0  0  0  0  0  0  0  0
    7.4297    7.5873   24.8962 C   0  0  0  0  0  0  0  0  0  0  0  0
    8.1566   10.0536   16.0516 O   0  0  0  0  0  0  0  0  0  0  0  0
   12.4989    6.2074   20.1776 C   0  0  0  0  0  0  0  0  0  0  0  0
    6.9192    9.1053   20.9073 O   0  0  0  0  0  0  0  0  0  0  0  0
   14.3979    6.0729   18.7784 C   0  0  0  0  0  0  0  0  0  0  0  0
    8.6811    9.5354   16.9998 C   0  0  0  0  0  0  0  0  0  0  0  0
    9.2512    4.2713   13.7653 O   0  0  0  0  0  0  0  0  0  0  0  0
    9.6495    8.6317   16.8332 N   0  0  0  0  0  0  0  0  0  0  0  0
    6.2934    8.6988   23.1988 O   0  0  0  0  0  0  0  0  0  0  0  0
    7.9806    8.6543   20.5437 C   0  0  0  0  0  0  0  0  0  0  0  0
   13.7270    5.7144   19.8610 O   0  0  0  0  0  0  0  0  0  0  0  0
    8.3351    5.5235   15.4478 C   0  0  0  0  0  0  0  0  0  0  0  0
    8.7700    7.8434   21.3915 C   0  0  0  0  0  0  0  0  0  0  0  0
   11.7856    6.8851   19.2401 C   0  0  0  0  0  0  0  0  0  0  0  0
   10.5281    7.4276   19.5649 C   0  0  0  0  0  0  0  0  0  0  0  0
   10.0256    7.2907   20.8484 C   0  0  0  0  0  0  0  0  0  0  0  0
    9.3113    5.3049   14.4911 C   0  0  0  0  0  0  0  0  0  0  0  0
    9.4607    7.5646   16.0139 C   0  0  0  0  0  0  0  0  0  0  0  0
   10.4192    7.3157   15.0955 C   0  0  0  0  0  0  0  0  0  0  0  0
   10.2489    6.4227   23.0218 N   0  0  0  0  0  0  0  0  0  0  0  0
    7.2472    8.0746   23.5050 C   0  0  0  0  0  0  0  0  0  0  0  0
    9.2051    6.9101   23.4604 C   0  0  0  0  0  0  0  0  0  0  0  0
   11.9646    6.0299   21.4251 C   0  0  0  0  0  0  0  0  0  0  0  0
  1  5  1  0
  1 13  1  0
  2 20  2  0
  2 28  1  0
  2 29  1  0
  3 19  4  0
  3 25  4  0
  4 23  4  0
  4 27  1  0
  4 30  4  0
  5 17  1  0
  6  8  1  0
  6 29  1  0
  7 24  4  0
  7 26  4  0
  8 28  1  0
  9 13  2  0
 10 18  1  0
 10 21  4  0
 10 30  4  0
 11 17  2  0
 12 18  1  0
 13 15  1  0
 14 24  1  0
 15 25  1  0
 16 28  2  0
 17 20  1  0
 19 24  4  0
 20 23  1  0
 21 22  4  0
 22 23  4  0
 25 26  4  0
 27 29  2  0
M  END
$$$$

 Created by Python create_sdf_string function

 30 33  0  0  0  0  0  0  0  0999 V2000
    8.3036    9.8571   18.4133 C   0  0  0  0  0  0  0  0  0  0  0  0
    8.3694    7.6612   22.6703 C   0  0  0  0  0  0  0  0  0  0  0  0
    8.4143    6.6863   16.2273 C   0  0  0  0  0  0  0  0  0  0  0  0
   10.7581    6.5674   21.7636 C   0  0  0  0  0  0  0  0  0  0  0  0
    8.4452    8.7960   19.2958 O   0  0  0  0  0  0  0  0  0  0  0  0
    8.7122    6.7842   24.8569 C   0  0  0  0  0  0  0  0  0  0  0  0
   10.3400    6.1726   14.3081 C   0  0  0  0  0  0  0  0  0  0  0  0
    7.4297    7.5873   24.8962 C   0  0  0  0  0  0  0  0  0  0  0  0
    8.1566   10.0536   16.0516 O   0  0  0  0  0  0  0  0  0  0  0  0
   12.4989    6.2074   20.1776 C   0  0  0  0  0  0  0  0  0  0  0  0
    6.9192    9.1053   20.9073 O   0  0  0  0  0  0  0  0  0  0  0  0
   14.3979    6.0729   18.7784 C   0  0  0  0  0  0  0  0  0  0  0  0
    8.6811    9.5354   16.9998 C   0  0  0  0  0  0  0  0  0  0  0  0
    9.2512    4.2713   13.7653 O   0  0  0  0  0  0  0  0  0  0  0  0
    9.6495    8.6317   16.8332 N   0  0  0  0  0  0  0  0  0  0  0  0
    6.2934    8.6988   23.1988 O   0  0  0  0  0  0  0  0  0  0  0  0
    7.9806    8.6543   20.5437 C   0  0  0  0  0  0  0  0  0  0  0  0
   13.7270    5.7144   19.8610 O   0  0  0  0  0  0  0  0  0  0  0  0
    8.3351    5.5235   15.4478 C   0  0  0  0  0  0  0  0  0  0  0  0
    8.7700    7.8434   21.3915 C   0  0  0  0  0  0  0  0  0  0  0  0
   11.7856    6.8851   19.2401 C   0  0  0  0  0  0  0  0  0  0  0  0
   10.5281    7.4276   19.5649 C   0  0  0  0  0  0  0  0  0  0  0  0
   10.0256    7.2907   20.8484 C   0  0  0  0  0  0  0  0  0  0  0  0
    9.3113    5.3049   14.4911 C   0  0  0  0  0  0  0  0  0  0  0  0
    9.4607    7.5646   16.0139 C   0  0  0  0  0  0  0  0  0  0  0  0
   10.4192    7.3157   15.0955 C   0  0  0  0  0  0  0  0  0  0  0  0
   10.2489    6.4227   23.0218 N   0  0  0  0  0  0  0  0  0  0  0  0
    7.2472    8.0746   23.5050 C   0  0  0  0  0  0  0  0  0  0  0  0
    9.2051    6.9101   23.4604 C   0  0  0  0  0  0  0  0  0  0  0  0
   11.9646    6.0299   21.4251 C   0  0  0  0  0  0  0  0  0  0  0  0
  1  5  1  0
  1 13  1  0
  2 20  2  0
  2 28  1  0
  2 29  1  0
  3 19  4  0
  3 25  4  0
  4 23  4  0
  4 27  1  0
  4 30  4  0
  5 17  1  0
  6  8  1  0
  6 29  1  0
  7 24  4  0
  7 26  4  0
  8 28  1  0
  9 13  2  0
 10 18  1  0
 10 21  4  0
 10 30  4  0
 11 17  2  0
 12 18  1  0
 13 15  1  0
 14 24  1  0
 15 25  1  0
 16 28  2  0
 17 20  1  0
 19 24  4  0
 20 23  1  0
 21 22  4  0
 22 23  4  0
 25 26  4  0
 27 29  2  0
M  END
$$$$

 Created by Python create_sdf_string function

 30 33  0  0  0  0  0  0  0  0999 V2000
    8.3036    9.8571   18.4133 C   0  0  0  0  0  0  0  0  0  0  0  0
    8.3694    7.6612   22.6703 C   0  0  0  0  0  0  0  0  0  0  0  0
    8.4143    6.6863   16.2273 C   0  0  0  0  0  0  0  0  0  0  0  0
   10.7581    6.5674   21.7636 C   0  0  0  0  0  0  0  0  0  0  0  0
    8.4452    8.7960   19.2958 O   0  0  0  0  0  0  0  0  0  0  0  0
    8.7122    6.7842   24.8569 C   0  0  0  0  0  0  0  0  0  0  0  0
   10.3400    6.1726   14.3081 C   0  0  0  0  0  0  0  0  0  0  0  0
    7.4297    7.5873   24.8962 C   0  0  0  0  0  0  0  0  0  0  0  0
    8.1566   10.0536   16.0516 O   0  0  0  0  0  0  0  0  0  0  0  0
   12.4989    6.2074   20.1776 C   0  0  0  0  0  0  0  0  0  0  0  0
    6.9192    9.1053   20.9073 O   0  0  0  0  0  0  0  0  0  0  0  0
   14.3979    6.0729   18.7784 C   0  0  0  0  0  0  0  0  0  0  0  0
    8.6811    9.5354   16.9998 C   0  0  0  0  0  0  0  0  0  0  0  0
    9.2512    4.2713   13.7653 O   0  0  0  0  0  0  0  0  0  0  0  0
    9.6495    8.6317   16.8332 N   0  0  0  0  0  0  0  0  0  0  0  0
    6.2934    8.6988   23.1988 O   0  0  0  0  0  0  0  0  0  0  0  0
    7.9806    8.6543   20.5437 C   0  0  0  0  0  0  0  0  0  0  0  0
   13.7270    5.7144   19.8610 O   0  0  0  0  0  0  0  0  0  0  0  0
    8.3351    5.5235   15.4478 C   0  0  0  0  0  0  0  0  0  0  0  0
    8.7700    7.8434   21.3915 C   0  0  0  0  0  0  0  0  0  0  0  0
   11.7856    6.8851   19.2401 C   0  0  0  0  0  0  0  0  0  0  0  0
   10.5281    7.4276   19.5649 C   0  0  0  0  0  0  0  0  0  0  0  0
   10.0256    7.2907   20.8484 C   0  0  0  0  0  0  0  0  0  0  0  0
    9.3113    5.3049   14.4911 C   0  0  0  0  0  0  0  0  0  0  0  0
    9.4607    7.5646   16.0139 C   0  0  0  0  0  0  0  0  0  0  0  0
   10.4192    7.3157   15.0955 C   0  0  0  0  0  0  0  0  0  0  0  0
   10.2489    6.4227   23.0218 N   0  0  0  0  0  0  0  0  0  0  0  0
    7.2472    8.0746   23.5050 C   0  0  0  0  0  0  0  0  0  0  0  0
    9.2051    6.9101   23.4604 C   0  0  0  0  0  0  0  0  0  0  0  0
   11.9646    6.0299   21.4251 C   0  0  0  0  0  0  0  0  0  0  0  0
  1  5  1  0
  1 13  1  0
  2 20  2  0
  2 28  1  0
  2 29  1  0
  3 19  4  0
  3 25  4  0
  4 23  4  0
  4 27  1  0
  4 30  4  0
  5 17  1  0
  6  8  1  0
  6 29  1  0
  7 24  4  0
  7 26  4  0
  8 28  1  0
  9 13  2  0
 10 18  1  0
 10 21  4  0
 10 30  4  0
 11 17  2  0
 12 18  1  0
 13 15  1  0
 14 24  1  0
 15 25  1  0
 16 28  2  0
 17 20  1  0
 19 24  4  0
 20 23  1  0
 21 22  4  0
 22 23  4  0
 25 26  4  0
 27 29  2  0
M  END
$$$$

 Created by Python create_sdf_string function

 30 33  0  0  0  0  0  0  0  0999 V2000
    8.3036    9.8571   18.4133 C   0  0  0  0  0  0  0  0  0  0  0  0
    8.3694    7.6612   22.6703 C   0  0  0  0  0  0  0  0  0  0  0  0
    8.4143    6.6863   16.2273 C   0  0  0  0  0  0  0  0  0  0  0  0
   10.7581    6.5674   21.7636 C   0  0  0  0  0  0  0  0  0  0  0  0
    8.4452    8.7960   19.2958 O   0  0  0  0  0  0  0  0  0  0  0  0
    8.7122    6.7842   24.8569 C   0  0  0  0  0  0  0  0  0  0  0  0
   10.3400    6.1726   14.3081 C   0  0  0  0  0  0  0  0  0  0  0  0
    7.4297    7.5873   24.8962 C   0  0  0  0  0  0  0  0  0  0  0  0
    8.1566   10.0536   16.0516 O   0  0  0  0  0  0  0  0  0  0  0  0
   12.4989    6.2074   20.1776 C   0  0  0  0  0  0  0  0  0  0  0  0
    6.9192    9.1053   20.9073 O   0  0  0  0  0  0  0  0  0  0  0  0
   14.3979    6.0729   18.7784 C   0  0  0  0  0  0  0  0  0  0  0  0
    8.6811    9.5354   16.9998 C   0  0  0  0  0  0  0  0  0  0  0  0
    9.2512    4.2713   13.7653 O   0  0  0  0  0  0  0  0  0  0  0  0
    9.6495    8.6317   16.8332 N   0  0  0  0  0  0  0  0  0  0  0  0
    6.2934    8.6988   23.1988 O   0  0  0  0  0  0  0  0  0  0  0  0
    7.9806    8.6543   20.5437 C   0  0  0  0  0  0  0  0  0  0  0  0
   13.7270    5.7144   19.8610 O   0  0  0  0  0  0  0  0  0  0  0  0
    8.3351    5.5235   15.4478 C   0  0  0  0  0  0  0  0  0  0  0  0
    8.7700    7.8434   21.3915 C   0  0  0  0  0  0  0  0  0  0  0  0
   11.7856    6.8851   19.2401 C   0  0  0  0  0  0  0  0  0  0  0  0
   10.5281    7.4276   19.5649 C   0  0  0  0  0  0  0  0  0  0  0  0
   10.0256    7.2907   20.8484 C   0  0  0  0  0  0  0  0  0  0  0  0
    9.3113    5.3049   14.4911 C   0  0  0  0  0  0  0  0  0  0  0  0
    9.4607    7.5646   16.0139 C   0  0  0  0  0  0  0  0  0  0  0  0
   10.4192    7.3157   15.0955 C   0  0  0  0  0  0  0  0  0  0  0  0
   10.2489    6.4227   23.0218 N   0  0  0  0  0  0  0  0  0  0  0  0
    7.2472    8.0746   23.5050 C   0  0  0  0  0  0  0  0  0  0  0  0
    9.2051    6.9101   23.4604 C   0  0  0  0  0  0  0  0  0  0  0  0
   11.9646    6.0299   21.4251 C   0  0  0  0  0  0  0  0  0  0  0  0
  1  5  1  0
  1 13  1  0
  2 20  2  0
  2 28  1  0
  2 29  1  0
  3 19  4  0
  3 25  4  0
  4 23  4  0
  4 27  1  0
  4 30  4  0
  5 17  1  0
  6  8  1  0
  6 29  1  0
  7 24  4  0
  7 26  4  0
  8 28  1  0
  9 13  2  0
 10 18  1  0
 10 21  4  0
 10 30  4  0
 11 17  2  0
 12 18  1  0
 13 15  1  0
 14 24  1  0
 15 25  1  0
 16 28  2  0
 17 20  1  0
 19 24  4  0
 20 23  1  0
 21 22  4  0
 22 23  4  0
 25 26  4  0
 27 29  2  0
M  END
$$$$

 Created by Python create_sdf_string function

 30 33  0  0  0  0  0  0  0  0999 V2000
    8.3036    9.8571   18.4133 C   0  0  0  0  0  0  0  0  0  0  0  0
    8.3694    7.6612   22.6703 C   0  0  0  0  0  0  0  0  0  0  0  0
    8.4143    6.6863   16.2273 C   0  0  0  0  0  0  0  0  0  0  0  0
   10.7581    6.5674   21.7636 C   0  0  0  0  0  0  0  0  0  0  0  0
    8.4452    8.7960   19.2958 O   0  0  0  0  0  0  0  0  0  0  0  0
    8.7122    6.7842   24.8569 C   0  0  0  0  0  0  0  0  0  0  0  0
   10.3400    6.1726   14.3081 C   0  0  0  0  0  0  0  0  0  0  0  0
    7.4297    7.5873   24.8962 C   0  0  0  0  0  0  0  0  0  0  0  0
    8.1566   10.0536   16.0516 O   0  0  0  0  0  0  0  0  0  0  0  0
   12.4989    6.2074   20.1776 C   0  0  0  0  0  0  0  0  0  0  0  0
    6.9192    9.1053   20.9073 O   0  0  0  0  0  0  0  0  0  0  0  0
   14.3979    6.0729   18.7784 C   0  0  0  0  0  0  0  0  0  0  0  0
    8.6811    9.5354   16.9998 C   0  0  0  0  0  0  0  0  0  0  0  0
    9.2512    4.2713   13.7653 O   0  0  0  0  0  0  0  0  0  0  0  0
    9.6495    8.6317   16.8332 N   0  0  0  0  0  0  0  0  0  0  0  0
    6.2934    8.6988   23.1988 O   0  0  0  0  0  0  0  0  0  0  0  0
    7.9806    8.6543   20.5437 C   0  0  0  0  0  0  0  0  0  0  0  0
   13.7270    5.7144   19.8610 O   0  0  0  0  0  0  0  0  0  0  0  0
    8.3351    5.5235   15.4478 C   0  0  0  0  0  0  0  0  0  0  0  0
    8.7700    7.8434   21.3915 C   0  0  0  0  0  0  0  0  0  0  0  0
   11.7856    6.8851   19.2401 C   0  0  0  0  0  0  0  0  0  0  0  0
   10.5281    7.4276   19.5649 C   0  0  0  0  0  0  0  0  0  0  0  0
   10.0256    7.2907   20.8484 C   0  0  0  0  0  0  0  0  0  0  0  0
    9.3113    5.3049   14.4911 C   0  0  0  0  0  0  0  0  0  0  0  0
    9.4607    7.5646   16.0139 C   0  0  0  0  0  0  0  0  0  0  0  0
   10.4192    7.3157   15.0955 C   0  0  0  0  0  0  0  0  0  0  0  0
   10.2489    6.4227   23.0218 N   0  0  0  0  0  0  0  0  0  0  0  0
    7.2472    8.0746   23.5050 C   0  0  0  0  0  0  0  0  0  0  0  0
    9.2051    6.9101   23.4604 C   0  0  0  0  0  0  0  0  0  0  0  0
   11.9646    6.0299   21.4251 C   0  0  0  0  0  0  0  0  0  0  0  0
  1  5  1  0
  1 13  1  0
  2 20  2  0
  2 28  1  0
  2 29  1  0
  3 19  4  0
  3 25  4  0
  4 23  4  0
  4 27  1  0
  4 30  4  0
  5 17  1  0
  6  8  1  0
  6 29  1  0
  7 24  4  0
  7 26  4  0
  8 28  1  0
  9 13  2  0
 10 18  1  0
 10 21  4  0
 10 30  4  0
 11 17  2  0
 12 18  1  0
 13 15  1  0
 14 24  1  0
 15 25  1  0
 16 28  2  0
 17 20  1  0
 19 24  4  0
 20 23  1  0
 21 22  4  0
 22 23  4  0
 25 26  4  0
 27 29  2  0
M  END
$$$$

 Created by Python create_sdf_string function

 30 33  0  0  0  0  0  0  0  0999 V2000
    8.3036    9.8571   18.4133 C   0  0  0  0  0  0  0  0  0  0  0  0
    8.3694    7.6612   22.6703 C   0  0  0  0  0  0  0  0  0  0  0  0
    8.4143    6.6863   16.2273 C   0  0  0  0  0  0  0  0  0  0  0  0
   10.7581    6.5674   21.7636 C   0  0  0  0  0  0  0  0  0  0  0  0
    8.4452    8.7960   19.2958 O   0  0  0  0  0  0  0  0  0  0  0  0
    8.7122    6.7842   24.8569 C   0  0  0  0  0  0  0  0  0  0  0  0
   10.3400    6.1726   14.3081 C   0  0  0  0  0  0  0  0  0  0  0  0
    7.4297    7.5873   24.8962 C   0  0  0  0  0  0  0  0  0  0  0  0
    8.1566   10.0536   16.0516 O   0  0  0  0  0  0  0  0  0  0  0  0
   12.4989    6.2074   20.1776 C   0  0  0  0  0  0  0  0  0  0  0  0
    6.9192    9.1053   20.9073 O   0  0  0  0  0  0  0  0  0  0  0  0
   14.3979    6.0729   18.7784 C   0  0  0  0  0  0  0  0  0  0  0  0
    8.6811    9.5354   16.9998 C   0  0  0  0  0  0  0  0  0  0  0  0
    9.2512    4.2713   13.7653 O   0  0  0  0  0  0  0  0  0  0  0  0
    9.6495    8.6317   16.8332 N   0  0  0  0  0  0  0  0  0  0  0  0
    6.2934    8.6988   23.1988 O   0  0  0  0  0  0  0  0  0  0  0  0
    7.9806    8.6543   20.5437 C   0  0  0  0  0  0  0  0  0  0  0  0
   13.7270    5.7144   19.8610 O   0  0  0  0  0  0  0  0  0  0  0  0
    8.3351    5.5235   15.4478 C   0  0  0  0  0  0  0  0  0  0  0  0
    8.7700    7.8434   21.3915 C   0  0  0  0  0  0  0  0  0  0  0  0
   11.7856    6.8851   19.2401 C   0  0  0  0  0  0  0  0  0  0  0  0
   10.5281    7.4276   19.5649 C   0  0  0  0  0  0  0  0  0  0  0  0
   10.0256    7.2907   20.8484 C   0  0  0  0  0  0  0  0  0  0  0  0
    9.3113    5.3049   14.4911 C   0  0  0  0  0  0  0  0  0  0  0  0
    9.4607    7.5646   16.0139 C   0  0  0  0  0  0  0  0  0  0  0  0
   10.4192    7.3157   15.0955 C   0  0  0  0  0  0  0  0  0  0  0  0
   10.2489    6.4227   23.0218 N   0  0  0  0  0  0  0  0  0  0  0  0
    7.2472    8.0746   23.5050 C   0  0  0  0  0  0  0  0  0  0  0  0
    9.2051    6.9101   23.4604 C   0  0  0  0  0  0  0  0  0  0  0  0
   11.9646    6.0299   21.4251 C   0  0  0  0  0  0  0  0  0  0  0  0
  1  5  1  0
  1 13  1  0
  2 20  2  0
  2 28  1  0
  2 29  1  0
  3 19  4  0
  3 25  4  0
  4 23  4  0
  4 27  1  0
  4 30  4  0
  5 17  1  0
  6  8  1  0
  6 29  1  0
  7 24  4  0
  7 26  4  0
  8 28  1  0
  9 13  2  0
 10 18  1  0
 10 21  4  0
 10 30  4  0
 11 17  2  0
 12 18  1  0
 13 15  1  0
 14 24  1  0
 15 25  1  0
 16 28  2  0
 17 20  1  0
 19 24  4  0
 20 23  1  0
 21 22  4  0
 22 23  4  0
 25 26  4  0
 27 29  2  0
M  END
$$$$

 Created by Python create_sdf_string function

 30 33  0  0  0  0  0  0  0  0999 V2000
    8.3036    9.8571   18.4133 C   0  0  0  0  0  0  0  0  0  0  0  0
    8.3694    7.6612   22.6703 C   0  0  0  0  0  0  0  0  0  0  0  0
    8.4143    6.6863   16.2273 C   0  0  0  0  0  0  0  0  0  0  0  0
   10.7581    6.5674   21.7636 C   0  0  0  0  0  0  0  0  0  0  0  0
    8.4452    8.7960   19.2958 O   0  0  0  0  0  0  0  0  0  0  0  0
    8.7122    6.7842   24.8569 C   0  0  0  0  0  0  0  0  0  0  0  0
   10.3400    6.1726   14.3081 C   0  0  0  0  0  0  0  0  0  0  0  0
    7.4297    7.5873   24.8962 C   0  0  0  0  0  0  0  0  0  0  0  0
    8.1566   10.0536   16.0516 O   0  0  0  0  0  0  0  0  0  0  0  0
   12.4989    6.2074   20.1776 C   0  0  0  0  0  0  0  0  0  0  0  0
    6.9192    9.1053   20.9073 O   0  0  0  0  0  0  0  0  0  0  0  0
   14.3979    6.0729   18.7784 C   0  0  0  0  0  0  0  0  0  0  0  0
    8.6811    9.5354   16.9998 C   0  0  0  0  0  0  0  0  0  0  0  0
    9.2512    4.2713   13.7653 O   0  0  0  0  0  0  0  0  0  0  0  0
    9.6495    8.6317   16.8332 N   0  0  0  0  0  0  0  0  0  0  0  0
    6.2934    8.6988   23.1988 O   0  0  0  0  0  0  0  0  0  0  0  0
    7.9806    8.6543   20.5437 C   0  0  0  0  0  0  0  0  0  0  0  0
   13.7270    5.7144   19.8610 O   0  0  0  0  0  0  0  0  0  0  0  0
    8.3351    5.5235   15.4478 C   0  0  0  0  0  0  0  0  0  0  0  0
    8.7700    7.8434   21.3915 C   0  0  0  0  0  0  0  0  0  0  0  0
   11.7856    6.8851   19.2401 C   0  0  0  0  0  0  0  0  0  0  0  0
   10.5281    7.4276   19.5649 C   0  0  0  0  0  0  0  0  0  0  0  0
   10.0256    7.2907   20.8484 C   0  0  0  0  0  0  0  0  0  0  0  0
    9.3113    5.3049   14.4911 C   0  0  0  0  0  0  0  0  0  0  0  0
    9.4607    7.5646   16.0139 C   0  0  0  0  0  0  0  0  0  0  0  0
   10.4192    7.3157   15.0955 C   0  0  0  0  0  0  0  0  0  0  0  0
   10.2489    6.4227   23.0218 N   0  0  0  0  0  0  0  0  0  0  0  0
    7.2472    8.0746   23.5050 C   0  0  0  0  0  0  0  0  0  0  0  0
    9.2051    6.9101   23.4604 C   0  0  0  0  0  0  0  0  0  0  0  0
   11.9646    6.0299   21.4251 C   0  0  0  0  0  0  0  0  0  0  0  0
  1  5  1  0
  1 13  1  0
  2 20  2  0
  2 28  1  0
  2 29  1  0
  3 19  4  0
  3 25  4  0
  4 23  4  0
  4 27  1  0
  4 30  4  0
  5 17  1  0
  6  8  1  0
  6 29  1  0
  7 24  4  0
  7 26  4  0
  8 28  1  0
  9 13  2  0
 10 18  1  0
 10 21  4  0
 10 30  4  0
 11 17  2  0
 12 18  1  0
 13 15  1  0
 14 24  1  0
 15 25  1  0
 16 28  2  0
 17 20  1  0
 19 24  4  0
 20 23  1  0
 21 22  4  0
 22 23  4  0
 25 26  4  0
 27 29  2  0
M  END
$$$$

 Created by Python create_sdf_string function

 30 33  0  0  0  0  0  0  0  0999 V2000
    8.3036    9.8571   18.4133 C   0  0  0  0  0  0  0  0  0  0  0  0
    8.3694    7.6612   22.6703 C   0  0  0  0  0  0  0  0  0  0  0  0
    8.4143    6.6863   16.2273 C   0  0  0  0  0  0  0  0  0  0  0  0
   10.7581    6.5674   21.7636 C   0  0  0  0  0  0  0  0  0  0  0  0
    8.4452    8.7960   19.2958 O   0  0  0  0  0  0  0  0  0  0  0  0
    8.7122    6.7842   24.8569 C   0  0  0  0  0  0  0  0  0  0  0  0
   10.3400    6.1726   14.3081 C   0  0  0  0  0  0  0  0  0  0  0  0
    7.4297    7.5873   24.8962 C   0  0  0  0  0  0  0  0  0  0  0  0
    8.1566   10.0536   16.0516 O   0  0  0  0  0  0  0  0  0  0  0  0
   12.4989    6.2074   20.1776 C   0  0  0  0  0  0  0  0  0  0  0  0
    6.9192    9.1053   20.9073 O   0  0  0  0  0  0  0  0  0  0  0  0
   14.3979    6.0729   18.7784 C   0  0  0  0  0  0  0  0  0  0  0  0
    8.6811    9.5354   16.9998 C   0  0  0  0  0  0  0  0  0  0  0  0
    9.2512    4.2713   13.7653 O   0  0  0  0  0  0  0  0  0  0  0  0
    9.6495    8.6317   16.8332 N   0  0  0  0  0  0  0  0  0  0  0  0
    6.2934    8.6988   23.1988 O   0  0  0  0  0  0  0  0  0  0  0  0
    7.9806    8.6543   20.5437 C   0  0  0  0  0  0  0  0  0  0  0  0
   13.7270    5.7144   19.8610 O   0  0  0  0  0  0  0  0  0  0  0  0
    8.3351    5.5235   15.4478 C   0  0  0  0  0  0  0  0  0  0  0  0
    8.7700    7.8434   21.3915 C   0  0  0  0  0  0  0  0  0  0  0  0
   11.7856    6.8851   19.2401 C   0  0  0  0  0  0  0  0  0  0  0  0
   10.5281    7.4276   19.5649 C   0  0  0  0  0  0  0  0  0  0  0  0
   10.0256    7.2907   20.8484 C   0  0  0  0  0  0  0  0  0  0  0  0
    9.3113    5.3049   14.4911 C   0  0  0  0  0  0  0  0  0  0  0  0
    9.4607    7.5646   16.0139 C   0  0  0  0  0  0  0  0  0  0  0  0
   10.4192    7.3157   15.0955 C   0  0  0  0  0  0  0  0  0  0  0  0
   10.2489    6.4227   23.0218 N   0  0  0  0  0  0  0  0  0  0  0  0
    7.2472    8.0746   23.5050 C   0  0  0  0  0  0  0  0  0  0  0  0
    9.2051    6.9101   23.4604 C   0  0  0  0  0  0  0  0  0  0  0  0
   11.9646    6.0299   21.4251 C   0  0  0  0  0  0  0  0  0  0  0  0
  1  5  1  0
  1 13  1  0
  2 20  2  0
  2 28  1  0
  2 29  1  0
  3 19  4  0
  3 25  4  0
  4 23  4  0
  4 27  1  0
  4 30  4  0
  5 17  1  0
  6  8  1  0
  6 29  1  0
  7 24  4  0
  7 26  4  0
  8 28  1  0
  9 13  2  0
 10 18  1  0
 10 21  4  0
 10 30  4  0
 11 17  2  0
 12 18  1  0
 13 15  1  0
 14 24  1  0
 15 25  1  0
 16 28  2  0
 17 20  1  0
 19 24  4  0
 20 23  1  0
 21 22  4  0
 22 23  4  0
 25 26  4  0
 27 29  2  0
M  END
$$$$

 Created by Python create_sdf_string function

 30 33  0  0  0  0  0  0  0  0999 V2000
    8.3036    9.8571   18.4133 C   0  0  0  0  0  0  0  0  0  0  0  0
    8.3694    7.6612   22.6703 C   0  0  0  0  0  0  0  0  0  0  0  0
    8.4143    6.6863   16.2273 C   0  0  0  0  0  0  0  0  0  0  0  0
   10.7581    6.5674   21.7636 C   0  0  0  0  0  0  0  0  0  0  0  0
    8.4452    8.7960   19.2958 O   0  0  0  0  0  0  0  0  0  0  0  0
    8.7122    6.7842   24.8569 C   0  0  0  0  0  0  0  0  0  0  0  0
   10.3400    6.1726   14.3081 C   0  0  0  0  0  0  0  0  0  0  0  0
    7.4297    7.5873   24.8962 C   0  0  0  0  0  0  0  0  0  0  0  0
    8.1566   10.0536   16.0516 O   0  0  0  0  0  0  0  0  0  0  0  0
   12.4989    6.2074   20.1776 C   0  0  0  0  0  0  0  0  0  0  0  0
    6.9192    9.1053   20.9073 O   0  0  0  0  0  0  0  0  0  0  0  0
   14.3979    6.0729   18.7784 C   0  0  0  0  0  0  0  0  0  0  0  0
    8.6811    9.5354   16.9998 C   0  0  0  0  0  0  0  0  0  0  0  0
    9.2512    4.2713   13.7653 O   0  0  0  0  0  0  0  0  0  0  0  0
    9.6495    8.6317   16.8332 N   0  0  0  0  0  0  0  0  0  0  0  0
    6.2934    8.6988   23.1988 O   0  0  0  0  0  0  0  0  0  0  0  0
    7.9806    8.6543   20.5437 C   0  0  0  0  0  0  0  0  0  0  0  0
   13.7270    5.7144   19.8610 O   0  0  0  0  0  0  0  0  0  0  0  0
    8.3351    5.5235   15.4478 C   0  0  0  0  0  0  0  0  0  0  0  0
    8.7700    7.8434   21.3915 C   0  0  0  0  0  0  0  0  0  0  0  0
   11.7856    6.8851   19.2401 C   0  0  0  0  0  0  0  0  0  0  0  0
   10.5281    7.4276   19.5649 C   0  0  0  0  0  0  0  0  0  0  0  0
   10.0256    7.2907   20.8484 C   0  0  0  0  0  0  0  0  0  0  0  0
    9.3113    5.3049   14.4911 C   0  0  0  0  0  0  0  0  0  0  0  0
    9.4607    7.5646   16.0139 C   0  0  0  0  0  0  0  0  0  0  0  0
   10.4192    7.3157   15.0955 C   0  0  0  0  0  0  0  0  0  0  0  0
   10.2489    6.4227   23.0218 N   0  0  0  0  0  0  0  0  0  0  0  0
    7.2472    8.0746   23.5050 C   0  0  0  0  0  0  0  0  0  0  0  0
    9.2051    6.9101   23.4604 C   0  0  0  0  0  0  0  0  0  0  0  0
   11.9646    6.0299   21.4251 C   0  0  0  0  0  0  0  0  0  0  0  0
  1  5  1  0
  1 13  1  0
  2 20  2  0
  2 28  1  0
  2 29  1  0
  3 19  4  0
  3 25  4  0
  4 23  4  0
  4 27  1  0
  4 30  4  0
  5 17  1  0
  6  8  1  0
  6 29  1  0
  7 24  4  0
  7 26  4  0
  8 28  1  0
  9 13  2  0
 10 18  1  0
 10 21  4  0
 10 30  4  0
 11 17  2  0
 12 18  1  0
 13 15  1  0
 14 24  1  0
 15 25  1  0
 16 28  2  0
 17 20  1  0
 19 24  4  0
 20 23  1  0
 21 22  4  0
 22 23  4  0
 25 26  4  0
 27 29  2  0
M  END
$$$$

 Created by Python create_sdf_string function

 30 33  0  0  0  0  0  0  0  0999 V2000
    8.3036    9.8571   18.4133 C   0  0  0  0  0  0  0  0  0  0  0  0
    8.3694    7.6612   22.6703 C   0  0  0  0  0  0  0  0  0  0  0  0
    8.4143    6.6863   16.2273 C   0  0  0  0  0  0  0  0  0  0  0  0
   10.7581    6.5674   21.7636 C   0  0  0  0  0  0  0  0  0  0  0  0
    8.4452    8.7960   19.2958 O   0  0  0  0  0  0  0  0  0  0  0  0
    8.7122    6.7842   24.8569 C   0  0  0  0  0  0  0  0  0  0  0  0
   10.3400    6.1726   14.3081 C   0  0  0  0  0  0  0  0  0  0  0  0
    7.4297    7.5873   24.8962 C   0  0  0  0  0  0  0  0  0  0  0  0
    8.1566   10.0536   16.0516 O   0  0  0  0  0  0  0  0  0  0  0  0
   12.4989    6.2074   20.1776 C   0  0  0  0  0  0  0  0  0  0  0  0
    6.9192    9.1053   20.9073 O   0  0  0  0  0  0  0  0  0  0  0  0
   14.3979    6.0729   18.7784 C   0  0  0  0  0  0  0  0  0  0  0  0
    8.6811    9.5354   16.9998 C   0  0  0  0  0  0  0  0  0  0  0  0
    9.2512    4.2713   13.7653 O   0  0  0  0  0  0  0  0  0  0  0  0
    9.6495    8.6317   16.8332 N   0  0  0  0  0  0  0  0  0  0  0  0
    6.2934    8.6988   23.1988 O   0  0  0  0  0  0  0  0  0  0  0  0
    7.9806    8.6543   20.5437 C   0  0  0  0  0  0  0  0  0  0  0  0
   13.7270    5.7144   19.8610 O   0  0  0  0  0  0  0  0  0  0  0  0
    8.3351    5.5235   15.4478 C   0  0  0  0  0  0  0  0  0  0  0  0
    8.7700    7.8434   21.3915 C   0  0  0  0  0  0  0  0  0  0  0  0
   11.7856    6.8851   19.2401 C   0  0  0  0  0  0  0  0  0  0  0  0
   10.5281    7.4276   19.5649 C   0  0  0  0  0  0  0  0  0  0  0  0
   10.0256    7.2907   20.8484 C   0  0  0  0  0  0  0  0  0  0  0  0
    9.3113    5.3049   14.4911 C   0  0  0  0  0  0  0  0  0  0  0  0
    9.4607    7.5646   16.0139 C   0  0  0  0  0  0  0  0  0  0  0  0
   10.4192    7.3157   15.0955 C   0  0  0  0  0  0  0  0  0  0  0  0
   10.2489    6.4227   23.0218 N   0  0  0  0  0  0  0  0  0  0  0  0
    7.2472    8.0746   23.5050 C   0  0  0  0  0  0  0  0  0  0  0  0
    9.2051    6.9101   23.4604 C   0  0  0  0  0  0  0  0  0  0  0  0
   11.9646    6.0299   21.4251 C   0  0  0  0  0  0  0  0  0  0  0  0
  1  5  1  0
  1 13  1  0
  2 20  2  0
  2 28  1  0
  2 29  1  0
  3 19  4  0
  3 25  4  0
  4 23  4  0
  4 27  1  0
  4 30  4  0
  5 17  1  0
  6  8  1  0
  6 29  1  0
  7 24  4  0
  7 26  4  0
  8 28  1  0
  9 13  2  0
 10 18  1  0
 10 21  4  0
 10 30  4  0
 11 17  2  0
 12 18  1  0
 13 15  1  0
 14 24  1  0
 15 25  1  0
 16 28  2  0
 17 20  1  0
 19 24  4  0
 20 23  1  0
 21 22  4  0
 22 23  4  0
 25 26  4  0
 27 29  2  0
M  END
$$$$

 Created by Python create_sdf_string function

 30 33  0  0  0  0  0  0  0  0999 V2000
    8.3036    9.8571   18.4133 C   0  0  0  0  0  0  0  0  0  0  0  0
    8.3694    7.6612   22.6703 C   0  0  0  0  0  0  0  0  0  0  0  0
    8.4143    6.6863   16.2273 C   0  0  0  0  0  0  0  0  0  0  0  0
   10.7581    6.5674   21.7636 C   0  0  0  0  0  0  0  0  0  0  0  0
    8.4452    8.7960   19.2958 O   0  0  0  0  0  0  0  0  0  0  0  0
    8.7122    6.7842   24.8569 C   0  0  0  0  0  0  0  0  0  0  0  0
   10.3400    6.1726   14.3081 C   0  0  0  0  0  0  0  0  0  0  0  0
    7.4297    7.5873   24.8962 C   0  0  0  0  0  0  0  0  0  0  0  0
    8.1566   10.0536   16.0516 O   0  0  0  0  0  0  0  0  0  0  0  0
   12.4989    6.2074   20.1776 C   0  0  0  0  0  0  0  0  0  0  0  0
    6.9192    9.1053   20.9073 O   0  0  0  0  0  0  0  0  0  0  0  0
   14.3979    6.0729   18.7784 C   0  0  0  0  0  0  0  0  0  0  0  0
    8.6811    9.5354   16.9998 C   0  0  0  0  0  0  0  0  0  0  0  0
    9.2512    4.2713   13.7653 O   0  0  0  0  0  0  0  0  0  0  0  0
    9.6495    8.6317   16.8332 N   0  0  0  0  0  0  0  0  0  0  0  0
    6.2934    8.6988   23.1988 O   0  0  0  0  0  0  0  0  0  0  0  0
    7.9806    8.6543   20.5437 C   0  0  0  0  0  0  0  0  0  0  0  0
   13.7270    5.7144   19.8610 O   0  0  0  0  0  0  0  0  0  0  0  0
    8.3351    5.5235   15.4478 C   0  0  0  0  0  0  0  0  0  0  0  0
    8.7700    7.8434   21.3915 C   0  0  0  0  0  0  0  0  0  0  0  0
   11.7856    6.8851   19.2401 C   0  0  0  0  0  0  0  0  0  0  0  0
   10.5281    7.4276   19.5649 C   0  0  0  0  0  0  0  0  0  0  0  0
   10.0256    7.2907   20.8484 C   0  0  0  0  0  0  0  0  0  0  0  0
    9.3113    5.3049   14.4911 C   0  0  0  0  0  0  0  0  0  0  0  0
    9.4607    7.5646   16.0139 C   0  0  0  0  0  0  0  0  0  0  0  0
   10.4192    7.3157   15.0955 C   0  0  0  0  0  0  0  0  0  0  0  0
   10.2489    6.4227   23.0218 N   0  0  0  0  0  0  0  0  0  0  0  0
    7.2472    8.0746   23.5050 C   0  0  0  0  0  0  0  0  0  0  0  0
    9.2051    6.9101   23.4604 C   0  0  0  0  0  0  0  0  0  0  0  0
   11.9646    6.0299   21.4251 C   0  0  0  0  0  0  0  0  0  0  0  0
  1  5  1  0
  1 13  1  0
  2 20  2  0
  2 28  1  0
  2 29  1  0
  3 19  4  0
  3 25  4  0
  4 23  4  0
  4 27  1  0
  4 30  4  0
  5 17  1  0
  6  8  1  0
  6 29  1  0
  7 24  4  0
  7 26  4  0
  8 28  1  0
  9 13  2  0
 10 18  1  0
 10 21  4  0
 10 30  4  0
 11 17  2  0
 12 18  1  0
 13 15  1  0
 14 24  1  0
 15 25  1  0
 16 28  2  0
 17 20  1  0
 19 24  4  0
 20 23  1  0
 21 22  4  0
 22 23  4  0
 25 26  4  0
 27 29  2  0
M  END
$$$$

 Created by Python create_sdf_string function

 30 33  0  0  0  0  0  0  0  0999 V2000
    8.3036    9.8571   18.4133 C   0  0  0  0  0  0  0  0  0  0  0  0
    8.3694    7.6612   22.6703 C   0  0  0  0  0  0  0  0  0  0  0  0
    8.4143    6.6863   16.2273 C   0  0  0  0  0  0  0  0  0  0  0  0
   10.7581    6.5674   21.7636 C   0  0  0  0  0  0  0  0  0  0  0  0
    8.4452    8.7960   19.2958 O   0  0  0  0  0  0  0  0  0  0  0  0
    8.7122    6.7842   24.8569 C   0  0  0  0  0  0  0  0  0  0  0  0
   10.3400    6.1726   14.3081 C   0  0  0  0  0  0  0  0  0  0  0  0
    7.4297    7.5873   24.8962 C   0  0  0  0  0  0  0  0  0  0  0  0
    8.1566   10.0536   16.0516 O   0  0  0  0  0  0  0  0  0  0  0  0
   12.4989    6.2074   20.1776 C   0  0  0  0  0  0  0  0  0  0  0  0
    6.9192    9.1053   20.9073 O   0  0  0  0  0  0  0  0  0  0  0  0
   14.3979    6.0729   18.7784 C   0  0  0  0  0  0  0  0  0  0  0  0
    8.6811    9.5354   16.9998 C   0  0  0  0  0  0  0  0  0  0  0  0
    9.2512    4.2713   13.7653 O   0  0  0  0  0  0  0  0  0  0  0  0
    9.6495    8.6317   16.8332 N   0  0  0  0  0  0  0  0  0  0  0  0
    6.2934    8.6988   23.1988 O   0  0  0  0  0  0  0  0  0  0  0  0
    7.9806    8.6543   20.5437 C   0  0  0  0  0  0  0  0  0  0  0  0
   13.7270    5.7144   19.8610 O   0  0  0  0  0  0  0  0  0  0  0  0
    8.3351    5.5235   15.4478 C   0  0  0  0  0  0  0  0  0  0  0  0
    8.7700    7.8434   21.3915 C   0  0  0  0  0  0  0  0  0  0  0  0
   11.7856    6.8851   19.2401 C   0  0  0  0  0  0  0  0  0  0  0  0
   10.5281    7.4276   19.5649 C   0  0  0  0  0  0  0  0  0  0  0  0
   10.0256    7.2907   20.8484 C   0  0  0  0  0  0  0  0  0  0  0  0
    9.3113    5.3049   14.4911 C   0  0  0  0  0  0  0  0  0  0  0  0
    9.4607    7.5646   16.0139 C   0  0  0  0  0  0  0  0  0  0  0  0
   10.4192    7.3157   15.0955 C   0  0  0  0  0  0  0  0  0  0  0  0
   10.2489    6.4227   23.0218 N   0  0  0  0  0  0  0  0  0  0  0  0
    7.2472    8.0746   23.5050 C   0  0  0  0  0  0  0  0  0  0  0  0
    9.2051    6.9101   23.4604 C   0  0  0  0  0  0  0  0  0  0  0  0
   11.9646    6.0299   21.4251 C   0  0  0  0  0  0  0  0  0  0  0  0
  1  5  1  0
  1 13  1  0
  2 20  2  0
  2 28  1  0
  2 29  1  0
  3 19  4  0
  3 25  4  0
  4 23  4  0
  4 27  1  0
  4 30  4  0
  5 17  1  0
  6  8  1  0
  6 29  1  0
  7 24  4  0
  7 26  4  0
  8 28  1  0
  9 13  2  0
 10 18  1  0
 10 21  4  0
 10 30  4  0
 11 17  2  0
 12 18  1  0
 13 15  1  0
 14 24  1  0
 15 25  1  0
 16 28  2  0
 17 20  1  0
 19 24  4  0
 20 23  1  0
 21 22  4  0
 22 23  4  0
 25 26  4  0
 27 29  2  0
M  END
$$$$

 Created by Python create_sdf_string function

 30 33  0  0  0  0  0  0  0  0999 V2000
    8.3036    9.8571   18.4133 C   0  0  0  0  0  0  0  0  0  0  0  0
    8.3694    7.6612   22.6703 C   0  0  0  0  0  0  0  0  0  0  0  0
    8.4143    6.6863   16.2273 C   0  0  0  0  0  0  0  0  0  0  0  0
   10.7581    6.5674   21.7636 C   0  0  0  0  0  0  0  0  0  0  0  0
    8.4452    8.7960   19.2958 O   0  0  0  0  0  0  0  0  0  0  0  0
    8.7122    6.7842   24.8569 C   0  0  0  0  0  0  0  0  0  0  0  0
   10.3400    6.1726   14.3081 C   0  0  0  0  0  0  0  0  0  0  0  0
    7.4297    7.5873   24.8962 C   0  0  0  0  0  0  0  0  0  0  0  0
    8.1566   10.0536   16.0516 O   0  0  0  0  0  0  0  0  0  0  0  0
   12.4989    6.2074   20.1776 C   0  0  0  0  0  0  0  0  0  0  0  0
    6.9192    9.1053   20.9073 O   0  0  0  0  0  0  0  0  0  0  0  0
   14.3979    6.0729   18.7784 C   0  0  0  0  0  0  0  0  0  0  0  0
    8.6811    9.5354   16.9998 C   0  0  0  0  0  0  0  0  0  0  0  0
    9.2512    4.2713   13.7653 O   0  0  0  0  0  0  0  0  0  0  0  0
    9.6495    8.6317   16.8332 N   0  0  0  0  0  0  0  0  0  0  0  0
    6.2934    8.6988   23.1988 O   0  0  0  0  0  0  0  0  0  0  0  0
    7.9806    8.6543   20.5437 C   0  0  0  0  0  0  0  0  0  0  0  0
   13.7270    5.7144   19.8610 O   0  0  0  0  0  0  0  0  0  0  0  0
    8.3351    5.5235   15.4478 C   0  0  0  0  0  0  0  0  0  0  0  0
    8.7700    7.8434   21.3915 C   0  0  0  0  0  0  0  0  0  0  0  0
   11.7856    6.8851   19.2401 C   0  0  0  0  0  0  0  0  0  0  0  0
   10.5281    7.4276   19.5649 C   0  0  0  0  0  0  0  0  0  0  0  0
   10.0256    7.2907   20.8484 C   0  0  0  0  0  0  0  0  0  0  0  0
    9.3113    5.3049   14.4911 C   0  0  0  0  0  0  0  0  0  0  0  0
    9.4607    7.5646   16.0139 C   0  0  0  0  0  0  0  0  0  0  0  0
   10.4192    7.3157   15.0955 C   0  0  0  0  0  0  0  0  0  0  0  0
   10.2489    6.4227   23.0218 N   0  0  0  0  0  0  0  0  0  0  0  0
    7.2472    8.0746   23.5050 C   0  0  0  0  0  0  0  0  0  0  0  0
    9.2051    6.9101   23.4604 C   0  0  0  0  0  0  0  0  0  0  0  0
   11.9646    6.0299   21.4251 C   0  0  0  0  0  0  0  0  0  0  0  0
  1  5  1  0
  1 13  1  0
  2 20  2  0
  2 28  1  0
  2 29  1  0
  3 19  4  0
  3 25  4  0
  4 23  4  0
  4 27  1  0
  4 30  4  0
  5 17  1  0
  6  8  1  0
  6 29  1  0
  7 24  4  0
  7 26  4  0
  8 28  1  0
  9 13  2  0
 10 18  1  0
 10 21  4  0
 10 30  4  0
 11 17  2  0
 12 18  1  0
 13 15  1  0
 14 24  1  0
 15 25  1  0
 16 28  2  0
 17 20  1  0
 19 24  4  0
 20 23  1  0
 21 22  4  0
 22 23  4  0
 25 26  4  0
 27 29  2  0
M  END
$$$$

 Created by Python create_sdf_string function

 30 33  0  0  0  0  0  0  0  0999 V2000
    8.3036    9.8571   18.4133 C   0  0  0  0  0  0  0  0  0  0  0  0
    8.3694    7.6612   22.6703 C   0  0  0  0  0  0  0  0  0  0  0  0
    8.4143    6.6863   16.2273 C   0  0  0  0  0  0  0  0  0  0  0  0
   10.7581    6.5674   21.7636 C   0  0  0  0  0  0  0  0  0  0  0  0
    8.4452    8.7960   19.2958 O   0  0  0  0  0  0  0  0  0  0  0  0
    8.7122    6.7842   24.8569 C   0  0  0  0  0  0  0  0  0  0  0  0
   10.3400    6.1726   14.3081 C   0  0  0  0  0  0  0  0  0  0  0  0
    7.4297    7.5873   24.8962 C   0  0  0  0  0  0  0  0  0  0  0  0
    8.1566   10.0536   16.0516 O   0  0  0  0  0  0  0  0  0  0  0  0
   12.4989    6.2074   20.1776 C   0  0  0  0  0  0  0  0  0  0  0  0
    6.9192    9.1053   20.9073 O   0  0  0  0  0  0  0  0  0  0  0  0
   14.3979    6.0729   18.7784 C   0  0  0  0  0  0  0  0  0  0  0  0
    8.6811    9.5354   16.9998 C   0  0  0  0  0  0  0  0  0  0  0  0
    9.2512    4.2713   13.7653 O   0  0  0  0  0  0  0  0  0  0  0  0
    9.6495    8.6317   16.8332 N   0  0  0  0  0  0  0  0  0  0  0  0
    6.2934    8.6988   23.1988 O   0  0  0  0  0  0  0  0  0  0  0  0
    7.9806    8.6543   20.5437 C   0  0  0  0  0  0  0  0  0  0  0  0
   13.7270    5.7144   19.8610 O   0  0  0  0  0  0  0  0  0  0  0  0
    8.3351    5.5235   15.4478 C   0  0  0  0  0  0  0  0  0  0  0  0
    8.7700    7.8434   21.3915 C   0  0  0  0  0  0  0  0  0  0  0  0
   11.7856    6.8851   19.2401 C   0  0  0  0  0  0  0  0  0  0  0  0
   10.5281    7.4276   19.5649 C   0  0  0  0  0  0  0  0  0  0  0  0
   10.0256    7.2907   20.8484 C   0  0  0  0  0  0  0  0  0  0  0  0
    9.3113    5.3049   14.4911 C   0  0  0  0  0  0  0  0  0  0  0  0
    9.4607    7.5646   16.0139 C   0  0  0  0  0  0  0  0  0  0  0  0
   10.4192    7.3157   15.0955 C   0  0  0  0  0  0  0  0  0  0  0  0
   10.2489    6.4227   23.0218 N   0  0  0  0  0  0  0  0  0  0  0  0
    7.2472    8.0746   23.5050 C   0  0  0  0  0  0  0  0  0  0  0  0
    9.2051    6.9101   23.4604 C   0  0  0  0  0  0  0  0  0  0  0  0
   11.9646    6.0299   21.4251 C   0  0  0  0  0  0  0  0  0  0  0  0
  1  5  1  0
  1 13  1  0
  2 20  2  0
  2 28  1  0
  2 29  1  0
  3 19  4  0
  3 25  4  0
  4 23  4  0
  4 27  1  0
  4 30  4  0
  5 17  1  0
  6  8  1  0
  6 29  1  0
  7 24  4  0
  7 26  4  0
  8 28  1  0
  9 13  2  0
 10 18  1  0
 10 21  4  0
 10 30  4  0
 11 17  2  0
 12 18  1  0
 13 15  1  0
 14 24  1  0
 15 25  1  0
 16 28  2  0
 17 20  1  0
 19 24  4  0
 20 23  1  0
 21 22  4  0
 22 23  4  0
 25 26  4  0
 27 29  2  0
M  END
$$$$

 Created by Python create_sdf_string function

 30 33  0  0  0  0  0  0  0  0999 V2000
    8.3036    9.8571   18.4133 C   0  0  0  0  0  0  0  0  0  0  0  0
    8.3694    7.6612   22.6703 C   0  0  0  0  0  0  0  0  0  0  0  0
    8.4143    6.6863   16.2273 C   0  0  0  0  0  0  0  0  0  0  0  0
   10.7581    6.5674   21.7636 C   0  0  0  0  0  0  0  0  0  0  0  0
    8.4452    8.7960   19.2958 O   0  0  0  0  0  0  0  0  0  0  0  0
    8.7122    6.7842   24.8569 C   0  0  0  0  0  0  0  0  0  0  0  0
   10.3400    6.1726   14.3081 C   0  0  0  0  0  0  0  0  0  0  0  0
    7.4297    7.5873   24.8962 C   0  0  0  0  0  0  0  0  0  0  0  0
    8.1566   10.0536   16.0516 O   0  0  0  0  0  0  0  0  0  0  0  0
   12.4989    6.2074   20.1776 C   0  0  0  0  0  0  0  0  0  0  0  0
    6.9192    9.1053   20.9073 O   0  0  0  0  0  0  0  0  0  0  0  0
   14.3979    6.0729   18.7784 C   0  0  0  0  0  0  0  0  0  0  0  0
    8.6811    9.5354   16.9998 C   0  0  0  0  0  0  0  0  0  0  0  0
    9.2512    4.2713   13.7653 O   0  0  0  0  0  0  0  0  0  0  0  0
    9.6495    8.6317   16.8332 N   0  0  0  0  0  0  0  0  0  0  0  0
    6.2934    8.6988   23.1988 O   0  0  0  0  0  0  0  0  0  0  0  0
    7.9806    8.6543   20.5437 C   0  0  0  0  0  0  0  0  0  0  0  0
   13.7270    5.7144   19.8610 O   0  0  0  0  0  0  0  0  0  0  0  0
    8.3351    5.5235   15.4478 C   0  0  0  0  0  0  0  0  0  0  0  0
    8.7700    7.8434   21.3915 C   0  0  0  0  0  0  0  0  0  0  0  0
   11.7856    6.8851   19.2401 C   0  0  0  0  0  0  0  0  0  0  0  0
   10.5281    7.4276   19.5649 C   0  0  0  0  0  0  0  0  0  0  0  0
   10.0256    7.2907   20.8484 C   0  0  0  0  0  0  0  0  0  0  0  0
    9.3113    5.3049   14.4911 C   0  0  0  0  0  0  0  0  0  0  0  0
    9.4607    7.5646   16.0139 C   0  0  0  0  0  0  0  0  0  0  0  0
   10.4192    7.3157   15.0955 C   0  0  0  0  0  0  0  0  0  0  0  0
   10.2489    6.4227   23.0218 N   0  0  0  0  0  0  0  0  0  0  0  0
    7.2472    8.0746   23.5050 C   0  0  0  0  0  0  0  0  0  0  0  0
    9.2051    6.9101   23.4604 C   0  0  0  0  0  0  0  0  0  0  0  0
   11.9646    6.0299   21.4251 C   0  0  0  0  0  0  0  0  0  0  0  0
  1  5  1  0
  1 13  1  0
  2 20  2  0
  2 28  1  0
  2 29  1  0
  3 19  4  0
  3 25  4  0
  4 23  4  0
  4 27  1  0
  4 30  4  0
  5 17  1  0
  6  8  1  0
  6 29  1  0
  7 24  4  0
  7 26  4  0
  8 28  1  0
  9 13  2  0
 10 18  1  0
 10 21  4  0
 10 30  4  0
 11 17  2  0
 12 18  1  0
 13 15  1  0
 14 24  1  0
 15 25  1  0
 16 28  2  0
 17 20  1  0
 19 24  4  0
 20 23  1  0
 21 22  4  0
 22 23  4  0
 25 26  4  0
 27 29  2  0
M  END
$$$$

 Created by Python create_sdf_string function

 30 33  0  0  0  0  0  0  0  0999 V2000
    8.3036    9.8571   18.4133 C   0  0  0  0  0  0  0  0  0  0  0  0
    8.3694    7.6612   22.6703 C   0  0  0  0  0  0  0  0  0  0  0  0
    8.4143    6.6863   16.2273 C   0  0  0  0  0  0  0  0  0  0  0  0
   10.7581    6.5674   21.7636 C   0  0  0  0  0  0  0  0  0  0  0  0
    8.4452    8.7960   19.2958 O   0  0  0  0  0  0  0  0  0  0  0  0
    8.7122    6.7842   24.8569 C   0  0  0  0  0  0  0  0  0  0  0  0
   10.3400    6.1726   14.3081 C   0  0  0  0  0  0  0  0  0  0  0  0
    7.4297    7.5873   24.8962 C   0  0  0  0  0  0  0  0  0  0  0  0
    8.1566   10.0536   16.0516 O   0  0  0  0  0  0  0  0  0  0  0  0
   12.4989    6.2074   20.1776 C   0  0  0  0  0  0  0  0  0  0  0  0
    6.9192    9.1053   20.9073 O   0  0  0  0  0  0  0  0  0  0  0  0
   14.3979    6.0729   18.7784 C   0  0  0  0  0  0  0  0  0  0  0  0
    8.6811    9.5354   16.9998 C   0  0  0  0  0  0  0  0  0  0  0  0
    9.2512    4.2713   13.7653 O   0  0  0  0  0  0  0  0  0  0  0  0
    9.6495    8.6317   16.8332 N   0  0  0  0  0  0  0  0  0  0  0  0
    6.2934    8.6988   23.1988 O   0  0  0  0  0  0  0  0  0  0  0  0
    7.9806    8.6543   20.5437 C   0  0  0  0  0  0  0  0  0  0  0  0
   13.7270    5.7144   19.8610 O   0  0  0  0  0  0  0  0  0  0  0  0
    8.3351    5.5235   15.4478 C   0  0  0  0  0  0  0  0  0  0  0  0
    8.7700    7.8434   21.3915 C   0  0  0  0  0  0  0  0  0  0  0  0
   11.7856    6.8851   19.2401 C   0  0  0  0  0  0  0  0  0  0  0  0
   10.5281    7.4276   19.5649 C   0  0  0  0  0  0  0  0  0  0  0  0
   10.0256    7.2907   20.8484 C   0  0  0  0  0  0  0  0  0  0  0  0
    9.3113    5.3049   14.4911 C   0  0  0  0  0  0  0  0  0  0  0  0
    9.4607    7.5646   16.0139 C   0  0  0  0  0  0  0  0  0  0  0  0
   10.4192    7.3157   15.0955 C   0  0  0  0  0  0  0  0  0  0  0  0
   10.2489    6.4227   23.0218 N   0  0  0  0  0  0  0  0  0  0  0  0
    7.2472    8.0746   23.5050 C   0  0  0  0  0  0  0  0  0  0  0  0
    9.2051    6.9101   23.4604 C   0  0  0  0  0  0  0  0  0  0  0  0
   11.9646    6.0299   21.4251 C   0  0  0  0  0  0  0  0  0  0  0  0
  1  5  1  0
  1 13  1  0
  2 20  2  0
  2 28  1  0
  2 29  1  0
  3 19  4  0
  3 25  4  0
  4 23  4  0
  4 27  1  0
  4 30  4  0
  5 17  1  0
  6  8  1  0
  6 29  1  0
  7 24  4  0
  7 26  4  0
  8 28  1  0
  9 13  2  0
 10 18  1  0
 10 21  4  0
 10 30  4  0
 11 17  2  0
 12 18  1  0
 13 15  1  0
 14 24  1  0
 15 25  1  0
 16 28  2  0
 17 20  1  0
 19 24  4  0
 20 23  1  0
 21 22  4  0
 22 23  4  0
 25 26  4  0
 27 29  2  0
M  END
$$$$

 Created by Python create_sdf_string function

 30 33  0  0  0  0  0  0  0  0999 V2000
    8.3036    9.8571   18.4133 C   0  0  0  0  0  0  0  0  0  0  0  0
    8.3694    7.6612   22.6703 C   0  0  0  0  0  0  0  0  0  0  0  0
    8.4143    6.6863   16.2273 C   0  0  0  0  0  0  0  0  0  0  0  0
   10.7581    6.5674   21.7636 C   0  0  0  0  0  0  0  0  0  0  0  0
    8.4452    8.7960   19.2958 O   0  0  0  0  0  0  0  0  0  0  0  0
    8.7122    6.7842   24.8569 C   0  0  0  0  0  0  0  0  0  0  0  0
   10.3400    6.1726   14.3081 C   0  0  0  0  0  0  0  0  0  0  0  0
    7.4297    7.5873   24.8962 C   0  0  0  0  0  0  0  0  0  0  0  0
    8.1566   10.0536   16.0516 O   0  0  0  0  0  0  0  0  0  0  0  0
   12.4989    6.2074   20.1776 C   0  0  0  0  0  0  0  0  0  0  0  0
    6.9192    9.1053   20.9073 O   0  0  0  0  0  0  0  0  0  0  0  0
   14.3979    6.0729   18.7784 C   0  0  0  0  0  0  0  0  0  0  0  0
    8.6811    9.5354   16.9998 C   0  0  0  0  0  0  0  0  0  0  0  0
    9.2512    4.2713   13.7653 O   0  0  0  0  0  0  0  0  0  0  0  0
    9.6495    8.6317   16.8332 N   0  0  0  0  0  0  0  0  0  0  0  0
    6.2934    8.6988   23.1988 O   0  0  0  0  0  0  0  0  0  0  0  0
    7.9806    8.6543   20.5437 C   0  0  0  0  0  0  0  0  0  0  0  0
   13.7270    5.7144   19.8610 O   0  0  0  0  0  0  0  0  0  0  0  0
    8.3351    5.5235   15.4478 C   0  0  0  0  0  0  0  0  0  0  0  0
    8.7700    7.8434   21.3915 C   0  0  0  0  0  0  0  0  0  0  0  0
   11.7856    6.8851   19.2401 C   0  0  0  0  0  0  0  0  0  0  0  0
   10.5281    7.4276   19.5649 C   0  0  0  0  0  0  0  0  0  0  0  0
   10.0256    7.2907   20.8484 C   0  0  0  0  0  0  0  0  0  0  0  0
    9.3113    5.3049   14.4911 C   0  0  0  0  0  0  0  0  0  0  0  0
    9.4607    7.5646   16.0139 C   0  0  0  0  0  0  0  0  0  0  0  0
   10.4192    7.3157   15.0955 C   0  0  0  0  0  0  0  0  0  0  0  0
   10.2489    6.4227   23.0218 N   0  0  0  0  0  0  0  0  0  0  0  0
    7.2472    8.0746   23.5050 C   0  0  0  0  0  0  0  0  0  0  0  0
    9.2051    6.9101   23.4604 C   0  0  0  0  0  0  0  0  0  0  0  0
   11.9646    6.0299   21.4251 C   0  0  0  0  0  0  0  0  0  0  0  0
  1  5  1  0
  1 13  1  0
  2 20  2  0
  2 28  1  0
  2 29  1  0
  3 19  4  0
  3 25  4  0
  4 23  4  0
  4 27  1  0
  4 30  4  0
  5 17  1  0
  6  8  1  0
  6 29  1  0
  7 24  4  0
  7 26  4  0
  8 28  1  0
  9 13  2  0
 10 18  1  0
 10 21  4  0
 10 30  4  0
 11 17  2  0
 12 18  1  0
 13 15  1  0
 14 24  1  0
 15 25  1  0
 16 28  2  0
 17 20  1  0
 19 24  4  0
 20 23  1  0
 21 22  4  0
 22 23  4  0
 25 26  4  0
 27 29  2  0
M  END
$$$$

 Created by Python create_sdf_string function

 30 33  0  0  0  0  0  0  0  0999 V2000
    8.3036    9.8571   18.4133 C   0  0  0  0  0  0  0  0  0  0  0  0
    8.3694    7.6612   22.6703 C   0  0  0  0  0  0  0  0  0  0  0  0
    8.4143    6.6863   16.2273 C   0  0  0  0  0  0  0  0  0  0  0  0
   10.7581    6.5674   21.7636 C   0  0  0  0  0  0  0  0  0  0  0  0
    8.4452    8.7960   19.2958 O   0  0  0  0  0  0  0  0  0  0  0  0
    8.7122    6.7842   24.8569 C   0  0  0  0  0  0  0  0  0  0  0  0
   10.3400    6.1726   14.3081 C   0  0  0  0  0  0  0  0  0  0  0  0
    7.4297    7.5873   24.8962 C   0  0  0  0  0  0  0  0  0  0  0  0
    8.1566   10.0536   16.0516 O   0  0  0  0  0  0  0  0  0  0  0  0
   12.4989    6.2074   20.1776 C   0  0  0  0  0  0  0  0  0  0  0  0
    6.9192    9.1053   20.9073 O   0  0  0  0  0  0  0  0  0  0  0  0
   14.3979    6.0729   18.7784 C   0  0  0  0  0  0  0  0  0  0  0  0
    8.6811    9.5354   16.9998 C   0  0  0  0  0  0  0  0  0  0  0  0
    9.2512    4.2713   13.7653 O   0  0  0  0  0  0  0  0  0  0  0  0
    9.6495    8.6317   16.8332 N   0  0  0  0  0  0  0  0  0  0  0  0
    6.2934    8.6988   23.1988 O   0  0  0  0  0  0  0  0  0  0  0  0
    7.9806    8.6543   20.5437 C   0  0  0  0  0  0  0  0  0  0  0  0
   13.7270    5.7144   19.8610 O   0  0  0  0  0  0  0  0  0  0  0  0
    8.3351    5.5235   15.4478 C   0  0  0  0  0  0  0  0  0  0  0  0
    8.7700    7.8434   21.3915 C   0  0  0  0  0  0  0  0  0  0  0  0
   11.7856    6.8851   19.2401 C   0  0  0  0  0  0  0  0  0  0  0  0
   10.5281    7.4276   19.5649 C   0  0  0  0  0  0  0  0  0  0  0  0
   10.0256    7.2907   20.8484 C   0  0  0  0  0  0  0  0  0  0  0  0
    9.3113    5.3049   14.4911 C   0  0  0  0  0  0  0  0  0  0  0  0
    9.4607    7.5646   16.0139 C   0  0  0  0  0  0  0  0  0  0  0  0
   10.4192    7.3157   15.0955 C   0  0  0  0  0  0  0  0  0  0  0  0
   10.2489    6.4227   23.0218 N   0  0  0  0  0  0  0  0  0  0  0  0
    7.2472    8.0746   23.5050 C   0  0  0  0  0  0  0  0  0  0  0  0
    9.2051    6.9101   23.4604 C   0  0  0  0  0  0  0  0  0  0  0  0
   11.9646    6.0299   21.4251 C   0  0  0  0  0  0  0  0  0  0  0  0
  1  5  1  0
  1 13  1  0
  2 20  2  0
  2 28  1  0
  2 29  1  0
  3 19  4  0
  3 25  4  0
  4 23  4  0
  4 27  1  0
  4 30  4  0
  5 17  1  0
  6  8  1  0
  6 29  1  0
  7 24  4  0
  7 26  4  0
  8 28  1  0
  9 13  2  0
 10 18  1  0
 10 21  4  0
 10 30  4  0
 11 17  2  0
 12 18  1  0
 13 15  1  0
 14 24  1  0
 15 25  1  0
 16 28  2  0
 17 20  1  0
 19 24  4  0
 20 23  1  0
 21 22  4  0
 22 23  4  0
 25 26  4  0
 27 29  2  0
M  END
$$$$

 Created by Python create_sdf_string function

 30 33  0  0  0  0  0  0  0  0999 V2000
    8.3036    9.8571   18.4133 C   0  0  0  0  0  0  0  0  0  0  0  0
    8.3694    7.6612   22.6703 C   0  0  0  0  0  0  0  0  0  0  0  0
    8.4143    6.6863   16.2273 C   0  0  0  0  0  0  0  0  0  0  0  0
   10.7581    6.5674   21.7636 C   0  0  0  0  0  0  0  0  0  0  0  0
    8.4452    8.7960   19.2958 O   0  0  0  0  0  0  0  0  0  0  0  0
    8.7122    6.7842   24.8569 C   0  0  0  0  0  0  0  0  0  0  0  0
   10.3400    6.1726   14.3081 C   0  0  0  0  0  0  0  0  0  0  0  0
    7.4297    7.5873   24.8962 C   0  0  0  0  0  0  0  0  0  0  0  0
    8.1566   10.0536   16.0516 O   0  0  0  0  0  0  0  0  0  0  0  0
   12.4989    6.2074   20.1776 C   0  0  0  0  0  0  0  0  0  0  0  0
    6.9192    9.1053   20.9073 O   0  0  0  0  0  0  0  0  0  0  0  0
   14.3979    6.0729   18.7784 C   0  0  0  0  0  0  0  0  0  0  0  0
    8.6811    9.5354   16.9998 C   0  0  0  0  0  0  0  0  0  0  0  0
    9.2512    4.2713   13.7653 O   0  0  0  0  0  0  0  0  0  0  0  0
    9.6495    8.6317   16.8332 N   0  0  0  0  0  0  0  0  0  0  0  0
    6.2934    8.6988   23.1988 O   0  0  0  0  0  0  0  0  0  0  0  0
    7.9806    8.6543   20.5437 C   0  0  0  0  0  0  0  0  0  0  0  0
   13.7270    5.7144   19.8610 O   0  0  0  0  0  0  0  0  0  0  0  0
    8.3351    5.5235   15.4478 C   0  0  0  0  0  0  0  0  0  0  0  0
    8.7700    7.8434   21.3915 C   0  0  0  0  0  0  0  0  0  0  0  0
   11.7856    6.8851   19.2401 C   0  0  0  0  0  0  0  0  0  0  0  0
   10.5281    7.4276   19.5649 C   0  0  0  0  0  0  0  0  0  0  0  0
   10.0256    7.2907   20.8484 C   0  0  0  0  0  0  0  0  0  0  0  0
    9.3113    5.3049   14.4911 C   0  0  0  0  0  0  0  0  0  0  0  0
    9.4607    7.5646   16.0139 C   0  0  0  0  0  0  0  0  0  0  0  0
   10.4192    7.3157   15.0955 C   0  0  0  0  0  0  0  0  0  0  0  0
   10.2489    6.4227   23.0218 N   0  0  0  0  0  0  0  0  0  0  0  0
    7.2472    8.0746   23.5050 C   0  0  0  0  0  0  0  0  0  0  0  0
    9.2051    6.9101   23.4604 C   0  0  0  0  0  0  0  0  0  0  0  0
   11.9646    6.0299   21.4251 C   0  0  0  0  0  0  0  0  0  0  0  0
  1  5  1  0
  1 13  1  0
  2 20  2  0
  2 28  1  0
  2 29  1  0
  3 19  4  0
  3 25  4  0
  4 23  4  0
  4 27  1  0
  4 30  4  0
  5 17  1  0
  6  8  1  0
  6 29  1  0
  7 24  4  0
  7 26  4  0
  8 28  1  0
  9 13  2  0
 10 18  1  0
 10 21  4  0
 10 30  4  0
 11 17  2  0
 12 18  1  0
 13 15  1  0
 14 24  1  0
 15 25  1  0
 16 28  2  0
 17 20  1  0
 19 24  4  0
 20 23  1  0
 21 22  4  0
 22 23  4  0
 25 26  4  0
 27 29  2  0
M  END
$$$$

 Created by Python create_sdf_string function

 30 33  0  0  0  0  0  0  0  0999 V2000
    8.3036    9.8571   18.4133 C   0  0  0  0  0  0  0  0  0  0  0  0
    8.3694    7.6612   22.6703 C   0  0  0  0  0  0  0  0  0  0  0  0
    8.4143    6.6863   16.2273 C   0  0  0  0  0  0  0  0  0  0  0  0
   10.7581    6.5674   21.7636 C   0  0  0  0  0  0  0  0  0  0  0  0
    8.4452    8.7960   19.2958 O   0  0  0  0  0  0  0  0  0  0  0  0
    8.7122    6.7842   24.8569 C   0  0  0  0  0  0  0  0  0  0  0  0
   10.3400    6.1726   14.3081 C   0  0  0  0  0  0  0  0  0  0  0  0
    7.4297    7.5873   24.8962 C   0  0  0  0  0  0  0  0  0  0  0  0
    8.1566   10.0536   16.0516 O   0  0  0  0  0  0  0  0  0  0  0  0
   12.4989    6.2074   20.1776 C   0  0  0  0  0  0  0  0  0  0  0  0
    6.9192    9.1053   20.9073 O   0  0  0  0  0  0  0  0  0  0  0  0
   14.3979    6.0729   18.7784 C   0  0  0  0  0  0  0  0  0  0  0  0
    8.6811    9.5354   16.9998 C   0  0  0  0  0  0  0  0  0  0  0  0
    9.2512    4.2713   13.7653 O   0  0  0  0  0  0  0  0  0  0  0  0
    9.6495    8.6317   16.8332 N   0  0  0  0  0  0  0  0  0  0  0  0
    6.2934    8.6988   23.1988 O   0  0  0  0  0  0  0  0  0  0  0  0
    7.9806    8.6543   20.5437 C   0  0  0  0  0  0  0  0  0  0  0  0
   13.7270    5.7144   19.8610 O   0  0  0  0  0  0  0  0  0  0  0  0
    8.3351    5.5235   15.4478 C   0  0  0  0  0  0  0  0  0  0  0  0
    8.7700    7.8434   21.3915 C   0  0  0  0  0  0  0  0  0  0  0  0
   11.7856    6.8851   19.2401 C   0  0  0  0  0  0  0  0  0  0  0  0
   10.5281    7.4276   19.5649 C   0  0  0  0  0  0  0  0  0  0  0  0
   10.0256    7.2907   20.8484 C   0  0  0  0  0  0  0  0  0  0  0  0
    9.3113    5.3049   14.4911 C   0  0  0  0  0  0  0  0  0  0  0  0
    9.4607    7.5646   16.0139 C   0  0  0  0  0  0  0  0  0  0  0  0
   10.4192    7.3157   15.0955 C   0  0  0  0  0  0  0  0  0  0  0  0
   10.2489    6.4227   23.0218 N   0  0  0  0  0  0  0  0  0  0  0  0
    7.2472    8.0746   23.5050 C   0  0  0  0  0  0  0  0  0  0  0  0
    9.2051    6.9101   23.4604 C   0  0  0  0  0  0  0  0  0  0  0  0
   11.9646    6.0299   21.4251 C   0  0  0  0  0  0  0  0  0  0  0  0
  1  5  1  0
  1 13  1  0
  2 20  2  0
  2 28  1  0
  2 29  1  0
  3 19  4  0
  3 25  4  0
  4 23  4  0
  4 27  1  0
  4 30  4  0
  5 17  1  0
  6  8  1  0
  6 29  1  0
  7 24  4  0
  7 26  4  0
  8 28  1  0
  9 13  2  0
 10 18  1  0
 10 21  4  0
 10 30  4  0
 11 17  2  0
 12 18  1  0
 13 15  1  0
 14 24  1  0
 15 25  1  0
 16 28  2  0
 17 20  1  0
 19 24  4  0
 20 23  1  0
 21 22  4  0
 22 23  4  0
 25 26  4  0
 27 29  2  0
M  END
$$$$

 Created by Python create_sdf_string function

 30 33  0  0  0  0  0  0  0  0999 V2000
    8.3036    9.8571   18.4133 C   0  0  0  0  0  0  0  0  0  0  0  0
    8.3694    7.6612   22.6703 C   0  0  0  0  0  0  0  0  0  0  0  0
    8.4143    6.6863   16.2273 C   0  0  0  0  0  0  0  0  0  0  0  0
   10.7581    6.5674   21.7636 C   0  0  0  0  0  0  0  0  0  0  0  0
    8.4452    8.7960   19.2958 O   0  0  0  0  0  0  0  0  0  0  0  0
    8.7122    6.7842   24.8569 C   0  0  0  0  0  0  0  0  0  0  0  0
   10.3400    6.1726   14.3081 C   0  0  0  0  0  0  0  0  0  0  0  0
    7.4297    7.5873   24.8962 C   0  0  0  0  0  0  0  0  0  0  0  0
    8.1566   10.0536   16.0516 O   0  0  0  0  0  0  0  0  0  0  0  0
   12.4989    6.2074   20.1776 C   0  0  0  0  0  0  0  0  0  0  0  0
    6.9192    9.1053   20.9073 O   0  0  0  0  0  0  0  0  0  0  0  0
   14.3979    6.0729   18.7784 C   0  0  0  0  0  0  0  0  0  0  0  0
    8.6811    9.5354   16.9998 C   0  0  0  0  0  0  0  0  0  0  0  0
    9.2512    4.2713   13.7653 O   0  0  0  0  0  0  0  0  0  0  0  0
    9.6495    8.6317   16.8332 N   0  0  0  0  0  0  0  0  0  0  0  0
    6.2934    8.6988   23.1988 O   0  0  0  0  0  0  0  0  0  0  0  0
    7.9806    8.6543   20.5437 C   0  0  0  0  0  0  0  0  0  0  0  0
   13.7270    5.7144   19.8610 O   0  0  0  0  0  0  0  0  0  0  0  0
    8.3351    5.5235   15.4478 C   0  0  0  0  0  0  0  0  0  0  0  0
    8.7700    7.8434   21.3915 C   0  0  0  0  0  0  0  0  0  0  0  0
   11.7856    6.8851   19.2401 C   0  0  0  0  0  0  0  0  0  0  0  0
   10.5281    7.4276   19.5649 C   0  0  0  0  0  0  0  0  0  0  0  0
   10.0256    7.2907   20.8484 C   0  0  0  0  0  0  0  0  0  0  0  0
    9.3113    5.3049   14.4911 C   0  0  0  0  0  0  0  0  0  0  0  0
    9.4607    7.5646   16.0139 C   0  0  0  0  0  0  0  0  0  0  0  0
   10.4192    7.3157   15.0955 C   0  0  0  0  0  0  0  0  0  0  0  0
   10.2489    6.4227   23.0218 N   0  0  0  0  0  0  0  0  0  0  0  0
    7.2472    8.0746   23.5050 C   0  0  0  0  0  0  0  0  0  0  0  0
    9.2051    6.9101   23.4604 C   0  0  0  0  0  0  0  0  0  0  0  0
   11.9646    6.0299   21.4251 C   0  0  0  0  0  0  0  0  0  0  0  0
  1  5  1  0
  1 13  1  0
  2 20  2  0
  2 28  1  0
  2 29  1  0
  3 19  4  0
  3 25  4  0
  4 23  4  0
  4 27  1  0
  4 30  4  0
  5 17  1  0
  6  8  1  0
  6 29  1  0
  7 24  4  0
  7 26  4  0
  8 28  1  0
  9 13  2  0
 10 18  1  0
 10 21  4  0
 10 30  4  0
 11 17  2  0
 12 18  1  0
 13 15  1  0
 14 24  1  0
 15 25  1  0
 16 28  2  0
 17 20  1  0
 19 24  4  0
 20 23  1  0
 21 22  4  0
 22 23  4  0
 25 26  4  0
 27 29  2  0
M  END
$$$$

 Created by Python create_sdf_string function

 30 33  0  0  0  0  0  0  0  0999 V2000
    8.3036    9.8571   18.4133 C   0  0  0  0  0  0  0  0  0  0  0  0
    8.3694    7.6612   22.6703 C   0  0  0  0  0  0  0  0  0  0  0  0
    8.4143    6.6863   16.2273 C   0  0  0  0  0  0  0  0  0  0  0  0
   10.7581    6.5674   21.7636 C   0  0  0  0  0  0  0  0  0  0  0  0
    8.4452    8.7960   19.2958 O   0  0  0  0  0  0  0  0  0  0  0  0
    8.7122    6.7842   24.8569 C   0  0  0  0  0  0  0  0  0  0  0  0
   10.3400    6.1726   14.3081 C   0  0  0  0  0  0  0  0  0  0  0  0
    7.4297    7.5873   24.8962 C   0  0  0  0  0  0  0  0  0  0  0  0
    8.1566   10.0536   16.0516 O   0  0  0  0  0  0  0  0  0  0  0  0
   12.4989    6.2074   20.1776 C   0  0  0  0  0  0  0  0  0  0  0  0
    6.9192    9.1053   20.9073 O   0  0  0  0  0  0  0  0  0  0  0  0
   14.3979    6.0729   18.7784 C   0  0  0  0  0  0  0  0  0  0  0  0
    8.6811    9.5354   16.9998 C   0  0  0  0  0  0  0  0  0  0  0  0
    9.2512    4.2713   13.7653 O   0  0  0  0  0  0  0  0  0  0  0  0
    9.6495    8.6317   16.8332 N   0  0  0  0  0  0  0  0  0  0  0  0
    6.2934    8.6988   23.1988 O   0  0  0  0  0  0  0  0  0  0  0  0
    7.9806    8.6543   20.5437 C   0  0  0  0  0  0  0  0  0  0  0  0
   13.7270    5.7144   19.8610 O   0  0  0  0  0  0  0  0  0  0  0  0
    8.3351    5.5235   15.4478 C   0  0  0  0  0  0  0  0  0  0  0  0
    8.7700    7.8434   21.3915 C   0  0  0  0  0  0  0  0  0  0  0  0
   11.7856    6.8851   19.2401 C   0  0  0  0  0  0  0  0  0  0  0  0
   10.5281    7.4276   19.5649 C   0  0  0  0  0  0  0  0  0  0  0  0
   10.0256    7.2907   20.8484 C   0  0  0  0  0  0  0  0  0  0  0  0
    9.3113    5.3049   14.4911 C   0  0  0  0  0  0  0  0  0  0  0  0
    9.4607    7.5646   16.0139 C   0  0  0  0  0  0  0  0  0  0  0  0
   10.4192    7.3157   15.0955 C   0  0  0  0  0  0  0  0  0  0  0  0
   10.2489    6.4227   23.0218 N   0  0  0  0  0  0  0  0  0  0  0  0
    7.2472    8.0746   23.5050 C   0  0  0  0  0  0  0  0  0  0  0  0
    9.2051    6.9101   23.4604 C   0  0  0  0  0  0  0  0  0  0  0  0
   11.9646    6.0299   21.4251 C   0  0  0  0  0  0  0  0  0  0  0  0
  1  5  1  0
  1 13  1  0
  2 20  2  0
  2 28  1  0
  2 29  1  0
  3 19  4  0
  3 25  4  0
  4 23  4  0
  4 27  1  0
  4 30  4  0
  5 17  1  0
  6  8  1  0
  6 29  1  0
  7 24  4  0
  7 26  4  0
  8 28  1  0
  9 13  2  0
 10 18  1  0
 10 21  4  0
 10 30  4  0
 11 17  2  0
 12 18  1  0
 13 15  1  0
 14 24  1  0
 15 25  1  0
 16 28  2  0
 17 20  1  0
 19 24  4  0
 20 23  1  0
 21 22  4  0
 22 23  4  0
 25 26  4  0
 27 29  2  0
M  END
$$$$

 Created by Python create_sdf_string function

 30 33  0  0  0  0  0  0  0  0999 V2000
    8.3036    9.8571   18.4133 C   0  0  0  0  0  0  0  0  0  0  0  0
    8.3694    7.6612   22.6703 C   0  0  0  0  0  0  0  0  0  0  0  0
    8.4143    6.6863   16.2273 C   0  0  0  0  0  0  0  0  0  0  0  0
   10.7581    6.5674   21.7636 C   0  0  0  0  0  0  0  0  0  0  0  0
    8.4452    8.7960   19.2958 O   0  0  0  0  0  0  0  0  0  0  0  0
    8.7122    6.7842   24.8569 C   0  0  0  0  0  0  0  0  0  0  0  0
   10.3400    6.1726   14.3081 C   0  0  0  0  0  0  0  0  0  0  0  0
    7.4297    7.5873   24.8962 C   0  0  0  0  0  0  0  0  0  0  0  0
    8.1566   10.0536   16.0516 O   0  0  0  0  0  0  0  0  0  0  0  0
   12.4989    6.2074   20.1776 C   0  0  0  0  0  0  0  0  0  0  0  0
    6.9192    9.1053   20.9073 O   0  0  0  0  0  0  0  0  0  0  0  0
   14.3979    6.0729   18.7784 C   0  0  0  0  0  0  0  0  0  0  0  0
    8.6811    9.5354   16.9998 C   0  0  0  0  0  0  0  0  0  0  0  0
    9.2512    4.2713   13.7653 O   0  0  0  0  0  0  0  0  0  0  0  0
    9.6495    8.6317   16.8332 N   0  0  0  0  0  0  0  0  0  0  0  0
    6.2934    8.6988   23.1988 O   0  0  0  0  0  0  0  0  0  0  0  0
    7.9806    8.6543   20.5437 C   0  0  0  0  0  0  0  0  0  0  0  0
   13.7270    5.7144   19.8610 O   0  0  0  0  0  0  0  0  0  0  0  0
    8.3351    5.5235   15.4478 C   0  0  0  0  0  0  0  0  0  0  0  0
    8.7700    7.8434   21.3915 C   0  0  0  0  0  0  0  0  0  0  0  0
   11.7856    6.8851   19.2401 C   0  0  0  0  0  0  0  0  0  0  0  0
   10.5281    7.4276   19.5649 C   0  0  0  0  0  0  0  0  0  0  0  0
   10.0256    7.2907   20.8484 C   0  0  0  0  0  0  0  0  0  0  0  0
    9.3113    5.3049   14.4911 C   0  0  0  0  0  0  0  0  0  0  0  0
    9.4607    7.5646   16.0139 C   0  0  0  0  0  0  0  0  0  0  0  0
   10.4192    7.3157   15.0955 C   0  0  0  0  0  0  0  0  0  0  0  0
   10.2489    6.4227   23.0218 N   0  0  0  0  0  0  0  0  0  0  0  0
    7.2472    8.0746   23.5050 C   0  0  0  0  0  0  0  0  0  0  0  0
    9.2051    6.9101   23.4604 C   0  0  0  0  0  0  0  0  0  0  0  0
   11.9646    6.0299   21.4251 C   0  0  0  0  0  0  0  0  0  0  0  0
  1  5  1  0
  1 13  1  0
  2 20  2  0
  2 28  1  0
  2 29  1  0
  3 19  4  0
  3 25  4  0
  4 23  4  0
  4 27  1  0
  4 30  4  0
  5 17  1  0
  6  8  1  0
  6 29  1  0
  7 24  4  0
  7 26  4  0
  8 28  1  0
  9 13  2  0
 10 18  1  0
 10 21  4  0
 10 30  4  0
 11 17  2  0
 12 18  1  0
 13 15  1  0
 14 24  1  0
 15 25  1  0
 16 28  2  0
 17 20  1  0
 19 24  4  0
 20 23  1  0
 21 22  4  0
 22 23  4  0
 25 26  4  0
 27 29  2  0
M  END
$$$$

 Created by Python create_sdf_string function

 30 33  0  0  0  0  0  0  0  0999 V2000
    8.3036    9.8571   18.4133 C   0  0  0  0  0  0  0  0  0  0  0  0
    8.3694    7.6612   22.6703 C   0  0  0  0  0  0  0  0  0  0  0  0
    8.4143    6.6863   16.2273 C   0  0  0  0  0  0  0  0  0  0  0  0
   10.7581    6.5674   21.7636 C   0  0  0  0  0  0  0  0  0  0  0  0
    8.4452    8.7960   19.2958 O   0  0  0  0  0  0  0  0  0  0  0  0
    8.7122    6.7842   24.8569 C   0  0  0  0  0  0  0  0  0  0  0  0
   10.3400    6.1726   14.3081 C   0  0  0  0  0  0  0  0  0  0  0  0
    7.4297    7.5873   24.8962 C   0  0  0  0  0  0  0  0  0  0  0  0
    8.1566   10.0536   16.0516 O   0  0  0  0  0  0  0  0  0  0  0  0
   12.4989    6.2074   20.1776 C   0  0  0  0  0  0  0  0  0  0  0  0
    6.9192    9.1053   20.9073 O   0  0  0  0  0  0  0  0  0  0  0  0
   14.3979    6.0729   18.7784 C   0  0  0  0  0  0  0  0  0  0  0  0
    8.6811    9.5354   16.9998 C   0  0  0  0  0  0  0  0  0  0  0  0
    9.2512    4.2713   13.7653 O   0  0  0  0  0  0  0  0  0  0  0  0
    9.6495    8.6317   16.8332 N   0  0  0  0  0  0  0  0  0  0  0  0
    6.2934    8.6988   23.1988 O   0  0  0  0  0  0  0  0  0  0  0  0
    7.9806    8.6543   20.5437 C   0  0  0  0  0  0  0  0  0  0  0  0
   13.7270    5.7144   19.8610 O   0  0  0  0  0  0  0  0  0  0  0  0
    8.3351    5.5235   15.4478 C   0  0  0  0  0  0  0  0  0  0  0  0
    8.7700    7.8434   21.3915 C   0  0  0  0  0  0  0  0  0  0  0  0
   11.7856    6.8851   19.2401 C   0  0  0  0  0  0  0  0  0  0  0  0
   10.5281    7.4276   19.5649 C   0  0  0  0  0  0  0  0  0  0  0  0
   10.0256    7.2907   20.8484 C   0  0  0  0  0  0  0  0  0  0  0  0
    9.3113    5.3049   14.4911 C   0  0  0  0  0  0  0  0  0  0  0  0
    9.4607    7.5646   16.0139 C   0  0  0  0  0  0  0  0  0  0  0  0
   10.4192    7.3157   15.0955 C   0  0  0  0  0  0  0  0  0  0  0  0
   10.2489    6.4227   23.0218 N   0  0  0  0  0  0  0  0  0  0  0  0
    7.2472    8.0746   23.5050 C   0  0  0  0  0  0  0  0  0  0  0  0
    9.2051    6.9101   23.4604 C   0  0  0  0  0  0  0  0  0  0  0  0
   11.9646    6.0299   21.4251 C   0  0  0  0  0  0  0  0  0  0  0  0
  1  5  1  0
  1 13  1  0
  2 20  2  0
  2 28  1  0
  2 29  1  0
  3 19  4  0
  3 25  4  0
  4 23  4  0
  4 27  1  0
  4 30  4  0
  5 17  1  0
  6  8  1  0
  6 29  1  0
  7 24  4  0
  7 26  4  0
  8 28  1  0
  9 13  2  0
 10 18  1  0
 10 21  4  0
 10 30  4  0
 11 17  2  0
 12 18  1  0
 13 15  1  0
 14 24  1  0
 15 25  1  0
 16 28  2  0
 17 20  1  0
 19 24  4  0
 20 23  1  0
 21 22  4  0
 22 23  4  0
 25 26  4  0
 27 29  2  0
M  END
$$$$

 Created by Python create_sdf_string function

 30 33  0  0  0  0  0  0  0  0999 V2000
    8.3036    9.8571   18.4133 C   0  0  0  0  0  0  0  0  0  0  0  0
    8.3694    7.6612   22.6703 C   0  0  0  0  0  0  0  0  0  0  0  0
    8.4143    6.6863   16.2273 C   0  0  0  0  0  0  0  0  0  0  0  0
   10.7581    6.5674   21.7636 C   0  0  0  0  0  0  0  0  0  0  0  0
    8.4452    8.7960   19.2958 O   0  0  0  0  0  0  0  0  0  0  0  0
    8.7122    6.7842   24.8569 C   0  0  0  0  0  0  0  0  0  0  0  0
   10.3400    6.1726   14.3081 C   0  0  0  0  0  0  0  0  0  0  0  0
    7.4297    7.5873   24.8962 C   0  0  0  0  0  0  0  0  0  0  0  0
    8.1566   10.0536   16.0516 O   0  0  0  0  0  0  0  0  0  0  0  0
   12.4989    6.2074   20.1776 C   0  0  0  0  0  0  0  0  0  0  0  0
    6.9192    9.1053   20.9073 O   0  0  0  0  0  0  0  0  0  0  0  0
   14.3979    6.0729   18.7784 C   0  0  0  0  0  0  0  0  0  0  0  0
    8.6811    9.5354   16.9998 C   0  0  0  0  0  0  0  0  0  0  0  0
    9.2512    4.2713   13.7653 O   0  0  0  0  0  0  0  0  0  0  0  0
    9.6495    8.6317   16.8332 N   0  0  0  0  0  0  0  0  0  0  0  0
    6.2934    8.6988   23.1988 O   0  0  0  0  0  0  0  0  0  0  0  0
    7.9806    8.6543   20.5437 C   0  0  0  0  0  0  0  0  0  0  0  0
   13.7270    5.7144   19.8610 O   0  0  0  0  0  0  0  0  0  0  0  0
    8.3351    5.5235   15.4478 C   0  0  0  0  0  0  0  0  0  0  0  0
    8.7700    7.8434   21.3915 C   0  0  0  0  0  0  0  0  0  0  0  0
   11.7856    6.8851   19.2401 C   0  0  0  0  0  0  0  0  0  0  0  0
   10.5281    7.4276   19.5649 C   0  0  0  0  0  0  0  0  0  0  0  0
   10.0256    7.2907   20.8484 C   0  0  0  0  0  0  0  0  0  0  0  0
    9.3113    5.3049   14.4911 C   0  0  0  0  0  0  0  0  0  0  0  0
    9.4607    7.5646   16.0139 C   0  0  0  0  0  0  0  0  0  0  0  0
   10.4192    7.3157   15.0955 C   0  0  0  0  0  0  0  0  0  0  0  0
   10.2489    6.4227   23.0218 N   0  0  0  0  0  0  0  0  0  0  0  0
    7.2472    8.0746   23.5050 C   0  0  0  0  0  0  0  0  0  0  0  0
    9.2051    6.9101   23.4604 C   0  0  0  0  0  0  0  0  0  0  0  0
   11.9646    6.0299   21.4251 C   0  0  0  0  0  0  0  0  0  0  0  0
  1  5  1  0
  1 13  1  0
  2 20  2  0
  2 28  1  0
  2 29  1  0
  3 19  4  0
  3 25  4  0
  4 23  4  0
  4 27  1  0
  4 30  4  0
  5 17  1  0
  6  8  1  0
  6 29  1  0
  7 24  4  0
  7 26  4  0
  8 28  1  0
  9 13  2  0
 10 18  1  0
 10 21  4  0
 10 30  4  0
 11 17  2  0
 12 18  1  0
 13 15  1  0
 14 24  1  0
 15 25  1  0
 16 28  2  0
 17 20  1  0
 19 24  4  0
 20 23  1  0
 21 22  4  0
 22 23  4  0
 25 26  4  0
 27 29  2  0
M  END
$$$$

 Created by Python create_sdf_string function

 30 33  0  0  0  0  0  0  0  0999 V2000
    8.3036    9.8571   18.4133 C   0  0  0  0  0  0  0  0  0  0  0  0
    8.3694    7.6612   22.6703 C   0  0  0  0  0  0  0  0  0  0  0  0
    8.4143    6.6863   16.2273 C   0  0  0  0  0  0  0  0  0  0  0  0
   10.7581    6.5674   21.7636 C   0  0  0  0  0  0  0  0  0  0  0  0
    8.4452    8.7960   19.2958 O   0  0  0  0  0  0  0  0  0  0  0  0
    8.7122    6.7842   24.8569 C   0  0  0  0  0  0  0  0  0  0  0  0
   10.3400    6.1726   14.3081 C   0  0  0  0  0  0  0  0  0  0  0  0
    7.4297    7.5873   24.8962 C   0  0  0  0  0  0  0  0  0  0  0  0
    8.1566   10.0536   16.0516 O   0  0  0  0  0  0  0  0  0  0  0  0
   12.4989    6.2074   20.1776 C   0  0  0  0  0  0  0  0  0  0  0  0
    6.9192    9.1053   20.9073 O   0  0  0  0  0  0  0  0  0  0  0  0
   14.3979    6.0729   18.7784 C   0  0  0  0  0  0  0  0  0  0  0  0
    8.6811    9.5354   16.9998 C   0  0  0  0  0  0  0  0  0  0  0  0
    9.2512    4.2713   13.7653 O   0  0  0  0  0  0  0  0  0  0  0  0
    9.6495    8.6317   16.8332 N   0  0  0  0  0  0  0  0  0  0  0  0
    6.2934    8.6988   23.1988 O   0  0  0  0  0  0  0  0  0  0  0  0
    7.9806    8.6543   20.5437 C   0  0  0  0  0  0  0  0  0  0  0  0
   13.7270    5.7144   19.8610 O   0  0  0  0  0  0  0  0  0  0  0  0
    8.3351    5.5235   15.4478 C   0  0  0  0  0  0  0  0  0  0  0  0
    8.7700    7.8434   21.3915 C   0  0  0  0  0  0  0  0  0  0  0  0
   11.7856    6.8851   19.2401 C   0  0  0  0  0  0  0  0  0  0  0  0
   10.5281    7.4276   19.5649 C   0  0  0  0  0  0  0  0  0  0  0  0
   10.0256    7.2907   20.8484 C   0  0  0  0  0  0  0  0  0  0  0  0
    9.3113    5.3049   14.4911 C   0  0  0  0  0  0  0  0  0  0  0  0
    9.4607    7.5646   16.0139 C   0  0  0  0  0  0  0  0  0  0  0  0
   10.4192    7.3157   15.0955 C   0  0  0  0  0  0  0  0  0  0  0  0
   10.2489    6.4227   23.0218 N   0  0  0  0  0  0  0  0  0  0  0  0
    7.2472    8.0746   23.5050 C   0  0  0  0  0  0  0  0  0  0  0  0
    9.2051    6.9101   23.4604 C   0  0  0  0  0  0  0  0  0  0  0  0
   11.9646    6.0299   21.4251 C   0  0  0  0  0  0  0  0  0  0  0  0
  1  5  1  0
  1 13  1  0
  2 20  2  0
  2 28  1  0
  2 29  1  0
  3 19  4  0
  3 25  4  0
  4 23  4  0
  4 27  1  0
  4 30  4  0
  5 17  1  0
  6  8  1  0
  6 29  1  0
  7 24  4  0
  7 26  4  0
  8 28  1  0
  9 13  2  0
 10 18  1  0
 10 21  4  0
 10 30  4  0
 11 17  2  0
 12 18  1  0
 13 15  1  0
 14 24  1  0
 15 25  1  0
 16 28  2  0
 17 20  1  0
 19 24  4  0
 20 23  1  0
 21 22  4  0
 22 23  4  0
 25 26  4  0
 27 29  2  0
M  END
$$$$

 Created by Python create_sdf_string function

 30 33  0  0  0  0  0  0  0  0999 V2000
    8.3036    9.8571   18.4133 C   0  0  0  0  0  0  0  0  0  0  0  0
    8.3694    7.6612   22.6703 C   0  0  0  0  0  0  0  0  0  0  0  0
    8.4143    6.6863   16.2273 C   0  0  0  0  0  0  0  0  0  0  0  0
   10.7581    6.5674   21.7636 C   0  0  0  0  0  0  0  0  0  0  0  0
    8.4452    8.7960   19.2958 O   0  0  0  0  0  0  0  0  0  0  0  0
    8.7122    6.7842   24.8569 C   0  0  0  0  0  0  0  0  0  0  0  0
   10.3400    6.1726   14.3081 C   0  0  0  0  0  0  0  0  0  0  0  0
    7.4297    7.5873   24.8962 C   0  0  0  0  0  0  0  0  0  0  0  0
    8.1566   10.0536   16.0516 O   0  0  0  0  0  0  0  0  0  0  0  0
   12.4989    6.2074   20.1776 C   0  0  0  0  0  0  0  0  0  0  0  0
    6.9192    9.1053   20.9073 O   0  0  0  0  0  0  0  0  0  0  0  0
   14.3979    6.0729   18.7784 C   0  0  0  0  0  0  0  0  0  0  0  0
    8.6811    9.5354   16.9998 C   0  0  0  0  0  0  0  0  0  0  0  0
    9.2512    4.2713   13.7653 O   0  0  0  0  0  0  0  0  0  0  0  0
    9.6495    8.6317   16.8332 N   0  0  0  0  0  0  0  0  0  0  0  0
    6.2934    8.6988   23.1988 O   0  0  0  0  0  0  0  0  0  0  0  0
    7.9806    8.6543   20.5437 C   0  0  0  0  0  0  0  0  0  0  0  0
   13.7270    5.7144   19.8610 O   0  0  0  0  0  0  0  0  0  0  0  0
    8.3351    5.5235   15.4478 C   0  0  0  0  0  0  0  0  0  0  0  0
    8.7700    7.8434   21.3915 C   0  0  0  0  0  0  0  0  0  0  0  0
   11.7856    6.8851   19.2401 C   0  0  0  0  0  0  0  0  0  0  0  0
   10.5281    7.4276   19.5649 C   0  0  0  0  0  0  0  0  0  0  0  0
   10.0256    7.2907   20.8484 C   0  0  0  0  0  0  0  0  0  0  0  0
    9.3113    5.3049   14.4911 C   0  0  0  0  0  0  0  0  0  0  0  0
    9.4607    7.5646   16.0139 C   0  0  0  0  0  0  0  0  0  0  0  0
   10.4192    7.3157   15.0955 C   0  0  0  0  0  0  0  0  0  0  0  0
   10.2489    6.4227   23.0218 N   0  0  0  0  0  0  0  0  0  0  0  0
    7.2472    8.0746   23.5050 C   0  0  0  0  0  0  0  0  0  0  0  0
    9.2051    6.9101   23.4604 C   0  0  0  0  0  0  0  0  0  0  0  0
   11.9646    6.0299   21.4251 C   0  0  0  0  0  0  0  0  0  0  0  0
  1  5  1  0
  1 13  1  0
  2 20  2  0
  2 28  1  0
  2 29  1  0
  3 19  4  0
  3 25  4  0
  4 23  4  0
  4 27  1  0
  4 30  4  0
  5 17  1  0
  6  8  1  0
  6 29  1  0
  7 24  4  0
  7 26  4  0
  8 28  1  0
  9 13  2  0
 10 18  1  0
 10 21  4  0
 10 30  4  0
 11 17  2  0
 12 18  1  0
 13 15  1  0
 14 24  1  0
 15 25  1  0
 16 28  2  0
 17 20  1  0
 19 24  4  0
 20 23  1  0
 21 22  4  0
 22 23  4  0
 25 26  4  0
 27 29  2  0
M  END
$$$$

 Created by Python create_sdf_string function

 30 33  0  0  0  0  0  0  0  0999 V2000
    8.3036    9.8571   18.4133 C   0  0  0  0  0  0  0  0  0  0  0  0
    8.3694    7.6612   22.6703 C   0  0  0  0  0  0  0  0  0  0  0  0
    8.4143    6.6863   16.2273 C   0  0  0  0  0  0  0  0  0  0  0  0
   10.7581    6.5674   21.7636 C   0  0  0  0  0  0  0  0  0  0  0  0
    8.4452    8.7960   19.2958 O   0  0  0  0  0  0  0  0  0  0  0  0
    8.7122    6.7842   24.8569 C   0  0  0  0  0  0  0  0  0  0  0  0
   10.3400    6.1726   14.3081 C   0  0  0  0  0  0  0  0  0  0  0  0
    7.4297    7.5873   24.8962 C   0  0  0  0  0  0  0  0  0  0  0  0
    8.1566   10.0536   16.0516 O   0  0  0  0  0  0  0  0  0  0  0  0
   12.4989    6.2074   20.1776 C   0  0  0  0  0  0  0  0  0  0  0  0
    6.9192    9.1053   20.9073 O   0  0  0  0  0  0  0  0  0  0  0  0
   14.3979    6.0729   18.7784 C   0  0  0  0  0  0  0  0  0  0  0  0
    8.6811    9.5354   16.9998 C   0  0  0  0  0  0  0  0  0  0  0  0
    9.2512    4.2713   13.7653 O   0  0  0  0  0  0  0  0  0  0  0  0
    9.6495    8.6317   16.8332 N   0  0  0  0  0  0  0  0  0  0  0  0
    6.2934    8.6988   23.1988 O   0  0  0  0  0  0  0  0  0  0  0  0
    7.9806    8.6543   20.5437 C   0  0  0  0  0  0  0  0  0  0  0  0
   13.7270    5.7144   19.8610 O   0  0  0  0  0  0  0  0  0  0  0  0
    8.3351    5.5235   15.4478 C   0  0  0  0  0  0  0  0  0  0  0  0
    8.7700    7.8434   21.3915 C   0  0  0  0  0  0  0  0  0  0  0  0
   11.7856    6.8851   19.2401 C   0  0  0  0  0  0  0  0  0  0  0  0
   10.5281    7.4276   19.5649 C   0  0  0  0  0  0  0  0  0  0  0  0
   10.0256    7.2907   20.8484 C   0  0  0  0  0  0  0  0  0  0  0  0
    9.3113    5.3049   14.4911 C   0  0  0  0  0  0  0  0  0  0  0  0
    9.4607    7.5646   16.0139 C   0  0  0  0  0  0  0  0  0  0  0  0
   10.4192    7.3157   15.0955 C   0  0  0  0  0  0  0  0  0  0  0  0
   10.2489    6.4227   23.0218 N   0  0  0  0  0  0  0  0  0  0  0  0
    7.2472    8.0746   23.5050 C   0  0  0  0  0  0  0  0  0  0  0  0
    9.2051    6.9101   23.4604 C   0  0  0  0  0  0  0  0  0  0  0  0
   11.9646    6.0299   21.4251 C   0  0  0  0  0  0  0  0  0  0  0  0
  1  5  1  0
  1 13  1  0
  2 20  2  0
  2 28  1  0
  2 29  1  0
  3 19  4  0
  3 25  4  0
  4 23  4  0
  4 27  1  0
  4 30  4  0
  5 17  1  0
  6  8  1  0
  6 29  1  0
  7 24  4  0
  7 26  4  0
  8 28  1  0
  9 13  2  0
 10 18  1  0
 10 21  4  0
 10 30  4  0
 11 17  2  0
 12 18  1  0
 13 15  1  0
 14 24  1  0
 15 25  1  0
 16 28  2  0
 17 20  1  0
 19 24  4  0
 20 23  1  0
 21 22  4  0
 22 23  4  0
 25 26  4  0
 27 29  2  0
M  END
$$$$

 Created by Python create_sdf_string function

 30 33  0  0  0  0  0  0  0  0999 V2000
    8.3036    9.8571   18.4133 C   0  0  0  0  0  0  0  0  0  0  0  0
    8.3694    7.6612   22.6703 C   0  0  0  0  0  0  0  0  0  0  0  0
    8.4143    6.6863   16.2273 C   0  0  0  0  0  0  0  0  0  0  0  0
   10.7581    6.5674   21.7636 C   0  0  0  0  0  0  0  0  0  0  0  0
    8.4452    8.7960   19.2958 O   0  0  0  0  0  0  0  0  0  0  0  0
    8.7122    6.7842   24.8569 C   0  0  0  0  0  0  0  0  0  0  0  0
   10.3400    6.1726   14.3081 C   0  0  0  0  0  0  0  0  0  0  0  0
    7.4297    7.5873   24.8962 C   0  0  0  0  0  0  0  0  0  0  0  0
    8.1566   10.0536   16.0516 O   0  0  0  0  0  0  0  0  0  0  0  0
   12.4989    6.2074   20.1776 C   0  0  0  0  0  0  0  0  0  0  0  0
    6.9192    9.1053   20.9073 O   0  0  0  0  0  0  0  0  0  0  0  0
   14.3979    6.0729   18.7784 C   0  0  0  0  0  0  0  0  0  0  0  0
    8.6811    9.5354   16.9998 C   0  0  0  0  0  0  0  0  0  0  0  0
    9.2512    4.2713   13.7653 O   0  0  0  0  0  0  0  0  0  0  0  0
    9.6495    8.6317   16.8332 N   0  0  0  0  0  0  0  0  0  0  0  0
    6.2934    8.6988   23.1988 O   0  0  0  0  0  0  0  0  0  0  0  0
    7.9806    8.6543   20.5437 C   0  0  0  0  0  0  0  0  0  0  0  0
   13.7270    5.7144   19.8610 O   0  0  0  0  0  0  0  0  0  0  0  0
    8.3351    5.5235   15.4478 C   0  0  0  0  0  0  0  0  0  0  0  0
    8.7700    7.8434   21.3915 C   0  0  0  0  0  0  0  0  0  0  0  0
   11.7856    6.8851   19.2401 C   0  0  0  0  0  0  0  0  0  0  0  0
   10.5281    7.4276   19.5649 C   0  0  0  0  0  0  0  0  0  0  0  0
   10.0256    7.2907   20.8484 C   0  0  0  0  0  0  0  0  0  0  0  0
    9.3113    5.3049   14.4911 C   0  0  0  0  0  0  0  0  0  0  0  0
    9.4607    7.5646   16.0139 C   0  0  0  0  0  0  0  0  0  0  0  0
   10.4192    7.3157   15.0955 C   0  0  0  0  0  0  0  0  0  0  0  0
   10.2489    6.4227   23.0218 N   0  0  0  0  0  0  0  0  0  0  0  0
    7.2472    8.0746   23.5050 C   0  0  0  0  0  0  0  0  0  0  0  0
    9.2051    6.9101   23.4604 C   0  0  0  0  0  0  0  0  0  0  0  0
   11.9646    6.0299   21.4251 C   0  0  0  0  0  0  0  0  0  0  0  0
  1  5  1  0
  1 13  1  0
  2 20  2  0
  2 28  1  0
  2 29  1  0
  3 19  4  0
  3 25  4  0
  4 23  4  0
  4 27  1  0
  4 30  4  0
  5 17  1  0
  6  8  1  0
  6 29  1  0
  7 24  4  0
  7 26  4  0
  8 28  1  0
  9 13  2  0
 10 18  1  0
 10 21  4  0
 10 30  4  0
 11 17  2  0
 12 18  1  0
 13 15  1  0
 14 24  1  0
 15 25  1  0
 16 28  2  0
 17 20  1  0
 19 24  4  0
 20 23  1  0
 21 22  4  0
 22 23  4  0
 25 26  4  0
 27 29  2  0
M  END
$$$$

 Created by Python create_sdf_string function

 30 33  0  0  0  0  0  0  0  0999 V2000
    8.3036    9.8571   18.4133 C   0  0  0  0  0  0  0  0  0  0  0  0
    8.3694    7.6612   22.6703 C   0  0  0  0  0  0  0  0  0  0  0  0
    8.4143    6.6863   16.2273 C   0  0  0  0  0  0  0  0  0  0  0  0
   10.7581    6.5674   21.7636 C   0  0  0  0  0  0  0  0  0  0  0  0
    8.4452    8.7960   19.2958 O   0  0  0  0  0  0  0  0  0  0  0  0
    8.7122    6.7842   24.8569 C   0  0  0  0  0  0  0  0  0  0  0  0
   10.3400    6.1726   14.3081 C   0  0  0  0  0  0  0  0  0  0  0  0
    7.4297    7.5873   24.8962 C   0  0  0  0  0  0  0  0  0  0  0  0
    8.1566   10.0536   16.0516 O   0  0  0  0  0  0  0  0  0  0  0  0
   12.4989    6.2074   20.1776 C   0  0  0  0  0  0  0  0  0  0  0  0
    6.9192    9.1053   20.9073 O   0  0  0  0  0  0  0  0  0  0  0  0
   14.3979    6.0729   18.7784 C   0  0  0  0  0  0  0  0  0  0  0  0
    8.6811    9.5354   16.9998 C   0  0  0  0  0  0  0  0  0  0  0  0
    9.2512    4.2713   13.7653 O   0  0  0  0  0  0  0  0  0  0  0  0
    9.6495    8.6317   16.8332 N   0  0  0  0  0  0  0  0  0  0  0  0
    6.2934    8.6988   23.1988 O   0  0  0  0  0  0  0  0  0  0  0  0
    7.9806    8.6543   20.5437 C   0  0  0  0  0  0  0  0  0  0  0  0
   13.7270    5.7144   19.8610 O   0  0  0  0  0  0  0  0  0  0  0  0
    8.3351    5.5235   15.4478 C   0  0  0  0  0  0  0  0  0  0  0  0
    8.7700    7.8434   21.3915 C   0  0  0  0  0  0  0  0  0  0  0  0
   11.7856    6.8851   19.2401 C   0  0  0  0  0  0  0  0  0  0  0  0
   10.5281    7.4276   19.5649 C   0  0  0  0  0  0  0  0  0  0  0  0
   10.0256    7.2907   20.8484 C   0  0  0  0  0  0  0  0  0  0  0  0
    9.3113    5.3049   14.4911 C   0  0  0  0  0  0  0  0  0  0  0  0
    9.4607    7.5646   16.0139 C   0  0  0  0  0  0  0  0  0  0  0  0
   10.4192    7.3157   15.0955 C   0  0  0  0  0  0  0  0  0  0  0  0
   10.2489    6.4227   23.0218 N   0  0  0  0  0  0  0  0  0  0  0  0
    7.2472    8.0746   23.5050 C   0  0  0  0  0  0  0  0  0  0  0  0
    9.2051    6.9101   23.4604 C   0  0  0  0  0  0  0  0  0  0  0  0
   11.9646    6.0299   21.4251 C   0  0  0  0  0  0  0  0  0  0  0  0
  1  5  1  0
  1 13  1  0
  2 20  2  0
  2 28  1  0
  2 29  1  0
  3 19  4  0
  3 25  4  0
  4 23  4  0
  4 27  1  0
  4 30  4  0
  5 17  1  0
  6  8  1  0
  6 29  1  0
  7 24  4  0
  7 26  4  0
  8 28  1  0
  9 13  2  0
 10 18  1  0
 10 21  4  0
 10 30  4  0
 11 17  2  0
 12 18  1  0
 13 15  1  0
 14 24  1  0
 15 25  1  0
 16 28  2  0
 17 20  1  0
 19 24  4  0
 20 23  1  0
 21 22  4  0
 22 23  4  0
 25 26  4  0
 27 29  2  0
M  END
$$$$

 Created by Python create_sdf_string function

 30 33  0  0  0  0  0  0  0  0999 V2000
    8.3036    9.8571   18.4133 C   0  0  0  0  0  0  0  0  0  0  0  0
    8.3694    7.6612   22.6703 C   0  0  0  0  0  0  0  0  0  0  0  0
    8.4143    6.6863   16.2273 C   0  0  0  0  0  0  0  0  0  0  0  0
   10.7581    6.5674   21.7636 C   0  0  0  0  0  0  0  0  0  0  0  0
    8.4452    8.7960   19.2958 O   0  0  0  0  0  0  0  0  0  0  0  0
    8.7122    6.7842   24.8569 C   0  0  0  0  0  0  0  0  0  0  0  0
   10.3400    6.1726   14.3081 C   0  0  0  0  0  0  0  0  0  0  0  0
    7.4297    7.5873   24.8962 C   0  0  0  0  0  0  0  0  0  0  0  0
    8.1566   10.0536   16.0516 O   0  0  0  0  0  0  0  0  0  0  0  0
   12.4989    6.2074   20.1776 C   0  0  0  0  0  0  0  0  0  0  0  0
    6.9192    9.1053   20.9073 O   0  0  0  0  0  0  0  0  0  0  0  0
   14.3979    6.0729   18.7784 C   0  0  0  0  0  0  0  0  0  0  0  0
    8.6811    9.5354   16.9998 C   0  0  0  0  0  0  0  0  0  0  0  0
    9.2512    4.2713   13.7653 O   0  0  0  0  0  0  0  0  0  0  0  0
    9.6495    8.6317   16.8332 N   0  0  0  0  0  0  0  0  0  0  0  0
    6.2934    8.6988   23.1988 O   0  0  0  0  0  0  0  0  0  0  0  0
    7.9806    8.6543   20.5437 C   0  0  0  0  0  0  0  0  0  0  0  0
   13.7270    5.7144   19.8610 O   0  0  0  0  0  0  0  0  0  0  0  0
    8.3351    5.5235   15.4478 C   0  0  0  0  0  0  0  0  0  0  0  0
    8.7700    7.8434   21.3915 C   0  0  0  0  0  0  0  0  0  0  0  0
   11.7856    6.8851   19.2401 C   0  0  0  0  0  0  0  0  0  0  0  0
   10.5281    7.4276   19.5649 C   0  0  0  0  0  0  0  0  0  0  0  0
   10.0256    7.2907   20.8484 C   0  0  0  0  0  0  0  0  0  0  0  0
    9.3113    5.3049   14.4911 C   0  0  0  0  0  0  0  0  0  0  0  0
    9.4607    7.5646   16.0139 C   0  0  0  0  0  0  0  0  0  0  0  0
   10.4192    7.3157   15.0955 C   0  0  0  0  0  0  0  0  0  0  0  0
   10.2489    6.4227   23.0218 N   0  0  0  0  0  0  0  0  0  0  0  0
    7.2472    8.0746   23.5050 C   0  0  0  0  0  0  0  0  0  0  0  0
    9.2051    6.9101   23.4604 C   0  0  0  0  0  0  0  0  0  0  0  0
   11.9646    6.0299   21.4251 C   0  0  0  0  0  0  0  0  0  0  0  0
  1  5  1  0
  1 13  1  0
  2 20  2  0
  2 28  1  0
  2 29  1  0
  3 19  4  0
  3 25  4  0
  4 23  4  0
  4 27  1  0
  4 30  4  0
  5 17  1  0
  6  8  1  0
  6 29  1  0
  7 24  4  0
  7 26  4  0
  8 28  1  0
  9 13  2  0
 10 18  1  0
 10 21  4  0
 10 30  4  0
 11 17  2  0
 12 18  1  0
 13 15  1  0
 14 24  1  0
 15 25  1  0
 16 28  2  0
 17 20  1  0
 19 24  4  0
 20 23  1  0
 21 22  4  0
 22 23  4  0
 25 26  4  0
 27 29  2  0
M  END
$$$$

 Created by Python create_sdf_string function

 30 33  0  0  0  0  0  0  0  0999 V2000
    8.3036    9.8571   18.4133 C   0  0  0  0  0  0  0  0  0  0  0  0
    8.3694    7.6612   22.6703 C   0  0  0  0  0  0  0  0  0  0  0  0
    8.4143    6.6863   16.2273 C   0  0  0  0  0  0  0  0  0  0  0  0
   10.7581    6.5674   21.7636 C   0  0  0  0  0  0  0  0  0  0  0  0
    8.4452    8.7960   19.2958 O   0  0  0  0  0  0  0  0  0  0  0  0
    8.7122    6.7842   24.8569 C   0  0  0  0  0  0  0  0  0  0  0  0
   10.3400    6.1726   14.3081 C   0  0  0  0  0  0  0  0  0  0  0  0
    7.4297    7.5873   24.8962 C   0  0  0  0  0  0  0  0  0  0  0  0
    8.1566   10.0536   16.0516 O   0  0  0  0  0  0  0  0  0  0  0  0
   12.4989    6.2074   20.1776 C   0  0  0  0  0  0  0  0  0  0  0  0
    6.9192    9.1053   20.9073 O   0  0  0  0  0  0  0  0  0  0  0  0
   14.3979    6.0729   18.7784 C   0  0  0  0  0  0  0  0  0  0  0  0
    8.6811    9.5354   16.9998 C   0  0  0  0  0  0  0  0  0  0  0  0
    9.2512    4.2713   13.7653 O   0  0  0  0  0  0  0  0  0  0  0  0
    9.6495    8.6317   16.8332 N   0  0  0  0  0  0  0  0  0  0  0  0
    6.2934    8.6988   23.1988 O   0  0  0  0  0  0  0  0  0  0  0  0
    7.9806    8.6543   20.5437 C   0  0  0  0  0  0  0  0  0  0  0  0
   13.7270    5.7144   19.8610 O   0  0  0  0  0  0  0  0  0  0  0  0
    8.3351    5.5235   15.4478 C   0  0  0  0  0  0  0  0  0  0  0  0
    8.7700    7.8434   21.3915 C   0  0  0  0  0  0  0  0  0  0  0  0
   11.7856    6.8851   19.2401 C   0  0  0  0  0  0  0  0  0  0  0  0
   10.5281    7.4276   19.5649 C   0  0  0  0  0  0  0  0  0  0  0  0
   10.0256    7.2907   20.8484 C   0  0  0  0  0  0  0  0  0  0  0  0
    9.3113    5.3049   14.4911 C   0  0  0  0  0  0  0  0  0  0  0  0
    9.4607    7.5646   16.0139 C   0  0  0  0  0  0  0  0  0  0  0  0
   10.4192    7.3157   15.0955 C   0  0  0  0  0  0  0  0  0  0  0  0
   10.2489    6.4227   23.0218 N   0  0  0  0  0  0  0  0  0  0  0  0
    7.2472    8.0746   23.5050 C   0  0  0  0  0  0  0  0  0  0  0  0
    9.2051    6.9101   23.4604 C   0  0  0  0  0  0  0  0  0  0  0  0
   11.9646    6.0299   21.4251 C   0  0  0  0  0  0  0  0  0  0  0  0
  1  5  1  0
  1 13  1  0
  2 20  2  0
  2 28  1  0
  2 29  1  0
  3 19  4  0
  3 25  4  0
  4 23  4  0
  4 27  1  0
  4 30  4  0
  5 17  1  0
  6  8  1  0
  6 29  1  0
  7 24  4  0
  7 26  4  0
  8 28  1  0
  9 13  2  0
 10 18  1  0
 10 21  4  0
 10 30  4  0
 11 17  2  0
 12 18  1  0
 13 15  1  0
 14 24  1  0
 15 25  1  0
 16 28  2  0
 17 20  1  0
 19 24  4  0
 20 23  1  0
 21 22  4  0
 22 23  4  0
 25 26  4  0
 27 29  2  0
M  END
$$$$

 Created by Python create_sdf_string function

 30 33  0  0  0  0  0  0  0  0999 V2000
    8.3036    9.8571   18.4133 C   0  0  0  0  0  0  0  0  0  0  0  0
    8.3694    7.6612   22.6703 C   0  0  0  0  0  0  0  0  0  0  0  0
    8.4143    6.6863   16.2273 C   0  0  0  0  0  0  0  0  0  0  0  0
   10.7581    6.5674   21.7636 C   0  0  0  0  0  0  0  0  0  0  0  0
    8.4452    8.7960   19.2958 O   0  0  0  0  0  0  0  0  0  0  0  0
    8.7122    6.7842   24.8569 C   0  0  0  0  0  0  0  0  0  0  0  0
   10.3400    6.1726   14.3081 C   0  0  0  0  0  0  0  0  0  0  0  0
    7.4297    7.5873   24.8962 C   0  0  0  0  0  0  0  0  0  0  0  0
    8.1566   10.0536   16.0516 O   0  0  0  0  0  0  0  0  0  0  0  0
   12.4989    6.2074   20.1776 C   0  0  0  0  0  0  0  0  0  0  0  0
    6.9192    9.1053   20.9073 O   0  0  0  0  0  0  0  0  0  0  0  0
   14.3979    6.0729   18.7784 C   0  0  0  0  0  0  0  0  0  0  0  0
    8.6811    9.5354   16.9998 C   0  0  0  0  0  0  0  0  0  0  0  0
    9.2512    4.2713   13.7653 O   0  0  0  0  0  0  0  0  0  0  0  0
    9.6495    8.6317   16.8332 N   0  0  0  0  0  0  0  0  0  0  0  0
    6.2934    8.6988   23.1988 O   0  0  0  0  0  0  0  0  0  0  0  0
    7.9806    8.6543   20.5437 C   0  0  0  0  0  0  0  0  0  0  0  0
   13.7270    5.7144   19.8610 O   0  0  0  0  0  0  0  0  0  0  0  0
    8.3351    5.5235   15.4478 C   0  0  0  0  0  0  0  0  0  0  0  0
    8.7700    7.8434   21.3915 C   0  0  0  0  0  0  0  0  0  0  0  0
   11.7856    6.8851   19.2401 C   0  0  0  0  0  0  0  0  0  0  0  0
   10.5281    7.4276   19.5649 C   0  0  0  0  0  0  0  0  0  0  0  0
   10.0256    7.2907   20.8484 C   0  0  0  0  0  0  0  0  0  0  0  0
    9.3113    5.3049   14.4911 C   0  0  0  0  0  0  0  0  0  0  0  0
    9.4607    7.5646   16.0139 C   0  0  0  0  0  0  0  0  0  0  0  0
   10.4192    7.3157   15.0955 C   0  0  0  0  0  0  0  0  0  0  0  0
   10.2489    6.4227   23.0218 N   0  0  0  0  0  0  0  0  0  0  0  0
    7.2472    8.0746   23.5050 C   0  0  0  0  0  0  0  0  0  0  0  0
    9.2051    6.9101   23.4604 C   0  0  0  0  0  0  0  0  0  0  0  0
   11.9646    6.0299   21.4251 C   0  0  0  0  0  0  0  0  0  0  0  0
  1  5  1  0
  1 13  1  0
  2 20  2  0
  2 28  1  0
  2 29  1  0
  3 19  4  0
  3 25  4  0
  4 23  4  0
  4 27  1  0
  4 30  4  0
  5 17  1  0
  6  8  1  0
  6 29  1  0
  7 24  4  0
  7 26  4  0
  8 28  1  0
  9 13  2  0
 10 18  1  0
 10 21  4  0
 10 30  4  0
 11 17  2  0
 12 18  1  0
 13 15  1  0
 14 24  1  0
 15 25  1  0
 16 28  2  0
 17 20  1  0
 19 24  4  0
 20 23  1  0
 21 22  4  0
 22 23  4  0
 25 26  4  0
 27 29  2  0
M  END
$$$$

 Created by Python create_sdf_string function

 30 33  0  0  0  0  0  0  0  0999 V2000
    8.3036    9.8571   18.4133 C   0  0  0  0  0  0  0  0  0  0  0  0
    8.3694    7.6612   22.6703 C   0  0  0  0  0  0  0  0  0  0  0  0
    8.4143    6.6863   16.2273 C   0  0  0  0  0  0  0  0  0  0  0  0
   10.7581    6.5674   21.7636 C   0  0  0  0  0  0  0  0  0  0  0  0
    8.4452    8.7960   19.2958 O   0  0  0  0  0  0  0  0  0  0  0  0
    8.7122    6.7842   24.8569 C   0  0  0  0  0  0  0  0  0  0  0  0
   10.3400    6.1726   14.3081 C   0  0  0  0  0  0  0  0  0  0  0  0
    7.4297    7.5873   24.8962 C   0  0  0  0  0  0  0  0  0  0  0  0
    8.1566   10.0536   16.0516 O   0  0  0  0  0  0  0  0  0  0  0  0
   12.4989    6.2074   20.1776 C   0  0  0  0  0  0  0  0  0  0  0  0
    6.9192    9.1053   20.9073 O   0  0  0  0  0  0  0  0  0  0  0  0
   14.3979    6.0729   18.7784 C   0  0  0  0  0  0  0  0  0  0  0  0
    8.6811    9.5354   16.9998 C   0  0  0  0  0  0  0  0  0  0  0  0
    9.2512    4.2713   13.7653 O   0  0  0  0  0  0  0  0  0  0  0  0
    9.6495    8.6317   16.8332 N   0  0  0  0  0  0  0  0  0  0  0  0
    6.2934    8.6988   23.1988 O   0  0  0  0  0  0  0  0  0  0  0  0
    7.9806    8.6543   20.5437 C   0  0  0  0  0  0  0  0  0  0  0  0
   13.7270    5.7144   19.8610 O   0  0  0  0  0  0  0  0  0  0  0  0
    8.3351    5.5235   15.4478 C   0  0  0  0  0  0  0  0  0  0  0  0
    8.7700    7.8434   21.3915 C   0  0  0  0  0  0  0  0  0  0  0  0
   11.7856    6.8851   19.2401 C   0  0  0  0  0  0  0  0  0  0  0  0
   10.5281    7.4276   19.5649 C   0  0  0  0  0  0  0  0  0  0  0  0
   10.0256    7.2907   20.8484 C   0  0  0  0  0  0  0  0  0  0  0  0
    9.3113    5.3049   14.4911 C   0  0  0  0  0  0  0  0  0  0  0  0
    9.4607    7.5646   16.0139 C   0  0  0  0  0  0  0  0  0  0  0  0
   10.4192    7.3157   15.0955 C   0  0  0  0  0  0  0  0  0  0  0  0
   10.2489    6.4227   23.0218 N   0  0  0  0  0  0  0  0  0  0  0  0
    7.2472    8.0746   23.5050 C   0  0  0  0  0  0  0  0  0  0  0  0
    9.2051    6.9101   23.4604 C   0  0  0  0  0  0  0  0  0  0  0  0
   11.9646    6.0299   21.4251 C   0  0  0  0  0  0  0  0  0  0  0  0
  1  5  1  0
  1 13  1  0
  2 20  2  0
  2 28  1  0
  2 29  1  0
  3 19  4  0
  3 25  4  0
  4 23  4  0
  4 27  1  0
  4 30  4  0
  5 17  1  0
  6  8  1  0
  6 29  1  0
  7 24  4  0
  7 26  4  0
  8 28  1  0
  9 13  2  0
 10 18  1  0
 10 21  4  0
 10 30  4  0
 11 17  2  0
 12 18  1  0
 13 15  1  0
 14 24  1  0
 15 25  1  0
 16 28  2  0
 17 20  1  0
 19 24  4  0
 20 23  1  0
 21 22  4  0
 22 23  4  0
 25 26  4  0
 27 29  2  0
M  END
$$$$

 Created by Python create_sdf_string function

 30 33  0  0  0  0  0  0  0  0999 V2000
    8.3036    9.8571   18.4133 C   0  0  0  0  0  0  0  0  0  0  0  0
    8.3694    7.6612   22.6703 C   0  0  0  0  0  0  0  0  0  0  0  0
    8.4143    6.6863   16.2273 C   0  0  0  0  0  0  0  0  0  0  0  0
   10.7581    6.5674   21.7636 C   0  0  0  0  0  0  0  0  0  0  0  0
    8.4452    8.7960   19.2958 O   0  0  0  0  0  0  0  0  0  0  0  0
    8.7122    6.7842   24.8569 C   0  0  0  0  0  0  0  0  0  0  0  0
   10.3400    6.1726   14.3081 C   0  0  0  0  0  0  0  0  0  0  0  0
    7.4297    7.5873   24.8962 C   0  0  0  0  0  0  0  0  0  0  0  0
    8.1566   10.0536   16.0516 O   0  0  0  0  0  0  0  0  0  0  0  0
   12.4989    6.2074   20.1776 C   0  0  0  0  0  0  0  0  0  0  0  0
    6.9192    9.1053   20.9073 O   0  0  0  0  0  0  0  0  0  0  0  0
   14.3979    6.0729   18.7784 C   0  0  0  0  0  0  0  0  0  0  0  0
    8.6811    9.5354   16.9998 C   0  0  0  0  0  0  0  0  0  0  0  0
    9.2512    4.2713   13.7653 O   0  0  0  0  0  0  0  0  0  0  0  0
    9.6495    8.6317   16.8332 N   0  0  0  0  0  0  0  0  0  0  0  0
    6.2934    8.6988   23.1988 O   0  0  0  0  0  0  0  0  0  0  0  0
    7.9806    8.6543   20.5437 C   0  0  0  0  0  0  0  0  0  0  0  0
   13.7270    5.7144   19.8610 O   0  0  0  0  0  0  0  0  0  0  0  0
    8.3351    5.5235   15.4478 C   0  0  0  0  0  0  0  0  0  0  0  0
    8.7700    7.8434   21.3915 C   0  0  0  0  0  0  0  0  0  0  0  0
   11.7856    6.8851   19.2401 C   0  0  0  0  0  0  0  0  0  0  0  0
   10.5281    7.4276   19.5649 C   0  0  0  0  0  0  0  0  0  0  0  0
   10.0256    7.2907   20.8484 C   0  0  0  0  0  0  0  0  0  0  0  0
    9.3113    5.3049   14.4911 C   0  0  0  0  0  0  0  0  0  0  0  0
    9.4607    7.5646   16.0139 C   0  0  0  0  0  0  0  0  0  0  0  0
   10.4192    7.3157   15.0955 C   0  0  0  0  0  0  0  0  0  0  0  0
   10.2489    6.4227   23.0218 N   0  0  0  0  0  0  0  0  0  0  0  0
    7.2472    8.0746   23.5050 C   0  0  0  0  0  0  0  0  0  0  0  0
    9.2051    6.9101   23.4604 C   0  0  0  0  0  0  0  0  0  0  0  0
   11.9646    6.0299   21.4251 C   0  0  0  0  0  0  0  0  0  0  0  0
  1  5  1  0
  1 13  1  0
  2 20  2  0
  2 28  1  0
  2 29  1  0
  3 19  4  0
  3 25  4  0
  4 23  4  0
  4 27  1  0
  4 30  4  0
  5 17  1  0
  6  8  1  0
  6 29  1  0
  7 24  4  0
  7 26  4  0
  8 28  1  0
  9 13  2  0
 10 18  1  0
 10 21  4  0
 10 30  4  0
 11 17  2  0
 12 18  1  0
 13 15  1  0
 14 24  1  0
 15 25  1  0
 16 28  2  0
 17 20  1  0
 19 24  4  0
 20 23  1  0
 21 22  4  0
 22 23  4  0
 25 26  4  0
 27 29  2  0
M  END
$$$$

 Created by Python create_sdf_string function

 30 33  0  0  0  0  0  0  0  0999 V2000
    8.3036    9.8571   18.4133 C   0  0  0  0  0  0  0  0  0  0  0  0
    8.3694    7.6612   22.6703 C   0  0  0  0  0  0  0  0  0  0  0  0
    8.4143    6.6863   16.2273 C   0  0  0  0  0  0  0  0  0  0  0  0
   10.7581    6.5674   21.7636 C   0  0  0  0  0  0  0  0  0  0  0  0
    8.4452    8.7960   19.2958 O   0  0  0  0  0  0  0  0  0  0  0  0
    8.7122    6.7842   24.8569 C   0  0  0  0  0  0  0  0  0  0  0  0
   10.3400    6.1726   14.3081 C   0  0  0  0  0  0  0  0  0  0  0  0
    7.4297    7.5873   24.8962 C   0  0  0  0  0  0  0  0  0  0  0  0
    8.1566   10.0536   16.0516 O   0  0  0  0  0  0  0  0  0  0  0  0
   12.4989    6.2074   20.1776 C   0  0  0  0  0  0  0  0  0  0  0  0
    6.9192    9.1053   20.9073 O   0  0  0  0  0  0  0  0  0  0  0  0
   14.3979    6.0729   18.7784 C   0  0  0  0  0  0  0  0  0  0  0  0
    8.6811    9.5354   16.9998 C   0  0  0  0  0  0  0  0  0  0  0  0
    9.2512    4.2713   13.7653 O   0  0  0  0  0  0  0  0  0  0  0  0
    9.6495    8.6317   16.8332 N   0  0  0  0  0  0  0  0  0  0  0  0
    6.2934    8.6988   23.1988 O   0  0  0  0  0  0  0  0  0  0  0  0
    7.9806    8.6543   20.5437 C   0  0  0  0  0  0  0  0  0  0  0  0
   13.7270    5.7144   19.8610 O   0  0  0  0  0  0  0  0  0  0  0  0
    8.3351    5.5235   15.4478 C   0  0  0  0  0  0  0  0  0  0  0  0
    8.7700    7.8434   21.3915 C   0  0  0  0  0  0  0  0  0  0  0  0
   11.7856    6.8851   19.2401 C   0  0  0  0  0  0  0  0  0  0  0  0
   10.5281    7.4276   19.5649 C   0  0  0  0  0  0  0  0  0  0  0  0
   10.0256    7.2907   20.8484 C   0  0  0  0  0  0  0  0  0  0  0  0
    9.3113    5.3049   14.4911 C   0  0  0  0  0  0  0  0  0  0  0  0
    9.4607    7.5646   16.0139 C   0  0  0  0  0  0  0  0  0  0  0  0
   10.4192    7.3157   15.0955 C   0  0  0  0  0  0  0  0  0  0  0  0
   10.2489    6.4227   23.0218 N   0  0  0  0  0  0  0  0  0  0  0  0
    7.2472    8.0746   23.5050 C   0  0  0  0  0  0  0  0  0  0  0  0
    9.2051    6.9101   23.4604 C   0  0  0  0  0  0  0  0  0  0  0  0
   11.9646    6.0299   21.4251 C   0  0  0  0  0  0  0  0  0  0  0  0
  1  5  1  0
  1 13  1  0
  2 20  2  0
  2 28  1  0
  2 29  1  0
  3 19  4  0
  3 25  4  0
  4 23  4  0
  4 27  1  0
  4 30  4  0
  5 17  1  0
  6  8  1  0
  6 29  1  0
  7 24  4  0
  7 26  4  0
  8 28  1  0
  9 13  2  0
 10 18  1  0
 10 21  4  0
 10 30  4  0
 11 17  2  0
 12 18  1  0
 13 15  1  0
 14 24  1  0
 15 25  1  0
 16 28  2  0
 17 20  1  0
 19 24  4  0
 20 23  1  0
 21 22  4  0
 22 23  4  0
 25 26  4  0
 27 29  2  0
M  END
$$$$

 Created by Python create_sdf_string function

 30 33  0  0  0  0  0  0  0  0999 V2000
    8.3036    9.8571   18.4133 C   0  0  0  0  0  0  0  0  0  0  0  0
    8.3694    7.6612   22.6703 C   0  0  0  0  0  0  0  0  0  0  0  0
    8.4143    6.6863   16.2273 C   0  0  0  0  0  0  0  0  0  0  0  0
   10.7581    6.5674   21.7636 C   0  0  0  0  0  0  0  0  0  0  0  0
    8.4452    8.7960   19.2958 O   0  0  0  0  0  0  0  0  0  0  0  0
    8.7122    6.7842   24.8569 C   0  0  0  0  0  0  0  0  0  0  0  0
   10.3400    6.1726   14.3081 C   0  0  0  0  0  0  0  0  0  0  0  0
    7.4297    7.5873   24.8962 C   0  0  0  0  0  0  0  0  0  0  0  0
    8.1566   10.0536   16.0516 O   0  0  0  0  0  0  0  0  0  0  0  0
   12.4989    6.2074   20.1776 C   0  0  0  0  0  0  0  0  0  0  0  0
    6.9192    9.1053   20.9073 O   0  0  0  0  0  0  0  0  0  0  0  0
   14.3979    6.0729   18.7784 C   0  0  0  0  0  0  0  0  0  0  0  0
    8.6811    9.5354   16.9998 C   0  0  0  0  0  0  0  0  0  0  0  0
    9.2512    4.2713   13.7653 O   0  0  0  0  0  0  0  0  0  0  0  0
    9.6495    8.6317   16.8332 N   0  0  0  0  0  0  0  0  0  0  0  0
    6.2934    8.6988   23.1988 O   0  0  0  0  0  0  0  0  0  0  0  0
    7.9806    8.6543   20.5437 C   0  0  0  0  0  0  0  0  0  0  0  0
   13.7270    5.7144   19.8610 O   0  0  0  0  0  0  0  0  0  0  0  0
    8.3351    5.5235   15.4478 C   0  0  0  0  0  0  0  0  0  0  0  0
    8.7700    7.8434   21.3915 C   0  0  0  0  0  0  0  0  0  0  0  0
   11.7856    6.8851   19.2401 C   0  0  0  0  0  0  0  0  0  0  0  0
   10.5281    7.4276   19.5649 C   0  0  0  0  0  0  0  0  0  0  0  0
   10.0256    7.2907   20.8484 C   0  0  0  0  0  0  0  0  0  0  0  0
    9.3113    5.3049   14.4911 C   0  0  0  0  0  0  0  0  0  0  0  0
    9.4607    7.5646   16.0139 C   0  0  0  0  0  0  0  0  0  0  0  0
   10.4192    7.3157   15.0955 C   0  0  0  0  0  0  0  0  0  0  0  0
   10.2489    6.4227   23.0218 N   0  0  0  0  0  0  0  0  0  0  0  0
    7.2472    8.0746   23.5050 C   0  0  0  0  0  0  0  0  0  0  0  0
    9.2051    6.9101   23.4604 C   0  0  0  0  0  0  0  0  0  0  0  0
   11.9646    6.0299   21.4251 C   0  0  0  0  0  0  0  0  0  0  0  0
  1  5  1  0
  1 13  1  0
  2 20  2  0
  2 28  1  0
  2 29  1  0
  3 19  4  0
  3 25  4  0
  4 23  4  0
  4 27  1  0
  4 30  4  0
  5 17  1  0
  6  8  1  0
  6 29  1  0
  7 24  4  0
  7 26  4  0
  8 28  1  0
  9 13  2  0
 10 18  1  0
 10 21  4  0
 10 30  4  0
 11 17  2  0
 12 18  1  0
 13 15  1  0
 14 24  1  0
 15 25  1  0
 16 28  2  0
 17 20  1  0
 19 24  4  0
 20 23  1  0
 21 22  4  0
 22 23  4  0
 25 26  4  0
 27 29  2  0
M  END
$$$$

 Created by Python create_sdf_string function

 30 33  0  0  0  0  0  0  0  0999 V2000
    8.3036    9.8571   18.4133 C   0  0  0  0  0  0  0  0  0  0  0  0
    8.3694    7.6612   22.6703 C   0  0  0  0  0  0  0  0  0  0  0  0
    8.4143    6.6863   16.2273 C   0  0  0  0  0  0  0  0  0  0  0  0
   10.7581    6.5674   21.7636 C   0  0  0  0  0  0  0  0  0  0  0  0
    8.4452    8.7960   19.2958 O   0  0  0  0  0  0  0  0  0  0  0  0
    8.7122    6.7842   24.8569 C   0  0  0  0  0  0  0  0  0  0  0  0
   10.3400    6.1726   14.3081 C   0  0  0  0  0  0  0  0  0  0  0  0
    7.4297    7.5873   24.8962 C   0  0  0  0  0  0  0  0  0  0  0  0
    8.1566   10.0536   16.0516 O   0  0  0  0  0  0  0  0  0  0  0  0
   12.4989    6.2074   20.1776 C   0  0  0  0  0  0  0  0  0  0  0  0
    6.9192    9.1053   20.9073 O   0  0  0  0  0  0  0  0  0  0  0  0
   14.3979    6.0729   18.7784 C   0  0  0  0  0  0  0  0  0  0  0  0
    8.6811    9.5354   16.9998 C   0  0  0  0  0  0  0  0  0  0  0  0
    9.2512    4.2713   13.7653 O   0  0  0  0  0  0  0  0  0  0  0  0
    9.6495    8.6317   16.8332 N   0  0  0  0  0  0  0  0  0  0  0  0
    6.2934    8.6988   23.1988 O   0  0  0  0  0  0  0  0  0  0  0  0
    7.9806    8.6543   20.5437 C   0  0  0  0  0  0  0  0  0  0  0  0
   13.7270    5.7144   19.8610 O   0  0  0  0  0  0  0  0  0  0  0  0
    8.3351    5.5235   15.4478 C   0  0  0  0  0  0  0  0  0  0  0  0
    8.7700    7.8434   21.3915 C   0  0  0  0  0  0  0  0  0  0  0  0
   11.7856    6.8851   19.2401 C   0  0  0  0  0  0  0  0  0  0  0  0
   10.5281    7.4276   19.5649 C   0  0  0  0  0  0  0  0  0  0  0  0
   10.0256    7.2907   20.8484 C   0  0  0  0  0  0  0  0  0  0  0  0
    9.3113    5.3049   14.4911 C   0  0  0  0  0  0  0  0  0  0  0  0
    9.4607    7.5646   16.0139 C   0  0  0  0  0  0  0  0  0  0  0  0
   10.4192    7.3157   15.0955 C   0  0  0  0  0  0  0  0  0  0  0  0
   10.2489    6.4227   23.0218 N   0  0  0  0  0  0  0  0  0  0  0  0
    7.2472    8.0746   23.5050 C   0  0  0  0  0  0  0  0  0  0  0  0
    9.2051    6.9101   23.4604 C   0  0  0  0  0  0  0  0  0  0  0  0
   11.9646    6.0299   21.4251 C   0  0  0  0  0  0  0  0  0  0  0  0
  1  5  1  0
  1 13  1  0
  2 20  2  0
  2 28  1  0
  2 29  1  0
  3 19  4  0
  3 25  4  0
  4 23  4  0
  4 27  1  0
  4 30  4  0
  5 17  1  0
  6  8  1  0
  6 29  1  0
  7 24  4  0
  7 26  4  0
  8 28  1  0
  9 13  2  0
 10 18  1  0
 10 21  4  0
 10 30  4  0
 11 17  2  0
 12 18  1  0
 13 15  1  0
 14 24  1  0
 15 25  1  0
 16 28  2  0
 17 20  1  0
 19 24  4  0
 20 23  1  0
 21 22  4  0
 22 23  4  0
 25 26  4  0
 27 29  2  0
M  END
$$$$

 Created by Python create_sdf_string function

 30 33  0  0  0  0  0  0  0  0999 V2000
    8.3036    9.8571   18.4133 C   0  0  0  0  0  0  0  0  0  0  0  0
    8.3694    7.6612   22.6703 C   0  0  0  0  0  0  0  0  0  0  0  0
    8.4143    6.6863   16.2273 C   0  0  0  0  0  0  0  0  0  0  0  0
   10.7581    6.5674   21.7636 C   0  0  0  0  0  0  0  0  0  0  0  0
    8.4452    8.7960   19.2958 O   0  0  0  0  0  0  0  0  0  0  0  0
    8.7122    6.7842   24.8569 C   0  0  0  0  0  0  0  0  0  0  0  0
   10.3400    6.1726   14.3081 C   0  0  0  0  0  0  0  0  0  0  0  0
    7.4297    7.5873   24.8962 C   0  0  0  0  0  0  0  0  0  0  0  0
    8.1566   10.0536   16.0516 O   0  0  0  0  0  0  0  0  0  0  0  0
   12.4989    6.2074   20.1776 C   0  0  0  0  0  0  0  0  0  0  0  0
    6.9192    9.1053   20.9073 O   0  0  0  0  0  0  0  0  0  0  0  0
   14.3979    6.0729   18.7784 C   0  0  0  0  0  0  0  0  0  0  0  0
    8.6811    9.5354   16.9998 C   0  0  0  0  0  0  0  0  0  0  0  0
    9.2512    4.2713   13.7653 O   0  0  0  0  0  0  0  0  0  0  0  0
    9.6495    8.6317   16.8332 N   0  0  0  0  0  0  0  0  0  0  0  0
    6.2934    8.6988   23.1988 O   0  0  0  0  0  0  0  0  0  0  0  0
    7.9806    8.6543   20.5437 C   0  0  0  0  0  0  0  0  0  0  0  0
   13.7270    5.7144   19.8610 O   0  0  0  0  0  0  0  0  0  0  0  0
    8.3351    5.5235   15.4478 C   0  0  0  0  0  0  0  0  0  0  0  0
    8.7700    7.8434   21.3915 C   0  0  0  0  0  0  0  0  0  0  0  0
   11.7856    6.8851   19.2401 C   0  0  0  0  0  0  0  0  0  0  0  0
   10.5281    7.4276   19.5649 C   0  0  0  0  0  0  0  0  0  0  0  0
   10.0256    7.2907   20.8484 C   0  0  0  0  0  0  0  0  0  0  0  0
    9.3113    5.3049   14.4911 C   0  0  0  0  0  0  0  0  0  0  0  0
    9.4607    7.5646   16.0139 C   0  0  0  0  0  0  0  0  0  0  0  0
   10.4192    7.3157   15.0955 C   0  0  0  0  0  0  0  0  0  0  0  0
   10.2489    6.4227   23.0218 N   0  0  0  0  0  0  0  0  0  0  0  0
    7.2472    8.0746   23.5050 C   0  0  0  0  0  0  0  0  0  0  0  0
    9.2051    6.9101   23.4604 C   0  0  0  0  0  0  0  0  0  0  0  0
   11.9646    6.0299   21.4251 C   0  0  0  0  0  0  0  0  0  0  0  0
  1  5  1  0
  1 13  1  0
  2 20  2  0
  2 28  1  0
  2 29  1  0
  3 19  4  0
  3 25  4  0
  4 23  4  0
  4 27  1  0
  4 30  4  0
  5 17  1  0
  6  8  1  0
  6 29  1  0
  7 24  4  0
  7 26  4  0
  8 28  1  0
  9 13  2  0
 10 18  1  0
 10 21  4  0
 10 30  4  0
 11 17  2  0
 12 18  1  0
 13 15  1  0
 14 24  1  0
 15 25  1  0
 16 28  2  0
 17 20  1  0
 19 24  4  0
 20 23  1  0
 21 22  4  0
 22 23  4  0
 25 26  4  0
 27 29  2  0
M  END
$$$$

 Created by Python create_sdf_string function

 30 33  0  0  0  0  0  0  0  0999 V2000
    8.3036    9.8571   18.4133 C   0  0  0  0  0  0  0  0  0  0  0  0
    8.3694    7.6612   22.6703 C   0  0  0  0  0  0  0  0  0  0  0  0
    8.4143    6.6863   16.2273 C   0  0  0  0  0  0  0  0  0  0  0  0
   10.7581    6.5674   21.7636 C   0  0  0  0  0  0  0  0  0  0  0  0
    8.4452    8.7960   19.2958 O   0  0  0  0  0  0  0  0  0  0  0  0
    8.7122    6.7842   24.8569 C   0  0  0  0  0  0  0  0  0  0  0  0
   10.3400    6.1726   14.3081 C   0  0  0  0  0  0  0  0  0  0  0  0
    7.4297    7.5873   24.8962 C   0  0  0  0  0  0  0  0  0  0  0  0
    8.1566   10.0536   16.0516 O   0  0  0  0  0  0  0  0  0  0  0  0
   12.4989    6.2074   20.1776 C   0  0  0  0  0  0  0  0  0  0  0  0
    6.9192    9.1053   20.9073 O   0  0  0  0  0  0  0  0  0  0  0  0
   14.3979    6.0729   18.7784 C   0  0  0  0  0  0  0  0  0  0  0  0
    8.6811    9.5354   16.9998 C   0  0  0  0  0  0  0  0  0  0  0  0
    9.2512    4.2713   13.7653 O   0  0  0  0  0  0  0  0  0  0  0  0
    9.6495    8.6317   16.8332 N   0  0  0  0  0  0  0  0  0  0  0  0
    6.2934    8.6988   23.1988 O   0  0  0  0  0  0  0  0  0  0  0  0
    7.9806    8.6543   20.5437 C   0  0  0  0  0  0  0  0  0  0  0  0
   13.7270    5.7144   19.8610 O   0  0  0  0  0  0  0  0  0  0  0  0
    8.3351    5.5235   15.4478 C   0  0  0  0  0  0  0  0  0  0  0  0
    8.7700    7.8434   21.3915 C   0  0  0  0  0  0  0  0  0  0  0  0
   11.7856    6.8851   19.2401 C   0  0  0  0  0  0  0  0  0  0  0  0
   10.5281    7.4276   19.5649 C   0  0  0  0  0  0  0  0  0  0  0  0
   10.0256    7.2907   20.8484 C   0  0  0  0  0  0  0  0  0  0  0  0
    9.3113    5.3049   14.4911 C   0  0  0  0  0  0  0  0  0  0  0  0
    9.4607    7.5646   16.0139 C   0  0  0  0  0  0  0  0  0  0  0  0
   10.4192    7.3157   15.0955 C   0  0  0  0  0  0  0  0  0  0  0  0
   10.2489    6.4227   23.0218 N   0  0  0  0  0  0  0  0  0  0  0  0
    7.2472    8.0746   23.5050 C   0  0  0  0  0  0  0  0  0  0  0  0
    9.2051    6.9101   23.4604 C   0  0  0  0  0  0  0  0  0  0  0  0
   11.9646    6.0299   21.4251 C   0  0  0  0  0  0  0  0  0  0  0  0
  1  5  1  0
  1 13  1  0
  2 20  2  0
  2 28  1  0
  2 29  1  0
  3 19  4  0
  3 25  4  0
  4 23  4  0
  4 27  1  0
  4 30  4  0
  5 17  1  0
  6  8  1  0
  6 29  1  0
  7 24  4  0
  7 26  4  0
  8 28  1  0
  9 13  2  0
 10 18  1  0
 10 21  4  0
 10 30  4  0
 11 17  2  0
 12 18  1  0
 13 15  1  0
 14 24  1  0
 15 25  1  0
 16 28  2  0
 17 20  1  0
 19 24  4  0
 20 23  1  0
 21 22  4  0
 22 23  4  0
 25 26  4  0
 27 29  2  0
M  END
$$$$

 Created by Python create_sdf_string function

 30 33  0  0  0  0  0  0  0  0999 V2000
    8.3036    9.8571   18.4133 C   0  0  0  0  0  0  0  0  0  0  0  0
    8.3694    7.6612   22.6703 C   0  0  0  0  0  0  0  0  0  0  0  0
    8.4143    6.6863   16.2273 C   0  0  0  0  0  0  0  0  0  0  0  0
   10.7581    6.5674   21.7636 C   0  0  0  0  0  0  0  0  0  0  0  0
    8.4452    8.7960   19.2958 O   0  0  0  0  0  0  0  0  0  0  0  0
    8.7122    6.7842   24.8569 C   0  0  0  0  0  0  0  0  0  0  0  0
   10.3400    6.1726   14.3081 C   0  0  0  0  0  0  0  0  0  0  0  0
    7.4297    7.5873   24.8962 C   0  0  0  0  0  0  0  0  0  0  0  0
    8.1566   10.0536   16.0516 O   0  0  0  0  0  0  0  0  0  0  0  0
   12.4989    6.2074   20.1776 C   0  0  0  0  0  0  0  0  0  0  0  0
    6.9192    9.1053   20.9073 O   0  0  0  0  0  0  0  0  0  0  0  0
   14.3979    6.0729   18.7784 C   0  0  0  0  0  0  0  0  0  0  0  0
    8.6811    9.5354   16.9998 C   0  0  0  0  0  0  0  0  0  0  0  0
    9.2512    4.2713   13.7653 O   0  0  0  0  0  0  0  0  0  0  0  0
    9.6495    8.6317   16.8332 N   0  0  0  0  0  0  0  0  0  0  0  0
    6.2934    8.6988   23.1988 O   0  0  0  0  0  0  0  0  0  0  0  0
    7.9806    8.6543   20.5437 C   0  0  0  0  0  0  0  0  0  0  0  0
   13.7270    5.7144   19.8610 O   0  0  0  0  0  0  0  0  0  0  0  0
    8.3351    5.5235   15.4478 C   0  0  0  0  0  0  0  0  0  0  0  0
    8.7700    7.8434   21.3915 C   0  0  0  0  0  0  0  0  0  0  0  0
   11.7856    6.8851   19.2401 C   0  0  0  0  0  0  0  0  0  0  0  0
   10.5281    7.4276   19.5649 C   0  0  0  0  0  0  0  0  0  0  0  0
   10.0256    7.2907   20.8484 C   0  0  0  0  0  0  0  0  0  0  0  0
    9.3113    5.3049   14.4911 C   0  0  0  0  0  0  0  0  0  0  0  0
    9.4607    7.5646   16.0139 C   0  0  0  0  0  0  0  0  0  0  0  0
   10.4192    7.3157   15.0955 C   0  0  0  0  0  0  0  0  0  0  0  0
   10.2489    6.4227   23.0218 N   0  0  0  0  0  0  0  0  0  0  0  0
    7.2472    8.0746   23.5050 C   0  0  0  0  0  0  0  0  0  0  0  0
    9.2051    6.9101   23.4604 C   0  0  0  0  0  0  0  0  0  0  0  0
   11.9646    6.0299   21.4251 C   0  0  0  0  0  0  0  0  0  0  0  0
  1  5  1  0
  1 13  1  0
  2 20  2  0
  2 28  1  0
  2 29  1  0
  3 19  4  0
  3 25  4  0
  4 23  4  0
  4 27  1  0
  4 30  4  0
  5 17  1  0
  6  8  1  0
  6 29  1  0
  7 24  4  0
  7 26  4  0
  8 28  1  0
  9 13  2  0
 10 18  1  0
 10 21  4  0
 10 30  4  0
 11 17  2  0
 12 18  1  0
 13 15  1  0
 14 24  1  0
 15 25  1  0
 16 28  2  0
 17 20  1  0
 19 24  4  0
 20 23  1  0
 21 22  4  0
 22 23  4  0
 25 26  4  0
 27 29  2  0
M  END
$$$$

 Created by Python create_sdf_string function

 30 33  0  0  0  0  0  0  0  0999 V2000
    8.3036    9.8571   18.4133 C   0  0  0  0  0  0  0  0  0  0  0  0
    8.3694    7.6612   22.6703 C   0  0  0  0  0  0  0  0  0  0  0  0
    8.4143    6.6863   16.2273 C   0  0  0  0  0  0  0  0  0  0  0  0
   10.7581    6.5674   21.7636 C   0  0  0  0  0  0  0  0  0  0  0  0
    8.4452    8.7960   19.2958 O   0  0  0  0  0  0  0  0  0  0  0  0
    8.7122    6.7842   24.8569 C   0  0  0  0  0  0  0  0  0  0  0  0
   10.3400    6.1726   14.3081 C   0  0  0  0  0  0  0  0  0  0  0  0
    7.4297    7.5873   24.8962 C   0  0  0  0  0  0  0  0  0  0  0  0
    8.1566   10.0536   16.0516 O   0  0  0  0  0  0  0  0  0  0  0  0
   12.4989    6.2074   20.1776 C   0  0  0  0  0  0  0  0  0  0  0  0
    6.9192    9.1053   20.9073 O   0  0  0  0  0  0  0  0  0  0  0  0
   14.3979    6.0729   18.7784 C   0  0  0  0  0  0  0  0  0  0  0  0
    8.6811    9.5354   16.9998 C   0  0  0  0  0  0  0  0  0  0  0  0
    9.2512    4.2713   13.7653 O   0  0  0  0  0  0  0  0  0  0  0  0
    9.6495    8.6317   16.8332 N   0  0  0  0  0  0  0  0  0  0  0  0
    6.2934    8.6988   23.1988 O   0  0  0  0  0  0  0  0  0  0  0  0
    7.9806    8.6543   20.5437 C   0  0  0  0  0  0  0  0  0  0  0  0
   13.7270    5.7144   19.8610 O   0  0  0  0  0  0  0  0  0  0  0  0
    8.3351    5.5235   15.4478 C   0  0  0  0  0  0  0  0  0  0  0  0
    8.7700    7.8434   21.3915 C   0  0  0  0  0  0  0  0  0  0  0  0
   11.7856    6.8851   19.2401 C   0  0  0  0  0  0  0  0  0  0  0  0
   10.5281    7.4276   19.5649 C   0  0  0  0  0  0  0  0  0  0  0  0
   10.0256    7.2907   20.8484 C   0  0  0  0  0  0  0  0  0  0  0  0
    9.3113    5.3049   14.4911 C   0  0  0  0  0  0  0  0  0  0  0  0
    9.4607    7.5646   16.0139 C   0  0  0  0  0  0  0  0  0  0  0  0
   10.4192    7.3157   15.0955 C   0  0  0  0  0  0  0  0  0  0  0  0
   10.2489    6.4227   23.0218 N   0  0  0  0  0  0  0  0  0  0  0  0
    7.2472    8.0746   23.5050 C   0  0  0  0  0  0  0  0  0  0  0  0
    9.2051    6.9101   23.4604 C   0  0  0  0  0  0  0  0  0  0  0  0
   11.9646    6.0299   21.4251 C   0  0  0  0  0  0  0  0  0  0  0  0
  1  5  1  0
  1 13  1  0
  2 20  2  0
  2 28  1  0
  2 29  1  0
  3 19  4  0
  3 25  4  0
  4 23  4  0
  4 27  1  0
  4 30  4  0
  5 17  1  0
  6  8  1  0
  6 29  1  0
  7 24  4  0
  7 26  4  0
  8 28  1  0
  9 13  2  0
 10 18  1  0
 10 21  4  0
 10 30  4  0
 11 17  2  0
 12 18  1  0
 13 15  1  0
 14 24  1  0
 15 25  1  0
 16 28  2  0
 17 20  1  0
 19 24  4  0
 20 23  1  0
 21 22  4  0
 22 23  4  0
 25 26  4  0
 27 29  2  0
M  END
$$$$

 Created by Python create_sdf_string function

 30 33  0  0  0  0  0  0  0  0999 V2000
    8.3036    9.8571   18.4133 C   0  0  0  0  0  0  0  0  0  0  0  0
    8.3694    7.6612   22.6703 C   0  0  0  0  0  0  0  0  0  0  0  0
    8.4143    6.6863   16.2273 C   0  0  0  0  0  0  0  0  0  0  0  0
   10.7581    6.5674   21.7636 C   0  0  0  0  0  0  0  0  0  0  0  0
    8.4452    8.7960   19.2958 O   0  0  0  0  0  0  0  0  0  0  0  0
    8.7122    6.7842   24.8569 C   0  0  0  0  0  0  0  0  0  0  0  0
   10.3400    6.1726   14.3081 C   0  0  0  0  0  0  0  0  0  0  0  0
    7.4297    7.5873   24.8962 C   0  0  0  0  0  0  0  0  0  0  0  0
    8.1566   10.0536   16.0516 O   0  0  0  0  0  0  0  0  0  0  0  0
   12.4989    6.2074   20.1776 C   0  0  0  0  0  0  0  0  0  0  0  0
    6.9192    9.1053   20.9073 O   0  0  0  0  0  0  0  0  0  0  0  0
   14.3979    6.0729   18.7784 C   0  0  0  0  0  0  0  0  0  0  0  0
    8.6811    9.5354   16.9998 C   0  0  0  0  0  0  0  0  0  0  0  0
    9.2512    4.2713   13.7653 O   0  0  0  0  0  0  0  0  0  0  0  0
    9.6495    8.6317   16.8332 N   0  0  0  0  0  0  0  0  0  0  0  0
    6.2934    8.6988   23.1988 O   0  0  0  0  0  0  0  0  0  0  0  0
    7.9806    8.6543   20.5437 C   0  0  0  0  0  0  0  0  0  0  0  0
   13.7270    5.7144   19.8610 O   0  0  0  0  0  0  0  0  0  0  0  0
    8.3351    5.5235   15.4478 C   0  0  0  0  0  0  0  0  0  0  0  0
    8.7700    7.8434   21.3915 C   0  0  0  0  0  0  0  0  0  0  0  0
   11.7856    6.8851   19.2401 C   0  0  0  0  0  0  0  0  0  0  0  0
   10.5281    7.4276   19.5649 C   0  0  0  0  0  0  0  0  0  0  0  0
   10.0256    7.2907   20.8484 C   0  0  0  0  0  0  0  0  0  0  0  0
    9.3113    5.3049   14.4911 C   0  0  0  0  0  0  0  0  0  0  0  0
    9.4607    7.5646   16.0139 C   0  0  0  0  0  0  0  0  0  0  0  0
   10.4192    7.3157   15.0955 C   0  0  0  0  0  0  0  0  0  0  0  0
   10.2489    6.4227   23.0218 N   0  0  0  0  0  0  0  0  0  0  0  0
    7.2472    8.0746   23.5050 C   0  0  0  0  0  0  0  0  0  0  0  0
    9.2051    6.9101   23.4604 C   0  0  0  0  0  0  0  0  0  0  0  0
   11.9646    6.0299   21.4251 C   0  0  0  0  0  0  0  0  0  0  0  0
  1  5  1  0
  1 13  1  0
  2 20  2  0
  2 28  1  0
  2 29  1  0
  3 19  4  0
  3 25  4  0
  4 23  4  0
  4 27  1  0
  4 30  4  0
  5 17  1  0
  6  8  1  0
  6 29  1  0
  7 24  4  0
  7 26  4  0
  8 28  1  0
  9 13  2  0
 10 18  1  0
 10 21  4  0
 10 30  4  0
 11 17  2  0
 12 18  1  0
 13 15  1  0
 14 24  1  0
 15 25  1  0
 16 28  2  0
 17 20  1  0
 19 24  4  0
 20 23  1  0
 21 22  4  0
 22 23  4  0
 25 26  4  0
 27 29  2  0
M  END
$$$$

 Created by Python create_sdf_string function

 30 33  0  0  0  0  0  0  0  0999 V2000
    8.3036    9.8571   18.4133 C   0  0  0  0  0  0  0  0  0  0  0  0
    8.3694    7.6612   22.6703 C   0  0  0  0  0  0  0  0  0  0  0  0
    8.4143    6.6863   16.2273 C   0  0  0  0  0  0  0  0  0  0  0  0
   10.7581    6.5674   21.7636 C   0  0  0  0  0  0  0  0  0  0  0  0
    8.4452    8.7960   19.2958 O   0  0  0  0  0  0  0  0  0  0  0  0
    8.7122    6.7842   24.8569 C   0  0  0  0  0  0  0  0  0  0  0  0
   10.3400    6.1726   14.3081 C   0  0  0  0  0  0  0  0  0  0  0  0
    7.4297    7.5873   24.8962 C   0  0  0  0  0  0  0  0  0  0  0  0
    8.1566   10.0536   16.0516 O   0  0  0  0  0  0  0  0  0  0  0  0
   12.4989    6.2074   20.1776 C   0  0  0  0  0  0  0  0  0  0  0  0
    6.9192    9.1053   20.9073 O   0  0  0  0  0  0  0  0  0  0  0  0
   14.3979    6.0729   18.7784 C   0  0  0  0  0  0  0  0  0  0  0  0
    8.6811    9.5354   16.9998 C   0  0  0  0  0  0  0  0  0  0  0  0
    9.2512    4.2713   13.7653 O   0  0  0  0  0  0  0  0  0  0  0  0
    9.6495    8.6317   16.8332 N   0  0  0  0  0  0  0  0  0  0  0  0
    6.2934    8.6988   23.1988 O   0  0  0  0  0  0  0  0  0  0  0  0
    7.9806    8.6543   20.5437 C   0  0  0  0  0  0  0  0  0  0  0  0
   13.7270    5.7144   19.8610 O   0  0  0  0  0  0  0  0  0  0  0  0
    8.3351    5.5235   15.4478 C   0  0  0  0  0  0  0  0  0  0  0  0
    8.7700    7.8434   21.3915 C   0  0  0  0  0  0  0  0  0  0  0  0
   11.7856    6.8851   19.2401 C   0  0  0  0  0  0  0  0  0  0  0  0
   10.5281    7.4276   19.5649 C   0  0  0  0  0  0  0  0  0  0  0  0
   10.0256    7.2907   20.8484 C   0  0  0  0  0  0  0  0  0  0  0  0
    9.3113    5.3049   14.4911 C   0  0  0  0  0  0  0  0  0  0  0  0
    9.4607    7.5646   16.0139 C   0  0  0  0  0  0  0  0  0  0  0  0
   10.4192    7.3157   15.0955 C   0  0  0  0  0  0  0  0  0  0  0  0
   10.2489    6.4227   23.0218 N   0  0  0  0  0  0  0  0  0  0  0  0
    7.2472    8.0746   23.5050 C   0  0  0  0  0  0  0  0  0  0  0  0
    9.2051    6.9101   23.4604 C   0  0  0  0  0  0  0  0  0  0  0  0
   11.9646    6.0299   21.4251 C   0  0  0  0  0  0  0  0  0  0  0  0
  1  5  1  0
  1 13  1  0
  2 20  2  0
  2 28  1  0
  2 29  1  0
  3 19  4  0
  3 25  4  0
  4 23  4  0
  4 27  1  0
  4 30  4  0
  5 17  1  0
  6  8  1  0
  6 29  1  0
  7 24  4  0
  7 26  4  0
  8 28  1  0
  9 13  2  0
 10 18  1  0
 10 21  4  0
 10 30  4  0
 11 17  2  0
 12 18  1  0
 13 15  1  0
 14 24  1  0
 15 25  1  0
 16 28  2  0
 17 20  1  0
 19 24  4  0
 20 23  1  0
 21 22  4  0
 22 23  4  0
 25 26  4  0
 27 29  2  0
M  END
$$$$

 Created by Python create_sdf_string function

 30 33  0  0  0  0  0  0  0  0999 V2000
    8.3036    9.8571   18.4133 C   0  0  0  0  0  0  0  0  0  0  0  0
    8.3694    7.6612   22.6703 C   0  0  0  0  0  0  0  0  0  0  0  0
    8.4143    6.6863   16.2273 C   0  0  0  0  0  0  0  0  0  0  0  0
   10.7581    6.5674   21.7636 C   0  0  0  0  0  0  0  0  0  0  0  0
    8.4452    8.7960   19.2958 O   0  0  0  0  0  0  0  0  0  0  0  0
    8.7122    6.7842   24.8569 C   0  0  0  0  0  0  0  0  0  0  0  0
   10.3400    6.1726   14.3081 C   0  0  0  0  0  0  0  0  0  0  0  0
    7.4297    7.5873   24.8962 C   0  0  0  0  0  0  0  0  0  0  0  0
    8.1566   10.0536   16.0516 O   0  0  0  0  0  0  0  0  0  0  0  0
   12.4989    6.2074   20.1776 C   0  0  0  0  0  0  0  0  0  0  0  0
    6.9192    9.1053   20.9073 O   0  0  0  0  0  0  0  0  0  0  0  0
   14.3979    6.0729   18.7784 C   0  0  0  0  0  0  0  0  0  0  0  0
    8.6811    9.5354   16.9998 C   0  0  0  0  0  0  0  0  0  0  0  0
    9.2512    4.2713   13.7653 O   0  0  0  0  0  0  0  0  0  0  0  0
    9.6495    8.6317   16.8332 N   0  0  0  0  0  0  0  0  0  0  0  0
    6.2934    8.6988   23.1988 O   0  0  0  0  0  0  0  0  0  0  0  0
    7.9806    8.6543   20.5437 C   0  0  0  0  0  0  0  0  0  0  0  0
   13.7270    5.7144   19.8610 O   0  0  0  0  0  0  0  0  0  0  0  0
    8.3351    5.5235   15.4478 C   0  0  0  0  0  0  0  0  0  0  0  0
    8.7700    7.8434   21.3915 C   0  0  0  0  0  0  0  0  0  0  0  0
   11.7856    6.8851   19.2401 C   0  0  0  0  0  0  0  0  0  0  0  0
   10.5281    7.4276   19.5649 C   0  0  0  0  0  0  0  0  0  0  0  0
   10.0256    7.2907   20.8484 C   0  0  0  0  0  0  0  0  0  0  0  0
    9.3113    5.3049   14.4911 C   0  0  0  0  0  0  0  0  0  0  0  0
    9.4607    7.5646   16.0139 C   0  0  0  0  0  0  0  0  0  0  0  0
   10.4192    7.3157   15.0955 C   0  0  0  0  0  0  0  0  0  0  0  0
   10.2489    6.4227   23.0218 N   0  0  0  0  0  0  0  0  0  0  0  0
    7.2472    8.0746   23.5050 C   0  0  0  0  0  0  0  0  0  0  0  0
    9.2051    6.9101   23.4604 C   0  0  0  0  0  0  0  0  0  0  0  0
   11.9646    6.0299   21.4251 C   0  0  0  0  0  0  0  0  0  0  0  0
  1  5  1  0
  1 13  1  0
  2 20  2  0
  2 28  1  0
  2 29  1  0
  3 19  4  0
  3 25  4  0
  4 23  4  0
  4 27  1  0
  4 30  4  0
  5 17  1  0
  6  8  1  0
  6 29  1  0
  7 24  4  0
  7 26  4  0
  8 28  1  0
  9 13  2  0
 10 18  1  0
 10 21  4  0
 10 30  4  0
 11 17  2  0
 12 18  1  0
 13 15  1  0
 14 24  1  0
 15 25  1  0
 16 28  2  0
 17 20  1  0
 19 24  4  0
 20 23  1  0
 21 22  4  0
 22 23  4  0
 25 26  4  0
 27 29  2  0
M  END
$$$$

 Created by Python create_sdf_string function

 30 33  0  0  0  0  0  0  0  0999 V2000
    8.3036    9.8571   18.4133 C   0  0  0  0  0  0  0  0  0  0  0  0
    8.3694    7.6612   22.6703 C   0  0  0  0  0  0  0  0  0  0  0  0
    8.4143    6.6863   16.2273 C   0  0  0  0  0  0  0  0  0  0  0  0
   10.7581    6.5674   21.7636 C   0  0  0  0  0  0  0  0  0  0  0  0
    8.4452    8.7960   19.2958 O   0  0  0  0  0  0  0  0  0  0  0  0
    8.7122    6.7842   24.8569 C   0  0  0  0  0  0  0  0  0  0  0  0
   10.3400    6.1726   14.3081 C   0  0  0  0  0  0  0  0  0  0  0  0
    7.4297    7.5873   24.8962 C   0  0  0  0  0  0  0  0  0  0  0  0
    8.1566   10.0536   16.0516 O   0  0  0  0  0  0  0  0  0  0  0  0
   12.4989    6.2074   20.1776 C   0  0  0  0  0  0  0  0  0  0  0  0
    6.9192    9.1053   20.9073 O   0  0  0  0  0  0  0  0  0  0  0  0
   14.3979    6.0729   18.7784 C   0  0  0  0  0  0  0  0  0  0  0  0
    8.6811    9.5354   16.9998 C   0  0  0  0  0  0  0  0  0  0  0  0
    9.2512    4.2713   13.7653 O   0  0  0  0  0  0  0  0  0  0  0  0
    9.6495    8.6317   16.8332 N   0  0  0  0  0  0  0  0  0  0  0  0
    6.2934    8.6988   23.1988 O   0  0  0  0  0  0  0  0  0  0  0  0
    7.9806    8.6543   20.5437 C   0  0  0  0  0  0  0  0  0  0  0  0
   13.7270    5.7144   19.8610 O   0  0  0  0  0  0  0  0  0  0  0  0
    8.3351    5.5235   15.4478 C   0  0  0  0  0  0  0  0  0  0  0  0
    8.7700    7.8434   21.3915 C   0  0  0  0  0  0  0  0  0  0  0  0
   11.7856    6.8851   19.2401 C   0  0  0  0  0  0  0  0  0  0  0  0
   10.5281    7.4276   19.5649 C   0  0  0  0  0  0  0  0  0  0  0  0
   10.0256    7.2907   20.8484 C   0  0  0  0  0  0  0  0  0  0  0  0
    9.3113    5.3049   14.4911 C   0  0  0  0  0  0  0  0  0  0  0  0
    9.4607    7.5646   16.0139 C   0  0  0  0  0  0  0  0  0  0  0  0
   10.4192    7.3157   15.0955 C   0  0  0  0  0  0  0  0  0  0  0  0
   10.2489    6.4227   23.0218 N   0  0  0  0  0  0  0  0  0  0  0  0
    7.2472    8.0746   23.5050 C   0  0  0  0  0  0  0  0  0  0  0  0
    9.2051    6.9101   23.4604 C   0  0  0  0  0  0  0  0  0  0  0  0
   11.9646    6.0299   21.4251 C   0  0  0  0  0  0  0  0  0  0  0  0
  1  5  1  0
  1 13  1  0
  2 20  2  0
  2 28  1  0
  2 29  1  0
  3 19  4  0
  3 25  4  0
  4 23  4  0
  4 27  1  0
  4 30  4  0
  5 17  1  0
  6  8  1  0
  6 29  1  0
  7 24  4  0
  7 26  4  0
  8 28  1  0
  9 13  2  0
 10 18  1  0
 10 21  4  0
 10 30  4  0
 11 17  2  0
 12 18  1  0
 13 15  1  0
 14 24  1  0
 15 25  1  0
 16 28  2  0
 17 20  1  0
 19 24  4  0
 20 23  1  0
 21 22  4  0
 22 23  4  0
 25 26  4  0
 27 29  2  0
M  END
$$$$

 Created by Python create_sdf_string function

 30 33  0  0  0  0  0  0  0  0999 V2000
    8.3036    9.8571   18.4133 C   0  0  0  0  0  0  0  0  0  0  0  0
    8.3694    7.6612   22.6703 C   0  0  0  0  0  0  0  0  0  0  0  0
    8.4143    6.6863   16.2273 C   0  0  0  0  0  0  0  0  0  0  0  0
   10.7581    6.5674   21.7636 C   0  0  0  0  0  0  0  0  0  0  0  0
    8.4452    8.7960   19.2958 O   0  0  0  0  0  0  0  0  0  0  0  0
    8.7122    6.7842   24.8569 C   0  0  0  0  0  0  0  0  0  0  0  0
   10.3400    6.1726   14.3081 C   0  0  0  0  0  0  0  0  0  0  0  0
    7.4297    7.5873   24.8962 C   0  0  0  0  0  0  0  0  0  0  0  0
    8.1566   10.0536   16.0516 O   0  0  0  0  0  0  0  0  0  0  0  0
   12.4989    6.2074   20.1776 C   0  0  0  0  0  0  0  0  0  0  0  0
    6.9192    9.1053   20.9073 O   0  0  0  0  0  0  0  0  0  0  0  0
   14.3979    6.0729   18.7784 C   0  0  0  0  0  0  0  0  0  0  0  0
    8.6811    9.5354   16.9998 C   0  0  0  0  0  0  0  0  0  0  0  0
    9.2512    4.2713   13.7653 O   0  0  0  0  0  0  0  0  0  0  0  0
    9.6495    8.6317   16.8332 N   0  0  0  0  0  0  0  0  0  0  0  0
    6.2934    8.6988   23.1988 O   0  0  0  0  0  0  0  0  0  0  0  0
    7.9806    8.6543   20.5437 C   0  0  0  0  0  0  0  0  0  0  0  0
   13.7270    5.7144   19.8610 O   0  0  0  0  0  0  0  0  0  0  0  0
    8.3351    5.5235   15.4478 C   0  0  0  0  0  0  0  0  0  0  0  0
    8.7700    7.8434   21.3915 C   0  0  0  0  0  0  0  0  0  0  0  0
   11.7856    6.8851   19.2401 C   0  0  0  0  0  0  0  0  0  0  0  0
   10.5281    7.4276   19.5649 C   0  0  0  0  0  0  0  0  0  0  0  0
   10.0256    7.2907   20.8484 C   0  0  0  0  0  0  0  0  0  0  0  0
    9.3113    5.3049   14.4911 C   0  0  0  0  0  0  0  0  0  0  0  0
    9.4607    7.5646   16.0139 C   0  0  0  0  0  0  0  0  0  0  0  0
   10.4192    7.3157   15.0955 C   0  0  0  0  0  0  0  0  0  0  0  0
   10.2489    6.4227   23.0218 N   0  0  0  0  0  0  0  0  0  0  0  0
    7.2472    8.0746   23.5050 C   0  0  0  0  0  0  0  0  0  0  0  0
    9.2051    6.9101   23.4604 C   0  0  0  0  0  0  0  0  0  0  0  0
   11.9646    6.0299   21.4251 C   0  0  0  0  0  0  0  0  0  0  0  0
  1  5  1  0
  1 13  1  0
  2 20  2  0
  2 28  1  0
  2 29  1  0
  3 19  4  0
  3 25  4  0
  4 23  4  0
  4 27  1  0
  4 30  4  0
  5 17  1  0
  6  8  1  0
  6 29  1  0
  7 24  4  0
  7 26  4  0
  8 28  1  0
  9 13  2  0
 10 18  1  0
 10 21  4  0
 10 30  4  0
 11 17  2  0
 12 18  1  0
 13 15  1  0
 14 24  1  0
 15 25  1  0
 16 28  2  0
 17 20  1  0
 19 24  4  0
 20 23  1  0
 21 22  4  0
 22 23  4  0
 25 26  4  0
 27 29  2  0
M  END
$$$$

 Created by Python create_sdf_string function

 30 33  0  0  0  0  0  0  0  0999 V2000
    8.3036    9.8571   18.4133 C   0  0  0  0  0  0  0  0  0  0  0  0
    8.3694    7.6612   22.6703 C   0  0  0  0  0  0  0  0  0  0  0  0
    8.4143    6.6863   16.2273 C   0  0  0  0  0  0  0  0  0  0  0  0
   10.7581    6.5674   21.7636 C   0  0  0  0  0  0  0  0  0  0  0  0
    8.4452    8.7960   19.2958 O   0  0  0  0  0  0  0  0  0  0  0  0
    8.7122    6.7842   24.8569 C   0  0  0  0  0  0  0  0  0  0  0  0
   10.3400    6.1726   14.3081 C   0  0  0  0  0  0  0  0  0  0  0  0
    7.4297    7.5873   24.8962 C   0  0  0  0  0  0  0  0  0  0  0  0
    8.1566   10.0536   16.0516 O   0  0  0  0  0  0  0  0  0  0  0  0
   12.4989    6.2074   20.1776 C   0  0  0  0  0  0  0  0  0  0  0  0
    6.9192    9.1053   20.9073 O   0  0  0  0  0  0  0  0  0  0  0  0
   14.3979    6.0729   18.7784 C   0  0  0  0  0  0  0  0  0  0  0  0
    8.6811    9.5354   16.9998 C   0  0  0  0  0  0  0  0  0  0  0  0
    9.2512    4.2713   13.7653 O   0  0  0  0  0  0  0  0  0  0  0  0
    9.6495    8.6317   16.8332 N   0  0  0  0  0  0  0  0  0  0  0  0
    6.2934    8.6988   23.1988 O   0  0  0  0  0  0  0  0  0  0  0  0
    7.9806    8.6543   20.5437 C   0  0  0  0  0  0  0  0  0  0  0  0
   13.7270    5.7144   19.8610 O   0  0  0  0  0  0  0  0  0  0  0  0
    8.3351    5.5235   15.4478 C   0  0  0  0  0  0  0  0  0  0  0  0
    8.7700    7.8434   21.3915 C   0  0  0  0  0  0  0  0  0  0  0  0
   11.7856    6.8851   19.2401 C   0  0  0  0  0  0  0  0  0  0  0  0
   10.5281    7.4276   19.5649 C   0  0  0  0  0  0  0  0  0  0  0  0
   10.0256    7.2907   20.8484 C   0  0  0  0  0  0  0  0  0  0  0  0
    9.3113    5.3049   14.4911 C   0  0  0  0  0  0  0  0  0  0  0  0
    9.4607    7.5646   16.0139 C   0  0  0  0  0  0  0  0  0  0  0  0
   10.4192    7.3157   15.0955 C   0  0  0  0  0  0  0  0  0  0  0  0
   10.2489    6.4227   23.0218 N   0  0  0  0  0  0  0  0  0  0  0  0
    7.2472    8.0746   23.5050 C   0  0  0  0  0  0  0  0  0  0  0  0
    9.2051    6.9101   23.4604 C   0  0  0  0  0  0  0  0  0  0  0  0
   11.9646    6.0299   21.4251 C   0  0  0  0  0  0  0  0  0  0  0  0
  1  5  1  0
  1 13  1  0
  2 20  2  0
  2 28  1  0
  2 29  1  0
  3 19  4  0
  3 25  4  0
  4 23  4  0
  4 27  1  0
  4 30  4  0
  5 17  1  0
  6  8  1  0
  6 29  1  0
  7 24  4  0
  7 26  4  0
  8 28  1  0
  9 13  2  0
 10 18  1  0
 10 21  4  0
 10 30  4  0
 11 17  2  0
 12 18  1  0
 13 15  1  0
 14 24  1  0
 15 25  1  0
 16 28  2  0
 17 20  1  0
 19 24  4  0
 20 23  1  0
 21 22  4  0
 22 23  4  0
 25 26  4  0
 27 29  2  0
M  END
$$$$

 Created by Python create_sdf_string function

 30 33  0  0  0  0  0  0  0  0999 V2000
    8.3036    9.8571   18.4133 C   0  0  0  0  0  0  0  0  0  0  0  0
    8.3694    7.6612   22.6703 C   0  0  0  0  0  0  0  0  0  0  0  0
    8.4143    6.6863   16.2273 C   0  0  0  0  0  0  0  0  0  0  0  0
   10.7581    6.5674   21.7636 C   0  0  0  0  0  0  0  0  0  0  0  0
    8.4452    8.7960   19.2958 O   0  0  0  0  0  0  0  0  0  0  0  0
    8.7122    6.7842   24.8569 C   0  0  0  0  0  0  0  0  0  0  0  0
   10.3400    6.1726   14.3081 C   0  0  0  0  0  0  0  0  0  0  0  0
    7.4297    7.5873   24.8962 C   0  0  0  0  0  0  0  0  0  0  0  0
    8.1566   10.0536   16.0516 O   0  0  0  0  0  0  0  0  0  0  0  0
   12.4989    6.2074   20.1776 C   0  0  0  0  0  0  0  0  0  0  0  0
    6.9192    9.1053   20.9073 O   0  0  0  0  0  0  0  0  0  0  0  0
   14.3979    6.0729   18.7784 C   0  0  0  0  0  0  0  0  0  0  0  0
    8.6811    9.5354   16.9998 C   0  0  0  0  0  0  0  0  0  0  0  0
    9.2512    4.2713   13.7653 O   0  0  0  0  0  0  0  0  0  0  0  0
    9.6495    8.6317   16.8332 N   0  0  0  0  0  0  0  0  0  0  0  0
    6.2934    8.6988   23.1988 O   0  0  0  0  0  0  0  0  0  0  0  0
    7.9806    8.6543   20.5437 C   0  0  0  0  0  0  0  0  0  0  0  0
   13.7270    5.7144   19.8610 O   0  0  0  0  0  0  0  0  0  0  0  0
    8.3351    5.5235   15.4478 C   0  0  0  0  0  0  0  0  0  0  0  0
    8.7700    7.8434   21.3915 C   0  0  0  0  0  0  0  0  0  0  0  0
   11.7856    6.8851   19.2401 C   0  0  0  0  0  0  0  0  0  0  0  0
   10.5281    7.4276   19.5649 C   0  0  0  0  0  0  0  0  0  0  0  0
   10.0256    7.2907   20.8484 C   0  0  0  0  0  0  0  0  0  0  0  0
    9.3113    5.3049   14.4911 C   0  0  0  0  0  0  0  0  0  0  0  0
    9.4607    7.5646   16.0139 C   0  0  0  0  0  0  0  0  0  0  0  0
   10.4192    7.3157   15.0955 C   0  0  0  0  0  0  0  0  0  0  0  0
   10.2489    6.4227   23.0218 N   0  0  0  0  0  0  0  0  0  0  0  0
    7.2472    8.0746   23.5050 C   0  0  0  0  0  0  0  0  0  0  0  0
    9.2051    6.9101   23.4604 C   0  0  0  0  0  0  0  0  0  0  0  0
   11.9646    6.0299   21.4251 C   0  0  0  0  0  0  0  0  0  0  0  0
  1  5  1  0
  1 13  1  0
  2 20  2  0
  2 28  1  0
  2 29  1  0
  3 19  4  0
  3 25  4  0
  4 23  4  0
  4 27  1  0
  4 30  4  0
  5 17  1  0
  6  8  1  0
  6 29  1  0
  7 24  4  0
  7 26  4  0
  8 28  1  0
  9 13  2  0
 10 18  1  0
 10 21  4  0
 10 30  4  0
 11 17  2  0
 12 18  1  0
 13 15  1  0
 14 24  1  0
 15 25  1  0
 16 28  2  0
 17 20  1  0
 19 24  4  0
 20 23  1  0
 21 22  4  0
 22 23  4  0
 25 26  4  0
 27 29  2  0
M  END
$$$$

 Created by Python create_sdf_string function

 30 33  0  0  0  0  0  0  0  0999 V2000
    8.3036    9.8571   18.4133 C   0  0  0  0  0  0  0  0  0  0  0  0
    8.3694    7.6612   22.6703 C   0  0  0  0  0  0  0  0  0  0  0  0
    8.4143    6.6863   16.2273 C   0  0  0  0  0  0  0  0  0  0  0  0
   10.7581    6.5674   21.7636 C   0  0  0  0  0  0  0  0  0  0  0  0
    8.4452    8.7960   19.2958 O   0  0  0  0  0  0  0  0  0  0  0  0
    8.7122    6.7842   24.8569 C   0  0  0  0  0  0  0  0  0  0  0  0
   10.3400    6.1726   14.3081 C   0  0  0  0  0  0  0  0  0  0  0  0
    7.4297    7.5873   24.8962 C   0  0  0  0  0  0  0  0  0  0  0  0
    8.1566   10.0536   16.0516 O   0  0  0  0  0  0  0  0  0  0  0  0
   12.4989    6.2074   20.1776 C   0  0  0  0  0  0  0  0  0  0  0  0
    6.9192    9.1053   20.9073 O   0  0  0  0  0  0  0  0  0  0  0  0
   14.3979    6.0729   18.7784 C   0  0  0  0  0  0  0  0  0  0  0  0
    8.6811    9.5354   16.9998 C   0  0  0  0  0  0  0  0  0  0  0  0
    9.2512    4.2713   13.7653 O   0  0  0  0  0  0  0  0  0  0  0  0
    9.6495    8.6317   16.8332 N   0  0  0  0  0  0  0  0  0  0  0  0
    6.2934    8.6988   23.1988 O   0  0  0  0  0  0  0  0  0  0  0  0
    7.9806    8.6543   20.5437 C   0  0  0  0  0  0  0  0  0  0  0  0
   13.7270    5.7144   19.8610 O   0  0  0  0  0  0  0  0  0  0  0  0
    8.3351    5.5235   15.4478 C   0  0  0  0  0  0  0  0  0  0  0  0
    8.7700    7.8434   21.3915 C   0  0  0  0  0  0  0  0  0  0  0  0
   11.7856    6.8851   19.2401 C   0  0  0  0  0  0  0  0  0  0  0  0
   10.5281    7.4276   19.5649 C   0  0  0  0  0  0  0  0  0  0  0  0
   10.0256    7.2907   20.8484 C   0  0  0  0  0  0  0  0  0  0  0  0
    9.3113    5.3049   14.4911 C   0  0  0  0  0  0  0  0  0  0  0  0
    9.4607    7.5646   16.0139 C   0  0  0  0  0  0  0  0  0  0  0  0
   10.4192    7.3157   15.0955 C   0  0  0  0  0  0  0  0  0  0  0  0
   10.2489    6.4227   23.0218 N   0  0  0  0  0  0  0  0  0  0  0  0
    7.2472    8.0746   23.5050 C   0  0  0  0  0  0  0  0  0  0  0  0
    9.2051    6.9101   23.4604 C   0  0  0  0  0  0  0  0  0  0  0  0
   11.9646    6.0299   21.4251 C   0  0  0  0  0  0  0  0  0  0  0  0
  1  5  1  0
  1 13  1  0
  2 20  2  0
  2 28  1  0
  2 29  1  0
  3 19  4  0
  3 25  4  0
  4 23  4  0
  4 27  1  0
  4 30  4  0
  5 17  1  0
  6  8  1  0
  6 29  1  0
  7 24  4  0
  7 26  4  0
  8 28  1  0
  9 13  2  0
 10 18  1  0
 10 21  4  0
 10 30  4  0
 11 17  2  0
 12 18  1  0
 13 15  1  0
 14 24  1  0
 15 25  1  0
 16 28  2  0
 17 20  1  0
 19 24  4  0
 20 23  1  0
 21 22  4  0
 22 23  4  0
 25 26  4  0
 27 29  2  0
M  END
$$$$

 Created by Python create_sdf_string function

 30 33  0  0  0  0  0  0  0  0999 V2000
    8.3036    9.8571   18.4133 C   0  0  0  0  0  0  0  0  0  0  0  0
    8.3694    7.6612   22.6703 C   0  0  0  0  0  0  0  0  0  0  0  0
    8.4143    6.6863   16.2273 C   0  0  0  0  0  0  0  0  0  0  0  0
   10.7581    6.5674   21.7636 C   0  0  0  0  0  0  0  0  0  0  0  0
    8.4452    8.7960   19.2958 O   0  0  0  0  0  0  0  0  0  0  0  0
    8.7122    6.7842   24.8569 C   0  0  0  0  0  0  0  0  0  0  0  0
   10.3400    6.1726   14.3081 C   0  0  0  0  0  0  0  0  0  0  0  0
    7.4297    7.5873   24.8962 C   0  0  0  0  0  0  0  0  0  0  0  0
    8.1566   10.0536   16.0516 O   0  0  0  0  0  0  0  0  0  0  0  0
   12.4989    6.2074   20.1776 C   0  0  0  0  0  0  0  0  0  0  0  0
    6.9192    9.1053   20.9073 O   0  0  0  0  0  0  0  0  0  0  0  0
   14.3979    6.0729   18.7784 C   0  0  0  0  0  0  0  0  0  0  0  0
    8.6811    9.5354   16.9998 C   0  0  0  0  0  0  0  0  0  0  0  0
    9.2512    4.2713   13.7653 O   0  0  0  0  0  0  0  0  0  0  0  0
    9.6495    8.6317   16.8332 N   0  0  0  0  0  0  0  0  0  0  0  0
    6.2934    8.6988   23.1988 O   0  0  0  0  0  0  0  0  0  0  0  0
    7.9806    8.6543   20.5437 C   0  0  0  0  0  0  0  0  0  0  0  0
   13.7270    5.7144   19.8610 O   0  0  0  0  0  0  0  0  0  0  0  0
    8.3351    5.5235   15.4478 C   0  0  0  0  0  0  0  0  0  0  0  0
    8.7700    7.8434   21.3915 C   0  0  0  0  0  0  0  0  0  0  0  0
   11.7856    6.8851   19.2401 C   0  0  0  0  0  0  0  0  0  0  0  0
   10.5281    7.4276   19.5649 C   0  0  0  0  0  0  0  0  0  0  0  0
   10.0256    7.2907   20.8484 C   0  0  0  0  0  0  0  0  0  0  0  0
    9.3113    5.3049   14.4911 C   0  0  0  0  0  0  0  0  0  0  0  0
    9.4607    7.5646   16.0139 C   0  0  0  0  0  0  0  0  0  0  0  0
   10.4192    7.3157   15.0955 C   0  0  0  0  0  0  0  0  0  0  0  0
   10.2489    6.4227   23.0218 N   0  0  0  0  0  0  0  0  0  0  0  0
    7.2472    8.0746   23.5050 C   0  0  0  0  0  0  0  0  0  0  0  0
    9.2051    6.9101   23.4604 C   0  0  0  0  0  0  0  0  0  0  0  0
   11.9646    6.0299   21.4251 C   0  0  0  0  0  0  0  0  0  0  0  0
  1  5  1  0
  1 13  1  0
  2 20  2  0
  2 28  1  0
  2 29  1  0
  3 19  4  0
  3 25  4  0
  4 23  4  0
  4 27  1  0
  4 30  4  0
  5 17  1  0
  6  8  1  0
  6 29  1  0
  7 24  4  0
  7 26  4  0
  8 28  1  0
  9 13  2  0
 10 18  1  0
 10 21  4  0
 10 30  4  0
 11 17  2  0
 12 18  1  0
 13 15  1  0
 14 24  1  0
 15 25  1  0
 16 28  2  0
 17 20  1  0
 19 24  4  0
 20 23  1  0
 21 22  4  0
 22 23  4  0
 25 26  4  0
 27 29  2  0
M  END
$$$$

 Created by Python create_sdf_string function

 30 33  0  0  0  0  0  0  0  0999 V2000
    8.3036    9.8571   18.4133 C   0  0  0  0  0  0  0  0  0  0  0  0
    8.3694    7.6612   22.6703 C   0  0  0  0  0  0  0  0  0  0  0  0
    8.4143    6.6863   16.2273 C   0  0  0  0  0  0  0  0  0  0  0  0
   10.7581    6.5674   21.7636 C   0  0  0  0  0  0  0  0  0  0  0  0
    8.4452    8.7960   19.2958 O   0  0  0  0  0  0  0  0  0  0  0  0
    8.7122    6.7842   24.8569 C   0  0  0  0  0  0  0  0  0  0  0  0
   10.3400    6.1726   14.3081 C   0  0  0  0  0  0  0  0  0  0  0  0
    7.4297    7.5873   24.8962 C   0  0  0  0  0  0  0  0  0  0  0  0
    8.1566   10.0536   16.0516 O   0  0  0  0  0  0  0  0  0  0  0  0
   12.4989    6.2074   20.1776 C   0  0  0  0  0  0  0  0  0  0  0  0
    6.9192    9.1053   20.9073 O   0  0  0  0  0  0  0  0  0  0  0  0
   14.3979    6.0729   18.7784 C   0  0  0  0  0  0  0  0  0  0  0  0
    8.6811    9.5354   16.9998 C   0  0  0  0  0  0  0  0  0  0  0  0
    9.2512    4.2713   13.7653 O   0  0  0  0  0  0  0  0  0  0  0  0
    9.6495    8.6317   16.8332 N   0  0  0  0  0  0  0  0  0  0  0  0
    6.2934    8.6988   23.1988 O   0  0  0  0  0  0  0  0  0  0  0  0
    7.9806    8.6543   20.5437 C   0  0  0  0  0  0  0  0  0  0  0  0
   13.7270    5.7144   19.8610 O   0  0  0  0  0  0  0  0  0  0  0  0
    8.3351    5.5235   15.4478 C   0  0  0  0  0  0  0  0  0  0  0  0
    8.7700    7.8434   21.3915 C   0  0  0  0  0  0  0  0  0  0  0  0
   11.7856    6.8851   19.2401 C   0  0  0  0  0  0  0  0  0  0  0  0
   10.5281    7.4276   19.5649 C   0  0  0  0  0  0  0  0  0  0  0  0
   10.0256    7.2907   20.8484 C   0  0  0  0  0  0  0  0  0  0  0  0
    9.3113    5.3049   14.4911 C   0  0  0  0  0  0  0  0  0  0  0  0
    9.4607    7.5646   16.0139 C   0  0  0  0  0  0  0  0  0  0  0  0
   10.4192    7.3157   15.0955 C   0  0  0  0  0  0  0  0  0  0  0  0
   10.2489    6.4227   23.0218 N   0  0  0  0  0  0  0  0  0  0  0  0
    7.2472    8.0746   23.5050 C   0  0  0  0  0  0  0  0  0  0  0  0
    9.2051    6.9101   23.4604 C   0  0  0  0  0  0  0  0  0  0  0  0
   11.9646    6.0299   21.4251 C   0  0  0  0  0  0  0  0  0  0  0  0
  1  5  1  0
  1 13  1  0
  2 20  2  0
  2 28  1  0
  2 29  1  0
  3 19  4  0
  3 25  4  0
  4 23  4  0
  4 27  1  0
  4 30  4  0
  5 17  1  0
  6  8  1  0
  6 29  1  0
  7 24  4  0
  7 26  4  0
  8 28  1  0
  9 13  2  0
 10 18  1  0
 10 21  4  0
 10 30  4  0
 11 17  2  0
 12 18  1  0
 13 15  1  0
 14 24  1  0
 15 25  1  0
 16 28  2  0
 17 20  1  0
 19 24  4  0
 20 23  1  0
 21 22  4  0
 22 23  4  0
 25 26  4  0
 27 29  2  0
M  END
$$$$

 Created by Python create_sdf_string function

 30 33  0  0  0  0  0  0  0  0999 V2000
    8.3036    9.8571   18.4133 C   0  0  0  0  0  0  0  0  0  0  0  0
    8.3694    7.6612   22.6703 C   0  0  0  0  0  0  0  0  0  0  0  0
    8.4143    6.6863   16.2273 C   0  0  0  0  0  0  0  0  0  0  0  0
   10.7581    6.5674   21.7636 C   0  0  0  0  0  0  0  0  0  0  0  0
    8.4452    8.7960   19.2958 O   0  0  0  0  0  0  0  0  0  0  0  0
    8.7122    6.7842   24.8569 C   0  0  0  0  0  0  0  0  0  0  0  0
   10.3400    6.1726   14.3081 C   0  0  0  0  0  0  0  0  0  0  0  0
    7.4297    7.5873   24.8962 C   0  0  0  0  0  0  0  0  0  0  0  0
    8.1566   10.0536   16.0516 O   0  0  0  0  0  0  0  0  0  0  0  0
   12.4989    6.2074   20.1776 C   0  0  0  0  0  0  0  0  0  0  0  0
    6.9192    9.1053   20.9073 O   0  0  0  0  0  0  0  0  0  0  0  0
   14.3979    6.0729   18.7784 C   0  0  0  0  0  0  0  0  0  0  0  0
    8.6811    9.5354   16.9998 C   0  0  0  0  0  0  0  0  0  0  0  0
    9.2512    4.2713   13.7653 O   0  0  0  0  0  0  0  0  0  0  0  0
    9.6495    8.6317   16.8332 N   0  0  0  0  0  0  0  0  0  0  0  0
    6.2934    8.6988   23.1988 O   0  0  0  0  0  0  0  0  0  0  0  0
    7.9806    8.6543   20.5437 C   0  0  0  0  0  0  0  0  0  0  0  0
   13.7270    5.7144   19.8610 O   0  0  0  0  0  0  0  0  0  0  0  0
    8.3351    5.5235   15.4478 C   0  0  0  0  0  0  0  0  0  0  0  0
    8.7700    7.8434   21.3915 C   0  0  0  0  0  0  0  0  0  0  0  0
   11.7856    6.8851   19.2401 C   0  0  0  0  0  0  0  0  0  0  0  0
   10.5281    7.4276   19.5649 C   0  0  0  0  0  0  0  0  0  0  0  0
   10.0256    7.2907   20.8484 C   0  0  0  0  0  0  0  0  0  0  0  0
    9.3113    5.3049   14.4911 C   0  0  0  0  0  0  0  0  0  0  0  0
    9.4607    7.5646   16.0139 C   0  0  0  0  0  0  0  0  0  0  0  0
   10.4192    7.3157   15.0955 C   0  0  0  0  0  0  0  0  0  0  0  0
   10.2489    6.4227   23.0218 N   0  0  0  0  0  0  0  0  0  0  0  0
    7.2472    8.0746   23.5050 C   0  0  0  0  0  0  0  0  0  0  0  0
    9.2051    6.9101   23.4604 C   0  0  0  0  0  0  0  0  0  0  0  0
   11.9646    6.0299   21.4251 C   0  0  0  0  0  0  0  0  0  0  0  0
  1  5  1  0
  1 13  1  0
  2 20  2  0
  2 28  1  0
  2 29  1  0
  3 19  4  0
  3 25  4  0
  4 23  4  0
  4 27  1  0
  4 30  4  0
  5 17  1  0
  6  8  1  0
  6 29  1  0
  7 24  4  0
  7 26  4  0
  8 28  1  0
  9 13  2  0
 10 18  1  0
 10 21  4  0
 10 30  4  0
 11 17  2  0
 12 18  1  0
 13 15  1  0
 14 24  1  0
 15 25  1  0
 16 28  2  0
 17 20  1  0
 19 24  4  0
 20 23  1  0
 21 22  4  0
 22 23  4  0
 25 26  4  0
 27 29  2  0
M  END
$$$$

 Created by Python create_sdf_string function

 30 33  0  0  0  0  0  0  0  0999 V2000
    8.3036    9.8571   18.4133 C   0  0  0  0  0  0  0  0  0  0  0  0
    8.3694    7.6612   22.6703 C   0  0  0  0  0  0  0  0  0  0  0  0
    8.4143    6.6863   16.2273 C   0  0  0  0  0  0  0  0  0  0  0  0
   10.7581    6.5674   21.7636 C   0  0  0  0  0  0  0  0  0  0  0  0
    8.4452    8.7960   19.2958 O   0  0  0  0  0  0  0  0  0  0  0  0
    8.7122    6.7842   24.8569 C   0  0  0  0  0  0  0  0  0  0  0  0
   10.3400    6.1726   14.3081 C   0  0  0  0  0  0  0  0  0  0  0  0
    7.4297    7.5873   24.8962 C   0  0  0  0  0  0  0  0  0  0  0  0
    8.1566   10.0536   16.0516 O   0  0  0  0  0  0  0  0  0  0  0  0
   12.4989    6.2074   20.1776 C   0  0  0  0  0  0  0  0  0  0  0  0
    6.9192    9.1053   20.9073 O   0  0  0  0  0  0  0  0  0  0  0  0
   14.3979    6.0729   18.7784 C   0  0  0  0  0  0  0  0  0  0  0  0
    8.6811    9.5354   16.9998 C   0  0  0  0  0  0  0  0  0  0  0  0
    9.2512    4.2713   13.7653 O   0  0  0  0  0  0  0  0  0  0  0  0
    9.6495    8.6317   16.8332 N   0  0  0  0  0  0  0  0  0  0  0  0
    6.2934    8.6988   23.1988 O   0  0  0  0  0  0  0  0  0  0  0  0
    7.9806    8.6543   20.5437 C   0  0  0  0  0  0  0  0  0  0  0  0
   13.7270    5.7144   19.8610 O   0  0  0  0  0  0  0  0  0  0  0  0
    8.3351    5.5235   15.4478 C   0  0  0  0  0  0  0  0  0  0  0  0
    8.7700    7.8434   21.3915 C   0  0  0  0  0  0  0  0  0  0  0  0
   11.7856    6.8851   19.2401 C   0  0  0  0  0  0  0  0  0  0  0  0
   10.5281    7.4276   19.5649 C   0  0  0  0  0  0  0  0  0  0  0  0
   10.0256    7.2907   20.8484 C   0  0  0  0  0  0  0  0  0  0  0  0
    9.3113    5.3049   14.4911 C   0  0  0  0  0  0  0  0  0  0  0  0
    9.4607    7.5646   16.0139 C   0  0  0  0  0  0  0  0  0  0  0  0
   10.4192    7.3157   15.0955 C   0  0  0  0  0  0  0  0  0  0  0  0
   10.2489    6.4227   23.0218 N   0  0  0  0  0  0  0  0  0  0  0  0
    7.2472    8.0746   23.5050 C   0  0  0  0  0  0  0  0  0  0  0  0
    9.2051    6.9101   23.4604 C   0  0  0  0  0  0  0  0  0  0  0  0
   11.9646    6.0299   21.4251 C   0  0  0  0  0  0  0  0  0  0  0  0
  1  5  1  0
  1 13  1  0
  2 20  2  0
  2 28  1  0
  2 29  1  0
  3 19  4  0
  3 25  4  0
  4 23  4  0
  4 27  1  0
  4 30  4  0
  5 17  1  0
  6  8  1  0
  6 29  1  0
  7 24  4  0
  7 26  4  0
  8 28  1  0
  9 13  2  0
 10 18  1  0
 10 21  4  0
 10 30  4  0
 11 17  2  0
 12 18  1  0
 13 15  1  0
 14 24  1  0
 15 25  1  0
 16 28  2  0
 17 20  1  0
 19 24  4  0
 20 23  1  0
 21 22  4  0
 22 23  4  0
 25 26  4  0
 27 29  2  0
M  END
$$$$

 Created by Python create_sdf_string function

 30 33  0  0  0  0  0  0  0  0999 V2000
    8.3036    9.8571   18.4133 C   0  0  0  0  0  0  0  0  0  0  0  0
    8.3694    7.6612   22.6703 C   0  0  0  0  0  0  0  0  0  0  0  0
    8.4143    6.6863   16.2273 C   0  0  0  0  0  0  0  0  0  0  0  0
   10.7581    6.5674   21.7636 C   0  0  0  0  0  0  0  0  0  0  0  0
    8.4452    8.7960   19.2958 O   0  0  0  0  0  0  0  0  0  0  0  0
    8.7122    6.7842   24.8569 C   0  0  0  0  0  0  0  0  0  0  0  0
   10.3400    6.1726   14.3081 C   0  0  0  0  0  0  0  0  0  0  0  0
    7.4297    7.5873   24.8962 C   0  0  0  0  0  0  0  0  0  0  0  0
    8.1566   10.0536   16.0516 O   0  0  0  0  0  0  0  0  0  0  0  0
   12.4989    6.2074   20.1776 C   0  0  0  0  0  0  0  0  0  0  0  0
    6.9192    9.1053   20.9073 O   0  0  0  0  0  0  0  0  0  0  0  0
   14.3979    6.0729   18.7784 C   0  0  0  0  0  0  0  0  0  0  0  0
    8.6811    9.5354   16.9998 C   0  0  0  0  0  0  0  0  0  0  0  0
    9.2512    4.2713   13.7653 O   0  0  0  0  0  0  0  0  0  0  0  0
    9.6495    8.6317   16.8332 N   0  0  0  0  0  0  0  0  0  0  0  0
    6.2934    8.6988   23.1988 O   0  0  0  0  0  0  0  0  0  0  0  0
    7.9806    8.6543   20.5437 C   0  0  0  0  0  0  0  0  0  0  0  0
   13.7270    5.7144   19.8610 O   0  0  0  0  0  0  0  0  0  0  0  0
    8.3351    5.5235   15.4478 C   0  0  0  0  0  0  0  0  0  0  0  0
    8.7700    7.8434   21.3915 C   0  0  0  0  0  0  0  0  0  0  0  0
   11.7856    6.8851   19.2401 C   0  0  0  0  0  0  0  0  0  0  0  0
   10.5281    7.4276   19.5649 C   0  0  0  0  0  0  0  0  0  0  0  0
   10.0256    7.2907   20.8484 C   0  0  0  0  0  0  0  0  0  0  0  0
    9.3113    5.3049   14.4911 C   0  0  0  0  0  0  0  0  0  0  0  0
    9.4607    7.5646   16.0139 C   0  0  0  0  0  0  0  0  0  0  0  0
   10.4192    7.3157   15.0955 C   0  0  0  0  0  0  0  0  0  0  0  0
   10.2489    6.4227   23.0218 N   0  0  0  0  0  0  0  0  0  0  0  0
    7.2472    8.0746   23.5050 C   0  0  0  0  0  0  0  0  0  0  0  0
    9.2051    6.9101   23.4604 C   0  0  0  0  0  0  0  0  0  0  0  0
   11.9646    6.0299   21.4251 C   0  0  0  0  0  0  0  0  0  0  0  0
  1  5  1  0
  1 13  1  0
  2 20  2  0
  2 28  1  0
  2 29  1  0
  3 19  4  0
  3 25  4  0
  4 23  4  0
  4 27  1  0
  4 30  4  0
  5 17  1  0
  6  8  1  0
  6 29  1  0
  7 24  4  0
  7 26  4  0
  8 28  1  0
  9 13  2  0
 10 18  1  0
 10 21  4  0
 10 30  4  0
 11 17  2  0
 12 18  1  0
 13 15  1  0
 14 24  1  0
 15 25  1  0
 16 28  2  0
 17 20  1  0
 19 24  4  0
 20 23  1  0
 21 22  4  0
 22 23  4  0
 25 26  4  0
 27 29  2  0
M  END
$$$$

 Created by Python create_sdf_string function

 30 33  0  0  0  0  0  0  0  0999 V2000
    8.3036    9.8571   18.4133 C   0  0  0  0  0  0  0  0  0  0  0  0
    8.3694    7.6612   22.6703 C   0  0  0  0  0  0  0  0  0  0  0  0
    8.4143    6.6863   16.2273 C   0  0  0  0  0  0  0  0  0  0  0  0
   10.7581    6.5674   21.7636 C   0  0  0  0  0  0  0  0  0  0  0  0
    8.4452    8.7960   19.2958 O   0  0  0  0  0  0  0  0  0  0  0  0
    8.7122    6.7842   24.8569 C   0  0  0  0  0  0  0  0  0  0  0  0
   10.3400    6.1726   14.3081 C   0  0  0  0  0  0  0  0  0  0  0  0
    7.4297    7.5873   24.8962 C   0  0  0  0  0  0  0  0  0  0  0  0
    8.1566   10.0536   16.0516 O   0  0  0  0  0  0  0  0  0  0  0  0
   12.4989    6.2074   20.1776 C   0  0  0  0  0  0  0  0  0  0  0  0
    6.9192    9.1053   20.9073 O   0  0  0  0  0  0  0  0  0  0  0  0
   14.3979    6.0729   18.7784 C   0  0  0  0  0  0  0  0  0  0  0  0
    8.6811    9.5354   16.9998 C   0  0  0  0  0  0  0  0  0  0  0  0
    9.2512    4.2713   13.7653 O   0  0  0  0  0  0  0  0  0  0  0  0
    9.6495    8.6317   16.8332 N   0  0  0  0  0  0  0  0  0  0  0  0
    6.2934    8.6988   23.1988 O   0  0  0  0  0  0  0  0  0  0  0  0
    7.9806    8.6543   20.5437 C   0  0  0  0  0  0  0  0  0  0  0  0
   13.7270    5.7144   19.8610 O   0  0  0  0  0  0  0  0  0  0  0  0
    8.3351    5.5235   15.4478 C   0  0  0  0  0  0  0  0  0  0  0  0
    8.7700    7.8434   21.3915 C   0  0  0  0  0  0  0  0  0  0  0  0
   11.7856    6.8851   19.2401 C   0  0  0  0  0  0  0  0  0  0  0  0
   10.5281    7.4276   19.5649 C   0  0  0  0  0  0  0  0  0  0  0  0
   10.0256    7.2907   20.8484 C   0  0  0  0  0  0  0  0  0  0  0  0
    9.3113    5.3049   14.4911 C   0  0  0  0  0  0  0  0  0  0  0  0
    9.4607    7.5646   16.0139 C   0  0  0  0  0  0  0  0  0  0  0  0
   10.4192    7.3157   15.0955 C   0  0  0  0  0  0  0  0  0  0  0  0
   10.2489    6.4227   23.0218 N   0  0  0  0  0  0  0  0  0  0  0  0
    7.2472    8.0746   23.5050 C   0  0  0  0  0  0  0  0  0  0  0  0
    9.2051    6.9101   23.4604 C   0  0  0  0  0  0  0  0  0  0  0  0
   11.9646    6.0299   21.4251 C   0  0  0  0  0  0  0  0  0  0  0  0
  1  5  1  0
  1 13  1  0
  2 20  2  0
  2 28  1  0
  2 29  1  0
  3 19  4  0
  3 25  4  0
  4 23  4  0
  4 27  1  0
  4 30  4  0
  5 17  1  0
  6  8  1  0
  6 29  1  0
  7 24  4  0
  7 26  4  0
  8 28  1  0
  9 13  2  0
 10 18  1  0
 10 21  4  0
 10 30  4  0
 11 17  2  0
 12 18  1  0
 13 15  1  0
 14 24  1  0
 15 25  1  0
 16 28  2  0
 17 20  1  0
 19 24  4  0
 20 23  1  0
 21 22  4  0
 22 23  4  0
 25 26  4  0
 27 29  2  0
M  END
$$$$

 Created by Python create_sdf_string function

 30 33  0  0  0  0  0  0  0  0999 V2000
    8.3036    9.8571   18.4133 C   0  0  0  0  0  0  0  0  0  0  0  0
    8.3694    7.6612   22.6703 C   0  0  0  0  0  0  0  0  0  0  0  0
    8.4143    6.6863   16.2273 C   0  0  0  0  0  0  0  0  0  0  0  0
   10.7581    6.5674   21.7636 C   0  0  0  0  0  0  0  0  0  0  0  0
    8.4452    8.7960   19.2958 O   0  0  0  0  0  0  0  0  0  0  0  0
    8.7122    6.7842   24.8569 C   0  0  0  0  0  0  0  0  0  0  0  0
   10.3400    6.1726   14.3081 C   0  0  0  0  0  0  0  0  0  0  0  0
    7.4297    7.5873   24.8962 C   0  0  0  0  0  0  0  0  0  0  0  0
    8.1566   10.0536   16.0516 O   0  0  0  0  0  0  0  0  0  0  0  0
   12.4989    6.2074   20.1776 C   0  0  0  0  0  0  0  0  0  0  0  0
    6.9192    9.1053   20.9073 O   0  0  0  0  0  0  0  0  0  0  0  0
   14.3979    6.0729   18.7784 C   0  0  0  0  0  0  0  0  0  0  0  0
    8.6811    9.5354   16.9998 C   0  0  0  0  0  0  0  0  0  0  0  0
    9.2512    4.2713   13.7653 O   0  0  0  0  0  0  0  0  0  0  0  0
    9.6495    8.6317   16.8332 N   0  0  0  0  0  0  0  0  0  0  0  0
    6.2934    8.6988   23.1988 O   0  0  0  0  0  0  0  0  0  0  0  0
    7.9806    8.6543   20.5437 C   0  0  0  0  0  0  0  0  0  0  0  0
   13.7270    5.7144   19.8610 O   0  0  0  0  0  0  0  0  0  0  0  0
    8.3351    5.5235   15.4478 C   0  0  0  0  0  0  0  0  0  0  0  0
    8.7700    7.8434   21.3915 C   0  0  0  0  0  0  0  0  0  0  0  0
   11.7856    6.8851   19.2401 C   0  0  0  0  0  0  0  0  0  0  0  0
   10.5281    7.4276   19.5649 C   0  0  0  0  0  0  0  0  0  0  0  0
   10.0256    7.2907   20.8484 C   0  0  0  0  0  0  0  0  0  0  0  0
    9.3113    5.3049   14.4911 C   0  0  0  0  0  0  0  0  0  0  0  0
    9.4607    7.5646   16.0139 C   0  0  0  0  0  0  0  0  0  0  0  0
   10.4192    7.3157   15.0955 C   0  0  0  0  0  0  0  0  0  0  0  0
   10.2489    6.4227   23.0218 N   0  0  0  0  0  0  0  0  0  0  0  0
    7.2472    8.0746   23.5050 C   0  0  0  0  0  0  0  0  0  0  0  0
    9.2051    6.9101   23.4604 C   0  0  0  0  0  0  0  0  0  0  0  0
   11.9646    6.0299   21.4251 C   0  0  0  0  0  0  0  0  0  0  0  0
  1  5  1  0
  1 13  1  0
  2 20  2  0
  2 28  1  0
  2 29  1  0
  3 19  4  0
  3 25  4  0
  4 23  4  0
  4 27  1  0
  4 30  4  0
  5 17  1  0
  6  8  1  0
  6 29  1  0
  7 24  4  0
  7 26  4  0
  8 28  1  0
  9 13  2  0
 10 18  1  0
 10 21  4  0
 10 30  4  0
 11 17  2  0
 12 18  1  0
 13 15  1  0
 14 24  1  0
 15 25  1  0
 16 28  2  0
 17 20  1  0
 19 24  4  0
 20 23  1  0
 21 22  4  0
 22 23  4  0
 25 26  4  0
 27 29  2  0
M  END
$$$$

 Created by Python create_sdf_string function

 30 33  0  0  0  0  0  0  0  0999 V2000
    8.3036    9.8571   18.4133 C   0  0  0  0  0  0  0  0  0  0  0  0
    8.3694    7.6612   22.6703 C   0  0  0  0  0  0  0  0  0  0  0  0
    8.4143    6.6863   16.2273 C   0  0  0  0  0  0  0  0  0  0  0  0
   10.7581    6.5674   21.7636 C   0  0  0  0  0  0  0  0  0  0  0  0
    8.4452    8.7960   19.2958 O   0  0  0  0  0  0  0  0  0  0  0  0
    8.7122    6.7842   24.8569 C   0  0  0  0  0  0  0  0  0  0  0  0
   10.3400    6.1726   14.3081 C   0  0  0  0  0  0  0  0  0  0  0  0
    7.4297    7.5873   24.8962 C   0  0  0  0  0  0  0  0  0  0  0  0
    8.1566   10.0536   16.0516 O   0  0  0  0  0  0  0  0  0  0  0  0
   12.4989    6.2074   20.1776 C   0  0  0  0  0  0  0  0  0  0  0  0
    6.9192    9.1053   20.9073 O   0  0  0  0  0  0  0  0  0  0  0  0
   14.3979    6.0729   18.7784 C   0  0  0  0  0  0  0  0  0  0  0  0
    8.6811    9.5354   16.9998 C   0  0  0  0  0  0  0  0  0  0  0  0
    9.2512    4.2713   13.7653 O   0  0  0  0  0  0  0  0  0  0  0  0
    9.6495    8.6317   16.8332 N   0  0  0  0  0  0  0  0  0  0  0  0
    6.2934    8.6988   23.1988 O   0  0  0  0  0  0  0  0  0  0  0  0
    7.9806    8.6543   20.5437 C   0  0  0  0  0  0  0  0  0  0  0  0
   13.7270    5.7144   19.8610 O   0  0  0  0  0  0  0  0  0  0  0  0
    8.3351    5.5235   15.4478 C   0  0  0  0  0  0  0  0  0  0  0  0
    8.7700    7.8434   21.3915 C   0  0  0  0  0  0  0  0  0  0  0  0
   11.7856    6.8851   19.2401 C   0  0  0  0  0  0  0  0  0  0  0  0
   10.5281    7.4276   19.5649 C   0  0  0  0  0  0  0  0  0  0  0  0
   10.0256    7.2907   20.8484 C   0  0  0  0  0  0  0  0  0  0  0  0
    9.3113    5.3049   14.4911 C   0  0  0  0  0  0  0  0  0  0  0  0
    9.4607    7.5646   16.0139 C   0  0  0  0  0  0  0  0  0  0  0  0
   10.4192    7.3157   15.0955 C   0  0  0  0  0  0  0  0  0  0  0  0
   10.2489    6.4227   23.0218 N   0  0  0  0  0  0  0  0  0  0  0  0
    7.2472    8.0746   23.5050 C   0  0  0  0  0  0  0  0  0  0  0  0
    9.2051    6.9101   23.4604 C   0  0  0  0  0  0  0  0  0  0  0  0
   11.9646    6.0299   21.4251 C   0  0  0  0  0  0  0  0  0  0  0  0
  1  5  1  0
  1 13  1  0
  2 20  2  0
  2 28  1  0
  2 29  1  0
  3 19  4  0
  3 25  4  0
  4 23  4  0
  4 27  1  0
  4 30  4  0
  5 17  1  0
  6  8  1  0
  6 29  1  0
  7 24  4  0
  7 26  4  0
  8 28  1  0
  9 13  2  0
 10 18  1  0
 10 21  4  0
 10 30  4  0
 11 17  2  0
 12 18  1  0
 13 15  1  0
 14 24  1  0
 15 25  1  0
 16 28  2  0
 17 20  1  0
 19 24  4  0
 20 23  1  0
 21 22  4  0
 22 23  4  0
 25 26  4  0
 27 29  2  0
M  END
$$$$

 Created by Python create_sdf_string function

 30 33  0  0  0  0  0  0  0  0999 V2000
    8.3036    9.8571   18.4133 C   0  0  0  0  0  0  0  0  0  0  0  0
    8.3694    7.6612   22.6703 C   0  0  0  0  0  0  0  0  0  0  0  0
    8.4143    6.6863   16.2273 C   0  0  0  0  0  0  0  0  0  0  0  0
   10.7581    6.5674   21.7636 C   0  0  0  0  0  0  0  0  0  0  0  0
    8.4452    8.7960   19.2958 O   0  0  0  0  0  0  0  0  0  0  0  0
    8.7122    6.7842   24.8569 C   0  0  0  0  0  0  0  0  0  0  0  0
   10.3400    6.1726   14.3081 C   0  0  0  0  0  0  0  0  0  0  0  0
    7.4297    7.5873   24.8962 C   0  0  0  0  0  0  0  0  0  0  0  0
    8.1566   10.0536   16.0516 O   0  0  0  0  0  0  0  0  0  0  0  0
   12.4989    6.2074   20.1776 C   0  0  0  0  0  0  0  0  0  0  0  0
    6.9192    9.1053   20.9073 O   0  0  0  0  0  0  0  0  0  0  0  0
   14.3979    6.0729   18.7784 C   0  0  0  0  0  0  0  0  0  0  0  0
    8.6811    9.5354   16.9998 C   0  0  0  0  0  0  0  0  0  0  0  0
    9.2512    4.2713   13.7653 O   0  0  0  0  0  0  0  0  0  0  0  0
    9.6495    8.6317   16.8332 N   0  0  0  0  0  0  0  0  0  0  0  0
    6.2934    8.6988   23.1988 O   0  0  0  0  0  0  0  0  0  0  0  0
    7.9806    8.6543   20.5437 C   0  0  0  0  0  0  0  0  0  0  0  0
   13.7270    5.7144   19.8610 O   0  0  0  0  0  0  0  0  0  0  0  0
    8.3351    5.5235   15.4478 C   0  0  0  0  0  0  0  0  0  0  0  0
    8.7700    7.8434   21.3915 C   0  0  0  0  0  0  0  0  0  0  0  0
   11.7856    6.8851   19.2401 C   0  0  0  0  0  0  0  0  0  0  0  0
   10.5281    7.4276   19.5649 C   0  0  0  0  0  0  0  0  0  0  0  0
   10.0256    7.2907   20.8484 C   0  0  0  0  0  0  0  0  0  0  0  0
    9.3113    5.3049   14.4911 C   0  0  0  0  0  0  0  0  0  0  0  0
    9.4607    7.5646   16.0139 C   0  0  0  0  0  0  0  0  0  0  0  0
   10.4192    7.3157   15.0955 C   0  0  0  0  0  0  0  0  0  0  0  0
   10.2489    6.4227   23.0218 N   0  0  0  0  0  0  0  0  0  0  0  0
    7.2472    8.0746   23.5050 C   0  0  0  0  0  0  0  0  0  0  0  0
    9.2051    6.9101   23.4604 C   0  0  0  0  0  0  0  0  0  0  0  0
   11.9646    6.0299   21.4251 C   0  0  0  0  0  0  0  0  0  0  0  0
  1  5  1  0
  1 13  1  0
  2 20  2  0
  2 28  1  0
  2 29  1  0
  3 19  4  0
  3 25  4  0
  4 23  4  0
  4 27  1  0
  4 30  4  0
  5 17  1  0
  6  8  1  0
  6 29  1  0
  7 24  4  0
  7 26  4  0
  8 28  1  0
  9 13  2  0
 10 18  1  0
 10 21  4  0
 10 30  4  0
 11 17  2  0
 12 18  1  0
 13 15  1  0
 14 24  1  0
 15 25  1  0
 16 28  2  0
 17 20  1  0
 19 24  4  0
 20 23  1  0
 21 22  4  0
 22 23  4  0
 25 26  4  0
 27 29  2  0
M  END
$$$$

 Created by Python create_sdf_string function

 30 33  0  0  0  0  0  0  0  0999 V2000
    8.3036    9.8571   18.4133 C   0  0  0  0  0  0  0  0  0  0  0  0
    8.3694    7.6612   22.6703 C   0  0  0  0  0  0  0  0  0  0  0  0
    8.4143    6.6863   16.2273 C   0  0  0  0  0  0  0  0  0  0  0  0
   10.7581    6.5674   21.7636 C   0  0  0  0  0  0  0  0  0  0  0  0
    8.4452    8.7960   19.2958 O   0  0  0  0  0  0  0  0  0  0  0  0
    8.7122    6.7842   24.8569 C   0  0  0  0  0  0  0  0  0  0  0  0
   10.3400    6.1726   14.3081 C   0  0  0  0  0  0  0  0  0  0  0  0
    7.4297    7.5873   24.8962 C   0  0  0  0  0  0  0  0  0  0  0  0
    8.1566   10.0536   16.0516 O   0  0  0  0  0  0  0  0  0  0  0  0
   12.4989    6.2074   20.1776 C   0  0  0  0  0  0  0  0  0  0  0  0
    6.9192    9.1053   20.9073 O   0  0  0  0  0  0  0  0  0  0  0  0
   14.3979    6.0729   18.7784 C   0  0  0  0  0  0  0  0  0  0  0  0
    8.6811    9.5354   16.9998 C   0  0  0  0  0  0  0  0  0  0  0  0
    9.2512    4.2713   13.7653 O   0  0  0  0  0  0  0  0  0  0  0  0
    9.6495    8.6317   16.8332 N   0  0  0  0  0  0  0  0  0  0  0  0
    6.2934    8.6988   23.1988 O   0  0  0  0  0  0  0  0  0  0  0  0
    7.9806    8.6543   20.5437 C   0  0  0  0  0  0  0  0  0  0  0  0
   13.7270    5.7144   19.8610 O   0  0  0  0  0  0  0  0  0  0  0  0
    8.3351    5.5235   15.4478 C   0  0  0  0  0  0  0  0  0  0  0  0
    8.7700    7.8434   21.3915 C   0  0  0  0  0  0  0  0  0  0  0  0
   11.7856    6.8851   19.2401 C   0  0  0  0  0  0  0  0  0  0  0  0
   10.5281    7.4276   19.5649 C   0  0  0  0  0  0  0  0  0  0  0  0
   10.0256    7.2907   20.8484 C   0  0  0  0  0  0  0  0  0  0  0  0
    9.3113    5.3049   14.4911 C   0  0  0  0  0  0  0  0  0  0  0  0
    9.4607    7.5646   16.0139 C   0  0  0  0  0  0  0  0  0  0  0  0
   10.4192    7.3157   15.0955 C   0  0  0  0  0  0  0  0  0  0  0  0
   10.2489    6.4227   23.0218 N   0  0  0  0  0  0  0  0  0  0  0  0
    7.2472    8.0746   23.5050 C   0  0  0  0  0  0  0  0  0  0  0  0
    9.2051    6.9101   23.4604 C   0  0  0  0  0  0  0  0  0  0  0  0
   11.9646    6.0299   21.4251 C   0  0  0  0  0  0  0  0  0  0  0  0
  1  5  1  0
  1 13  1  0
  2 20  2  0
  2 28  1  0
  2 29  1  0
  3 19  4  0
  3 25  4  0
  4 23  4  0
  4 27  1  0
  4 30  4  0
  5 17  1  0
  6  8  1  0
  6 29  1  0
  7 24  4  0
  7 26  4  0
  8 28  1  0
  9 13  2  0
 10 18  1  0
 10 21  4  0
 10 30  4  0
 11 17  2  0
 12 18  1  0
 13 15  1  0
 14 24  1  0
 15 25  1  0
 16 28  2  0
 17 20  1  0
 19 24  4  0
 20 23  1  0
 21 22  4  0
 22 23  4  0
 25 26  4  0
 27 29  2  0
M  END
$$$$

 Created by Python create_sdf_string function

 30 33  0  0  0  0  0  0  0  0999 V2000
    8.3036    9.8571   18.4133 C   0  0  0  0  0  0  0  0  0  0  0  0
    8.3694    7.6612   22.6703 C   0  0  0  0  0  0  0  0  0  0  0  0
    8.4143    6.6863   16.2273 C   0  0  0  0  0  0  0  0  0  0  0  0
   10.7581    6.5674   21.7636 C   0  0  0  0  0  0  0  0  0  0  0  0
    8.4452    8.7960   19.2958 O   0  0  0  0  0  0  0  0  0  0  0  0
    8.7122    6.7842   24.8569 C   0  0  0  0  0  0  0  0  0  0  0  0
   10.3400    6.1726   14.3081 C   0  0  0  0  0  0  0  0  0  0  0  0
    7.4297    7.5873   24.8962 C   0  0  0  0  0  0  0  0  0  0  0  0
    8.1566   10.0536   16.0516 O   0  0  0  0  0  0  0  0  0  0  0  0
   12.4989    6.2074   20.1776 C   0  0  0  0  0  0  0  0  0  0  0  0
    6.9192    9.1053   20.9073 O   0  0  0  0  0  0  0  0  0  0  0  0
   14.3979    6.0729   18.7784 C   0  0  0  0  0  0  0  0  0  0  0  0
    8.6811    9.5354   16.9998 C   0  0  0  0  0  0  0  0  0  0  0  0
    9.2512    4.2713   13.7653 O   0  0  0  0  0  0  0  0  0  0  0  0
    9.6495    8.6317   16.8332 N   0  0  0  0  0  0  0  0  0  0  0  0
    6.2934    8.6988   23.1988 O   0  0  0  0  0  0  0  0  0  0  0  0
    7.9806    8.6543   20.5437 C   0  0  0  0  0  0  0  0  0  0  0  0
   13.7270    5.7144   19.8610 O   0  0  0  0  0  0  0  0  0  0  0  0
    8.3351    5.5235   15.4478 C   0  0  0  0  0  0  0  0  0  0  0  0
    8.7700    7.8434   21.3915 C   0  0  0  0  0  0  0  0  0  0  0  0
   11.7856    6.8851   19.2401 C   0  0  0  0  0  0  0  0  0  0  0  0
   10.5281    7.4276   19.5649 C   0  0  0  0  0  0  0  0  0  0  0  0
   10.0256    7.2907   20.8484 C   0  0  0  0  0  0  0  0  0  0  0  0
    9.3113    5.3049   14.4911 C   0  0  0  0  0  0  0  0  0  0  0  0
    9.4607    7.5646   16.0139 C   0  0  0  0  0  0  0  0  0  0  0  0
   10.4192    7.3157   15.0955 C   0  0  0  0  0  0  0  0  0  0  0  0
   10.2489    6.4227   23.0218 N   0  0  0  0  0  0  0  0  0  0  0  0
    7.2472    8.0746   23.5050 C   0  0  0  0  0  0  0  0  0  0  0  0
    9.2051    6.9101   23.4604 C   0  0  0  0  0  0  0  0  0  0  0  0
   11.9646    6.0299   21.4251 C   0  0  0  0  0  0  0  0  0  0  0  0
  1  5  1  0
  1 13  1  0
  2 20  2  0
  2 28  1  0
  2 29  1  0
  3 19  4  0
  3 25  4  0
  4 23  4  0
  4 27  1  0
  4 30  4  0
  5 17  1  0
  6  8  1  0
  6 29  1  0
  7 24  4  0
  7 26  4  0
  8 28  1  0
  9 13  2  0
 10 18  1  0
 10 21  4  0
 10 30  4  0
 11 17  2  0
 12 18  1  0
 13 15  1  0
 14 24  1  0
 15 25  1  0
 16 28  2  0
 17 20  1  0
 19 24  4  0
 20 23  1  0
 21 22  4  0
 22 23  4  0
 25 26  4  0
 27 29  2  0
M  END
$$$$

 Created by Python create_sdf_string function

 30 33  0  0  0  0  0  0  0  0999 V2000
    8.3036    9.8571   18.4133 C   0  0  0  0  0  0  0  0  0  0  0  0
    8.3694    7.6612   22.6703 C   0  0  0  0  0  0  0  0  0  0  0  0
    8.4143    6.6863   16.2273 C   0  0  0  0  0  0  0  0  0  0  0  0
   10.7581    6.5674   21.7636 C   0  0  0  0  0  0  0  0  0  0  0  0
    8.4452    8.7960   19.2958 O   0  0  0  0  0  0  0  0  0  0  0  0
    8.7122    6.7842   24.8569 C   0  0  0  0  0  0  0  0  0  0  0  0
   10.3400    6.1726   14.3081 C   0  0  0  0  0  0  0  0  0  0  0  0
    7.4297    7.5873   24.8962 C   0  0  0  0  0  0  0  0  0  0  0  0
    8.1566   10.0536   16.0516 O   0  0  0  0  0  0  0  0  0  0  0  0
   12.4989    6.2074   20.1776 C   0  0  0  0  0  0  0  0  0  0  0  0
    6.9192    9.1053   20.9073 O   0  0  0  0  0  0  0  0  0  0  0  0
   14.3979    6.0729   18.7784 C   0  0  0  0  0  0  0  0  0  0  0  0
    8.6811    9.5354   16.9998 C   0  0  0  0  0  0  0  0  0  0  0  0
    9.2512    4.2713   13.7653 O   0  0  0  0  0  0  0  0  0  0  0  0
    9.6495    8.6317   16.8332 N   0  0  0  0  0  0  0  0  0  0  0  0
    6.2934    8.6988   23.1988 O   0  0  0  0  0  0  0  0  0  0  0  0
    7.9806    8.6543   20.5437 C   0  0  0  0  0  0  0  0  0  0  0  0
   13.7270    5.7144   19.8610 O   0  0  0  0  0  0  0  0  0  0  0  0
    8.3351    5.5235   15.4478 C   0  0  0  0  0  0  0  0  0  0  0  0
    8.7700    7.8434   21.3915 C   0  0  0  0  0  0  0  0  0  0  0  0
   11.7856    6.8851   19.2401 C   0  0  0  0  0  0  0  0  0  0  0  0
   10.5281    7.4276   19.5649 C   0  0  0  0  0  0  0  0  0  0  0  0
   10.0256    7.2907   20.8484 C   0  0  0  0  0  0  0  0  0  0  0  0
    9.3113    5.3049   14.4911 C   0  0  0  0  0  0  0  0  0  0  0  0
    9.4607    7.5646   16.0139 C   0  0  0  0  0  0  0  0  0  0  0  0
   10.4192    7.3157   15.0955 C   0  0  0  0  0  0  0  0  0  0  0  0
   10.2489    6.4227   23.0218 N   0  0  0  0  0  0  0  0  0  0  0  0
    7.2472    8.0746   23.5050 C   0  0  0  0  0  0  0  0  0  0  0  0
    9.2051    6.9101   23.4604 C   0  0  0  0  0  0  0  0  0  0  0  0
   11.9646    6.0299   21.4251 C   0  0  0  0  0  0  0  0  0  0  0  0
  1  5  1  0
  1 13  1  0
  2 20  2  0
  2 28  1  0
  2 29  1  0
  3 19  4  0
  3 25  4  0
  4 23  4  0
  4 27  1  0
  4 30  4  0
  5 17  1  0
  6  8  1  0
  6 29  1  0
  7 24  4  0
  7 26  4  0
  8 28  1  0
  9 13  2  0
 10 18  1  0
 10 21  4  0
 10 30  4  0
 11 17  2  0
 12 18  1  0
 13 15  1  0
 14 24  1  0
 15 25  1  0
 16 28  2  0
 17 20  1  0
 19 24  4  0
 20 23  1  0
 21 22  4  0
 22 23  4  0
 25 26  4  0
 27 29  2  0
M  END
$$$$

 Created by Python create_sdf_string function

 30 33  0  0  0  0  0  0  0  0999 V2000
    8.3036    9.8571   18.4133 C   0  0  0  0  0  0  0  0  0  0  0  0
    8.3694    7.6612   22.6703 C   0  0  0  0  0  0  0  0  0  0  0  0
    8.4143    6.6863   16.2273 C   0  0  0  0  0  0  0  0  0  0  0  0
   10.7581    6.5674   21.7636 C   0  0  0  0  0  0  0  0  0  0  0  0
    8.4452    8.7960   19.2958 O   0  0  0  0  0  0  0  0  0  0  0  0
    8.7122    6.7842   24.8569 C   0  0  0  0  0  0  0  0  0  0  0  0
   10.3400    6.1726   14.3081 C   0  0  0  0  0  0  0  0  0  0  0  0
    7.4297    7.5873   24.8962 C   0  0  0  0  0  0  0  0  0  0  0  0
    8.1566   10.0536   16.0516 O   0  0  0  0  0  0  0  0  0  0  0  0
   12.4989    6.2074   20.1776 C   0  0  0  0  0  0  0  0  0  0  0  0
    6.9192    9.1053   20.9073 O   0  0  0  0  0  0  0  0  0  0  0  0
   14.3979    6.0729   18.7784 C   0  0  0  0  0  0  0  0  0  0  0  0
    8.6811    9.5354   16.9998 C   0  0  0  0  0  0  0  0  0  0  0  0
    9.2512    4.2713   13.7653 O   0  0  0  0  0  0  0  0  0  0  0  0
    9.6495    8.6317   16.8332 N   0  0  0  0  0  0  0  0  0  0  0  0
    6.2934    8.6988   23.1988 O   0  0  0  0  0  0  0  0  0  0  0  0
    7.9806    8.6543   20.5437 C   0  0  0  0  0  0  0  0  0  0  0  0
   13.7270    5.7144   19.8610 O   0  0  0  0  0  0  0  0  0  0  0  0
    8.3351    5.5235   15.4478 C   0  0  0  0  0  0  0  0  0  0  0  0
    8.7700    7.8434   21.3915 C   0  0  0  0  0  0  0  0  0  0  0  0
   11.7856    6.8851   19.2401 C   0  0  0  0  0  0  0  0  0  0  0  0
   10.5281    7.4276   19.5649 C   0  0  0  0  0  0  0  0  0  0  0  0
   10.0256    7.2907   20.8484 C   0  0  0  0  0  0  0  0  0  0  0  0
    9.3113    5.3049   14.4911 C   0  0  0  0  0  0  0  0  0  0  0  0
    9.4607    7.5646   16.0139 C   0  0  0  0  0  0  0  0  0  0  0  0
   10.4192    7.3157   15.0955 C   0  0  0  0  0  0  0  0  0  0  0  0
   10.2489    6.4227   23.0218 N   0  0  0  0  0  0  0  0  0  0  0  0
    7.2472    8.0746   23.5050 C   0  0  0  0  0  0  0  0  0  0  0  0
    9.2051    6.9101   23.4604 C   0  0  0  0  0  0  0  0  0  0  0  0
   11.9646    6.0299   21.4251 C   0  0  0  0  0  0  0  0  0  0  0  0
  1  5  1  0
  1 13  1  0
  2 20  2  0
  2 28  1  0
  2 29  1  0
  3 19  4  0
  3 25  4  0
  4 23  4  0
  4 27  1  0
  4 30  4  0
  5 17  1  0
  6  8  1  0
  6 29  1  0
  7 24  4  0
  7 26  4  0
  8 28  1  0
  9 13  2  0
 10 18  1  0
 10 21  4  0
 10 30  4  0
 11 17  2  0
 12 18  1  0
 13 15  1  0
 14 24  1  0
 15 25  1  0
 16 28  2  0
 17 20  1  0
 19 24  4  0
 20 23  1  0
 21 22  4  0
 22 23  4  0
 25 26  4  0
 27 29  2  0
M  END
$$$$

 Created by Python create_sdf_string function

 30 33  0  0  0  0  0  0  0  0999 V2000
    8.3036    9.8571   18.4133 C   0  0  0  0  0  0  0  0  0  0  0  0
    8.3694    7.6612   22.6703 C   0  0  0  0  0  0  0  0  0  0  0  0
    8.4143    6.6863   16.2273 C   0  0  0  0  0  0  0  0  0  0  0  0
   10.7581    6.5674   21.7636 C   0  0  0  0  0  0  0  0  0  0  0  0
    8.4452    8.7960   19.2958 O   0  0  0  0  0  0  0  0  0  0  0  0
    8.7122    6.7842   24.8569 C   0  0  0  0  0  0  0  0  0  0  0  0
   10.3400    6.1726   14.3081 C   0  0  0  0  0  0  0  0  0  0  0  0
    7.4297    7.5873   24.8962 C   0  0  0  0  0  0  0  0  0  0  0  0
    8.1566   10.0536   16.0516 O   0  0  0  0  0  0  0  0  0  0  0  0
   12.4989    6.2074   20.1776 C   0  0  0  0  0  0  0  0  0  0  0  0
    6.9192    9.1053   20.9073 O   0  0  0  0  0  0  0  0  0  0  0  0
   14.3979    6.0729   18.7784 C   0  0  0  0  0  0  0  0  0  0  0  0
    8.6811    9.5354   16.9998 C   0  0  0  0  0  0  0  0  0  0  0  0
    9.2512    4.2713   13.7653 O   0  0  0  0  0  0  0  0  0  0  0  0
    9.6495    8.6317   16.8332 N   0  0  0  0  0  0  0  0  0  0  0  0
    6.2934    8.6988   23.1988 O   0  0  0  0  0  0  0  0  0  0  0  0
    7.9806    8.6543   20.5437 C   0  0  0  0  0  0  0  0  0  0  0  0
   13.7270    5.7144   19.8610 O   0  0  0  0  0  0  0  0  0  0  0  0
    8.3351    5.5235   15.4478 C   0  0  0  0  0  0  0  0  0  0  0  0
    8.7700    7.8434   21.3915 C   0  0  0  0  0  0  0  0  0  0  0  0
   11.7856    6.8851   19.2401 C   0  0  0  0  0  0  0  0  0  0  0  0
   10.5281    7.4276   19.5649 C   0  0  0  0  0  0  0  0  0  0  0  0
   10.0256    7.2907   20.8484 C   0  0  0  0  0  0  0  0  0  0  0  0
    9.3113    5.3049   14.4911 C   0  0  0  0  0  0  0  0  0  0  0  0
    9.4607    7.5646   16.0139 C   0  0  0  0  0  0  0  0  0  0  0  0
   10.4192    7.3157   15.0955 C   0  0  0  0  0  0  0  0  0  0  0  0
   10.2489    6.4227   23.0218 N   0  0  0  0  0  0  0  0  0  0  0  0
    7.2472    8.0746   23.5050 C   0  0  0  0  0  0  0  0  0  0  0  0
    9.2051    6.9101   23.4604 C   0  0  0  0  0  0  0  0  0  0  0  0
   11.9646    6.0299   21.4251 C   0  0  0  0  0  0  0  0  0  0  0  0
  1  5  1  0
  1 13  1  0
  2 20  2  0
  2 28  1  0
  2 29  1  0
  3 19  4  0
  3 25  4  0
  4 23  4  0
  4 27  1  0
  4 30  4  0
  5 17  1  0
  6  8  1  0
  6 29  1  0
  7 24  4  0
  7 26  4  0
  8 28  1  0
  9 13  2  0
 10 18  1  0
 10 21  4  0
 10 30  4  0
 11 17  2  0
 12 18  1  0
 13 15  1  0
 14 24  1  0
 15 25  1  0
 16 28  2  0
 17 20  1  0
 19 24  4  0
 20 23  1  0
 21 22  4  0
 22 23  4  0
 25 26  4  0
 27 29  2  0
M  END
$$$$

 Created by Python create_sdf_string function

 30 33  0  0  0  0  0  0  0  0999 V2000
    8.3036    9.8571   18.4133 C   0  0  0  0  0  0  0  0  0  0  0  0
    8.3694    7.6612   22.6703 C   0  0  0  0  0  0  0  0  0  0  0  0
    8.4143    6.6863   16.2273 C   0  0  0  0  0  0  0  0  0  0  0  0
   10.7581    6.5674   21.7636 C   0  0  0  0  0  0  0  0  0  0  0  0
    8.4452    8.7960   19.2958 O   0  0  0  0  0  0  0  0  0  0  0  0
    8.7122    6.7842   24.8569 C   0  0  0  0  0  0  0  0  0  0  0  0
   10.3400    6.1726   14.3081 C   0  0  0  0  0  0  0  0  0  0  0  0
    7.4297    7.5873   24.8962 C   0  0  0  0  0  0  0  0  0  0  0  0
    8.1566   10.0536   16.0516 O   0  0  0  0  0  0  0  0  0  0  0  0
   12.4989    6.2074   20.1776 C   0  0  0  0  0  0  0  0  0  0  0  0
    6.9192    9.1053   20.9073 O   0  0  0  0  0  0  0  0  0  0  0  0
   14.3979    6.0729   18.7784 C   0  0  0  0  0  0  0  0  0  0  0  0
    8.6811    9.5354   16.9998 C   0  0  0  0  0  0  0  0  0  0  0  0
    9.2512    4.2713   13.7653 O   0  0  0  0  0  0  0  0  0  0  0  0
    9.6495    8.6317   16.8332 N   0  0  0  0  0  0  0  0  0  0  0  0
    6.2934    8.6988   23.1988 O   0  0  0  0  0  0  0  0  0  0  0  0
    7.9806    8.6543   20.5437 C   0  0  0  0  0  0  0  0  0  0  0  0
   13.7270    5.7144   19.8610 O   0  0  0  0  0  0  0  0  0  0  0  0
    8.3351    5.5235   15.4478 C   0  0  0  0  0  0  0  0  0  0  0  0
    8.7700    7.8434   21.3915 C   0  0  0  0  0  0  0  0  0  0  0  0
   11.7856    6.8851   19.2401 C   0  0  0  0  0  0  0  0  0  0  0  0
   10.5281    7.4276   19.5649 C   0  0  0  0  0  0  0  0  0  0  0  0
   10.0256    7.2907   20.8484 C   0  0  0  0  0  0  0  0  0  0  0  0
    9.3113    5.3049   14.4911 C   0  0  0  0  0  0  0  0  0  0  0  0
    9.4607    7.5646   16.0139 C   0  0  0  0  0  0  0  0  0  0  0  0
   10.4192    7.3157   15.0955 C   0  0  0  0  0  0  0  0  0  0  0  0
   10.2489    6.4227   23.0218 N   0  0  0  0  0  0  0  0  0  0  0  0
    7.2472    8.0746   23.5050 C   0  0  0  0  0  0  0  0  0  0  0  0
    9.2051    6.9101   23.4604 C   0  0  0  0  0  0  0  0  0  0  0  0
   11.9646    6.0299   21.4251 C   0  0  0  0  0  0  0  0  0  0  0  0
  1  5  1  0
  1 13  1  0
  2 20  2  0
  2 28  1  0
  2 29  1  0
  3 19  4  0
  3 25  4  0
  4 23  4  0
  4 27  1  0
  4 30  4  0
  5 17  1  0
  6  8  1  0
  6 29  1  0
  7 24  4  0
  7 26  4  0
  8 28  1  0
  9 13  2  0
 10 18  1  0
 10 21  4  0
 10 30  4  0
 11 17  2  0
 12 18  1  0
 13 15  1  0
 14 24  1  0
 15 25  1  0
 16 28  2  0
 17 20  1  0
 19 24  4  0
 20 23  1  0
 21 22  4  0
 22 23  4  0
 25 26  4  0
 27 29  2  0
M  END
$$$$

 Created by Python create_sdf_string function

 30 33  0  0  0  0  0  0  0  0999 V2000
    8.3036    9.8571   18.4133 C   0  0  0  0  0  0  0  0  0  0  0  0
    8.3694    7.6612   22.6703 C   0  0  0  0  0  0  0  0  0  0  0  0
    8.4143    6.6863   16.2273 C   0  0  0  0  0  0  0  0  0  0  0  0
   10.7581    6.5674   21.7636 C   0  0  0  0  0  0  0  0  0  0  0  0
    8.4452    8.7960   19.2958 O   0  0  0  0  0  0  0  0  0  0  0  0
    8.7122    6.7842   24.8569 C   0  0  0  0  0  0  0  0  0  0  0  0
   10.3400    6.1726   14.3081 C   0  0  0  0  0  0  0  0  0  0  0  0
    7.4297    7.5873   24.8962 C   0  0  0  0  0  0  0  0  0  0  0  0
    8.1566   10.0536   16.0516 O   0  0  0  0  0  0  0  0  0  0  0  0
   12.4989    6.2074   20.1776 C   0  0  0  0  0  0  0  0  0  0  0  0
    6.9192    9.1053   20.9073 O   0  0  0  0  0  0  0  0  0  0  0  0
   14.3979    6.0729   18.7784 C   0  0  0  0  0  0  0  0  0  0  0  0
    8.6811    9.5354   16.9998 C   0  0  0  0  0  0  0  0  0  0  0  0
    9.2512    4.2713   13.7653 O   0  0  0  0  0  0  0  0  0  0  0  0
    9.6495    8.6317   16.8332 N   0  0  0  0  0  0  0  0  0  0  0  0
    6.2934    8.6988   23.1988 O   0  0  0  0  0  0  0  0  0  0  0  0
    7.9806    8.6543   20.5437 C   0  0  0  0  0  0  0  0  0  0  0  0
   13.7270    5.7144   19.8610 O   0  0  0  0  0  0  0  0  0  0  0  0
    8.3351    5.5235   15.4478 C   0  0  0  0  0  0  0  0  0  0  0  0
    8.7700    7.8434   21.3915 C   0  0  0  0  0  0  0  0  0  0  0  0
   11.7856    6.8851   19.2401 C   0  0  0  0  0  0  0  0  0  0  0  0
   10.5281    7.4276   19.5649 C   0  0  0  0  0  0  0  0  0  0  0  0
   10.0256    7.2907   20.8484 C   0  0  0  0  0  0  0  0  0  0  0  0
    9.3113    5.3049   14.4911 C   0  0  0  0  0  0  0  0  0  0  0  0
    9.4607    7.5646   16.0139 C   0  0  0  0  0  0  0  0  0  0  0  0
   10.4192    7.3157   15.0955 C   0  0  0  0  0  0  0  0  0  0  0  0
   10.2489    6.4227   23.0218 N   0  0  0  0  0  0  0  0  0  0  0  0
    7.2472    8.0746   23.5050 C   0  0  0  0  0  0  0  0  0  0  0  0
    9.2051    6.9101   23.4604 C   0  0  0  0  0  0  0  0  0  0  0  0
   11.9646    6.0299   21.4251 C   0  0  0  0  0  0  0  0  0  0  0  0
  1  5  1  0
  1 13  1  0
  2 20  2  0
  2 28  1  0
  2 29  1  0
  3 19  4  0
  3 25  4  0
  4 23  4  0
  4 27  1  0
  4 30  4  0
  5 17  1  0
  6  8  1  0
  6 29  1  0
  7 24  4  0
  7 26  4  0
  8 28  1  0
  9 13  2  0
 10 18  1  0
 10 21  4  0
 10 30  4  0
 11 17  2  0
 12 18  1  0
 13 15  1  0
 14 24  1  0
 15 25  1  0
 16 28  2  0
 17 20  1  0
 19 24  4  0
 20 23  1  0
 21 22  4  0
 22 23  4  0
 25 26  4  0
 27 29  2  0
M  END
$$$$

 Created by Python create_sdf_string function

 30 33  0  0  0  0  0  0  0  0999 V2000
    8.3036    9.8571   18.4133 C   0  0  0  0  0  0  0  0  0  0  0  0
    8.3694    7.6612   22.6703 C   0  0  0  0  0  0  0  0  0  0  0  0
    8.4143    6.6863   16.2273 C   0  0  0  0  0  0  0  0  0  0  0  0
   10.7581    6.5674   21.7636 C   0  0  0  0  0  0  0  0  0  0  0  0
    8.4452    8.7960   19.2958 O   0  0  0  0  0  0  0  0  0  0  0  0
    8.7122    6.7842   24.8569 C   0  0  0  0  0  0  0  0  0  0  0  0
   10.3400    6.1726   14.3081 C   0  0  0  0  0  0  0  0  0  0  0  0
    7.4297    7.5873   24.8962 C   0  0  0  0  0  0  0  0  0  0  0  0
    8.1566   10.0536   16.0516 O   0  0  0  0  0  0  0  0  0  0  0  0
   12.4989    6.2074   20.1776 C   0  0  0  0  0  0  0  0  0  0  0  0
    6.9192    9.1053   20.9073 O   0  0  0  0  0  0  0  0  0  0  0  0
   14.3979    6.0729   18.7784 C   0  0  0  0  0  0  0  0  0  0  0  0
    8.6811    9.5354   16.9998 C   0  0  0  0  0  0  0  0  0  0  0  0
    9.2512    4.2713   13.7653 O   0  0  0  0  0  0  0  0  0  0  0  0
    9.6495    8.6317   16.8332 N   0  0  0  0  0  0  0  0  0  0  0  0
    6.2934    8.6988   23.1988 O   0  0  0  0  0  0  0  0  0  0  0  0
    7.9806    8.6543   20.5437 C   0  0  0  0  0  0  0  0  0  0  0  0
   13.7270    5.7144   19.8610 O   0  0  0  0  0  0  0  0  0  0  0  0
    8.3351    5.5235   15.4478 C   0  0  0  0  0  0  0  0  0  0  0  0
    8.7700    7.8434   21.3915 C   0  0  0  0  0  0  0  0  0  0  0  0
   11.7856    6.8851   19.2401 C   0  0  0  0  0  0  0  0  0  0  0  0
   10.5281    7.4276   19.5649 C   0  0  0  0  0  0  0  0  0  0  0  0
   10.0256    7.2907   20.8484 C   0  0  0  0  0  0  0  0  0  0  0  0
    9.3113    5.3049   14.4911 C   0  0  0  0  0  0  0  0  0  0  0  0
    9.4607    7.5646   16.0139 C   0  0  0  0  0  0  0  0  0  0  0  0
   10.4192    7.3157   15.0955 C   0  0  0  0  0  0  0  0  0  0  0  0
   10.2489    6.4227   23.0218 N   0  0  0  0  0  0  0  0  0  0  0  0
    7.2472    8.0746   23.5050 C   0  0  0  0  0  0  0  0  0  0  0  0
    9.2051    6.9101   23.4604 C   0  0  0  0  0  0  0  0  0  0  0  0
   11.9646    6.0299   21.4251 C   0  0  0  0  0  0  0  0  0  0  0  0
  1  5  1  0
  1 13  1  0
  2 20  2  0
  2 28  1  0
  2 29  1  0
  3 19  4  0
  3 25  4  0
  4 23  4  0
  4 27  1  0
  4 30  4  0
  5 17  1  0
  6  8  1  0
  6 29  1  0
  7 24  4  0
  7 26  4  0
  8 28  1  0
  9 13  2  0
 10 18  1  0
 10 21  4  0
 10 30  4  0
 11 17  2  0
 12 18  1  0
 13 15  1  0
 14 24  1  0
 15 25  1  0
 16 28  2  0
 17 20  1  0
 19 24  4  0
 20 23  1  0
 21 22  4  0
 22 23  4  0
 25 26  4  0
 27 29  2  0
M  END
$$$$

 Created by Python create_sdf_string function

 30 33  0  0  0  0  0  0  0  0999 V2000
    8.3036    9.8571   18.4133 C   0  0  0  0  0  0  0  0  0  0  0  0
    8.3694    7.6612   22.6703 C   0  0  0  0  0  0  0  0  0  0  0  0
    8.4143    6.6863   16.2273 C   0  0  0  0  0  0  0  0  0  0  0  0
   10.7581    6.5674   21.7636 C   0  0  0  0  0  0  0  0  0  0  0  0
    8.4452    8.7960   19.2958 O   0  0  0  0  0  0  0  0  0  0  0  0
    8.7122    6.7842   24.8569 C   0  0  0  0  0  0  0  0  0  0  0  0
   10.3400    6.1726   14.3081 C   0  0  0  0  0  0  0  0  0  0  0  0
    7.4297    7.5873   24.8962 C   0  0  0  0  0  0  0  0  0  0  0  0
    8.1566   10.0536   16.0516 O   0  0  0  0  0  0  0  0  0  0  0  0
   12.4989    6.2074   20.1776 C   0  0  0  0  0  0  0  0  0  0  0  0
    6.9192    9.1053   20.9073 O   0  0  0  0  0  0  0  0  0  0  0  0
   14.3979    6.0729   18.7784 C   0  0  0  0  0  0  0  0  0  0  0  0
    8.6811    9.5354   16.9998 C   0  0  0  0  0  0  0  0  0  0  0  0
    9.2512    4.2713   13.7653 O   0  0  0  0  0  0  0  0  0  0  0  0
    9.6495    8.6317   16.8332 N   0  0  0  0  0  0  0  0  0  0  0  0
    6.2934    8.6988   23.1988 O   0  0  0  0  0  0  0  0  0  0  0  0
    7.9806    8.6543   20.5437 C   0  0  0  0  0  0  0  0  0  0  0  0
   13.7270    5.7144   19.8610 O   0  0  0  0  0  0  0  0  0  0  0  0
    8.3351    5.5235   15.4478 C   0  0  0  0  0  0  0  0  0  0  0  0
    8.7700    7.8434   21.3915 C   0  0  0  0  0  0  0  0  0  0  0  0
   11.7856    6.8851   19.2401 C   0  0  0  0  0  0  0  0  0  0  0  0
   10.5281    7.4276   19.5649 C   0  0  0  0  0  0  0  0  0  0  0  0
   10.0256    7.2907   20.8484 C   0  0  0  0  0  0  0  0  0  0  0  0
    9.3113    5.3049   14.4911 C   0  0  0  0  0  0  0  0  0  0  0  0
    9.4607    7.5646   16.0139 C   0  0  0  0  0  0  0  0  0  0  0  0
   10.4192    7.3157   15.0955 C   0  0  0  0  0  0  0  0  0  0  0  0
   10.2489    6.4227   23.0218 N   0  0  0  0  0  0  0  0  0  0  0  0
    7.2472    8.0746   23.5050 C   0  0  0  0  0  0  0  0  0  0  0  0
    9.2051    6.9101   23.4604 C   0  0  0  0  0  0  0  0  0  0  0  0
   11.9646    6.0299   21.4251 C   0  0  0  0  0  0  0  0  0  0  0  0
  1  5  1  0
  1 13  1  0
  2 20  2  0
  2 28  1  0
  2 29  1  0
  3 19  4  0
  3 25  4  0
  4 23  4  0
  4 27  1  0
  4 30  4  0
  5 17  1  0
  6  8  1  0
  6 29  1  0
  7 24  4  0
  7 26  4  0
  8 28  1  0
  9 13  2  0
 10 18  1  0
 10 21  4  0
 10 30  4  0
 11 17  2  0
 12 18  1  0
 13 15  1  0
 14 24  1  0
 15 25  1  0
 16 28  2  0
 17 20  1  0
 19 24  4  0
 20 23  1  0
 21 22  4  0
 22 23  4  0
 25 26  4  0
 27 29  2  0
M  END
$$$$

 Created by Python create_sdf_string function

 30 33  0  0  0  0  0  0  0  0999 V2000
    8.3036    9.8571   18.4133 C   0  0  0  0  0  0  0  0  0  0  0  0
    8.3694    7.6612   22.6703 C   0  0  0  0  0  0  0  0  0  0  0  0
    8.4143    6.6863   16.2273 C   0  0  0  0  0  0  0  0  0  0  0  0
   10.7581    6.5674   21.7636 C   0  0  0  0  0  0  0  0  0  0  0  0
    8.4452    8.7960   19.2958 O   0  0  0  0  0  0  0  0  0  0  0  0
    8.7122    6.7842   24.8569 C   0  0  0  0  0  0  0  0  0  0  0  0
   10.3400    6.1726   14.3081 C   0  0  0  0  0  0  0  0  0  0  0  0
    7.4297    7.5873   24.8962 C   0  0  0  0  0  0  0  0  0  0  0  0
    8.1566   10.0536   16.0516 O   0  0  0  0  0  0  0  0  0  0  0  0
   12.4989    6.2074   20.1776 C   0  0  0  0  0  0  0  0  0  0  0  0
    6.9192    9.1053   20.9073 O   0  0  0  0  0  0  0  0  0  0  0  0
   14.3979    6.0729   18.7784 C   0  0  0  0  0  0  0  0  0  0  0  0
    8.6811    9.5354   16.9998 C   0  0  0  0  0  0  0  0  0  0  0  0
    9.2512    4.2713   13.7653 O   0  0  0  0  0  0  0  0  0  0  0  0
    9.6495    8.6317   16.8332 N   0  0  0  0  0  0  0  0  0  0  0  0
    6.2934    8.6988   23.1988 O   0  0  0  0  0  0  0  0  0  0  0  0
    7.9806    8.6543   20.5437 C   0  0  0  0  0  0  0  0  0  0  0  0
   13.7270    5.7144   19.8610 O   0  0  0  0  0  0  0  0  0  0  0  0
    8.3351    5.5235   15.4478 C   0  0  0  0  0  0  0  0  0  0  0  0
    8.7700    7.8434   21.3915 C   0  0  0  0  0  0  0  0  0  0  0  0
   11.7856    6.8851   19.2401 C   0  0  0  0  0  0  0  0  0  0  0  0
   10.5281    7.4276   19.5649 C   0  0  0  0  0  0  0  0  0  0  0  0
   10.0256    7.2907   20.8484 C   0  0  0  0  0  0  0  0  0  0  0  0
    9.3113    5.3049   14.4911 C   0  0  0  0  0  0  0  0  0  0  0  0
    9.4607    7.5646   16.0139 C   0  0  0  0  0  0  0  0  0  0  0  0
   10.4192    7.3157   15.0955 C   0  0  0  0  0  0  0  0  0  0  0  0
   10.2489    6.4227   23.0218 N   0  0  0  0  0  0  0  0  0  0  0  0
    7.2472    8.0746   23.5050 C   0  0  0  0  0  0  0  0  0  0  0  0
    9.2051    6.9101   23.4604 C   0  0  0  0  0  0  0  0  0  0  0  0
   11.9646    6.0299   21.4251 C   0  0  0  0  0  0  0  0  0  0  0  0
  1  5  1  0
  1 13  1  0
  2 20  2  0
  2 28  1  0
  2 29  1  0
  3 19  4  0
  3 25  4  0
  4 23  4  0
  4 27  1  0
  4 30  4  0
  5 17  1  0
  6  8  1  0
  6 29  1  0
  7 24  4  0
  7 26  4  0
  8 28  1  0
  9 13  2  0
 10 18  1  0
 10 21  4  0
 10 30  4  0
 11 17  2  0
 12 18  1  0
 13 15  1  0
 14 24  1  0
 15 25  1  0
 16 28  2  0
 17 20  1  0
 19 24  4  0
 20 23  1  0
 21 22  4  0
 22 23  4  0
 25 26  4  0
 27 29  2  0
M  END
$$$$

 Created by Python create_sdf_string function

 30 33  0  0  0  0  0  0  0  0999 V2000
    8.3036    9.8571   18.4133 C   0  0  0  0  0  0  0  0  0  0  0  0
    8.3694    7.6612   22.6703 C   0  0  0  0  0  0  0  0  0  0  0  0
    8.4143    6.6863   16.2273 C   0  0  0  0  0  0  0  0  0  0  0  0
   10.7581    6.5674   21.7636 C   0  0  0  0  0  0  0  0  0  0  0  0
    8.4452    8.7960   19.2958 O   0  0  0  0  0  0  0  0  0  0  0  0
    8.7122    6.7842   24.8569 C   0  0  0  0  0  0  0  0  0  0  0  0
   10.3400    6.1726   14.3081 C   0  0  0  0  0  0  0  0  0  0  0  0
    7.4297    7.5873   24.8962 C   0  0  0  0  0  0  0  0  0  0  0  0
    8.1566   10.0536   16.0516 O   0  0  0  0  0  0  0  0  0  0  0  0
   12.4989    6.2074   20.1776 C   0  0  0  0  0  0  0  0  0  0  0  0
    6.9192    9.1053   20.9073 O   0  0  0  0  0  0  0  0  0  0  0  0
   14.3979    6.0729   18.7784 C   0  0  0  0  0  0  0  0  0  0  0  0
    8.6811    9.5354   16.9998 C   0  0  0  0  0  0  0  0  0  0  0  0
    9.2512    4.2713   13.7653 O   0  0  0  0  0  0  0  0  0  0  0  0
    9.6495    8.6317   16.8332 N   0  0  0  0  0  0  0  0  0  0  0  0
    6.2934    8.6988   23.1988 O   0  0  0  0  0  0  0  0  0  0  0  0
    7.9806    8.6543   20.5437 C   0  0  0  0  0  0  0  0  0  0  0  0
   13.7270    5.7144   19.8610 O   0  0  0  0  0  0  0  0  0  0  0  0
    8.3351    5.5235   15.4478 C   0  0  0  0  0  0  0  0  0  0  0  0
    8.7700    7.8434   21.3915 C   0  0  0  0  0  0  0  0  0  0  0  0
   11.7856    6.8851   19.2401 C   0  0  0  0  0  0  0  0  0  0  0  0
   10.5281    7.4276   19.5649 C   0  0  0  0  0  0  0  0  0  0  0  0
   10.0256    7.2907   20.8484 C   0  0  0  0  0  0  0  0  0  0  0  0
    9.3113    5.3049   14.4911 C   0  0  0  0  0  0  0  0  0  0  0  0
    9.4607    7.5646   16.0139 C   0  0  0  0  0  0  0  0  0  0  0  0
   10.4192    7.3157   15.0955 C   0  0  0  0  0  0  0  0  0  0  0  0
   10.2489    6.4227   23.0218 N   0  0  0  0  0  0  0  0  0  0  0  0
    7.2472    8.0746   23.5050 C   0  0  0  0  0  0  0  0  0  0  0  0
    9.2051    6.9101   23.4604 C   0  0  0  0  0  0  0  0  0  0  0  0
   11.9646    6.0299   21.4251 C   0  0  0  0  0  0  0  0  0  0  0  0
  1  5  1  0
  1 13  1  0
  2 20  2  0
  2 28  1  0
  2 29  1  0
  3 19  4  0
  3 25  4  0
  4 23  4  0
  4 27  1  0
  4 30  4  0
  5 17  1  0
  6  8  1  0
  6 29  1  0
  7 24  4  0
  7 26  4  0
  8 28  1  0
  9 13  2  0
 10 18  1  0
 10 21  4  0
 10 30  4  0
 11 17  2  0
 12 18  1  0
 13 15  1  0
 14 24  1  0
 15 25  1  0
 16 28  2  0
 17 20  1  0
 19 24  4  0
 20 23  1  0
 21 22  4  0
 22 23  4  0
 25 26  4  0
 27 29  2  0
M  END
$$$$

 Created by Python create_sdf_string function

 30 33  0  0  0  0  0  0  0  0999 V2000
    8.3036    9.8571   18.4133 C   0  0  0  0  0  0  0  0  0  0  0  0
    8.3694    7.6612   22.6703 C   0  0  0  0  0  0  0  0  0  0  0  0
    8.4143    6.6863   16.2273 C   0  0  0  0  0  0  0  0  0  0  0  0
   10.7581    6.5674   21.7636 C   0  0  0  0  0  0  0  0  0  0  0  0
    8.4452    8.7960   19.2958 O   0  0  0  0  0  0  0  0  0  0  0  0
    8.7122    6.7842   24.8569 C   0  0  0  0  0  0  0  0  0  0  0  0
   10.3400    6.1726   14.3081 C   0  0  0  0  0  0  0  0  0  0  0  0
    7.4297    7.5873   24.8962 C   0  0  0  0  0  0  0  0  0  0  0  0
    8.1566   10.0536   16.0516 O   0  0  0  0  0  0  0  0  0  0  0  0
   12.4989    6.2074   20.1776 C   0  0  0  0  0  0  0  0  0  0  0  0
    6.9192    9.1053   20.9073 O   0  0  0  0  0  0  0  0  0  0  0  0
   14.3979    6.0729   18.7784 C   0  0  0  0  0  0  0  0  0  0  0  0
    8.6811    9.5354   16.9998 C   0  0  0  0  0  0  0  0  0  0  0  0
    9.2512    4.2713   13.7653 O   0  0  0  0  0  0  0  0  0  0  0  0
    9.6495    8.6317   16.8332 N   0  0  0  0  0  0  0  0  0  0  0  0
    6.2934    8.6988   23.1988 O   0  0  0  0  0  0  0  0  0  0  0  0
    7.9806    8.6543   20.5437 C   0  0  0  0  0  0  0  0  0  0  0  0
   13.7270    5.7144   19.8610 O   0  0  0  0  0  0  0  0  0  0  0  0
    8.3351    5.5235   15.4478 C   0  0  0  0  0  0  0  0  0  0  0  0
    8.7700    7.8434   21.3915 C   0  0  0  0  0  0  0  0  0  0  0  0
   11.7856    6.8851   19.2401 C   0  0  0  0  0  0  0  0  0  0  0  0
   10.5281    7.4276   19.5649 C   0  0  0  0  0  0  0  0  0  0  0  0
   10.0256    7.2907   20.8484 C   0  0  0  0  0  0  0  0  0  0  0  0
    9.3113    5.3049   14.4911 C   0  0  0  0  0  0  0  0  0  0  0  0
    9.4607    7.5646   16.0139 C   0  0  0  0  0  0  0  0  0  0  0  0
   10.4192    7.3157   15.0955 C   0  0  0  0  0  0  0  0  0  0  0  0
   10.2489    6.4227   23.0218 N   0  0  0  0  0  0  0  0  0  0  0  0
    7.2472    8.0746   23.5050 C   0  0  0  0  0  0  0  0  0  0  0  0
    9.2051    6.9101   23.4604 C   0  0  0  0  0  0  0  0  0  0  0  0
   11.9646    6.0299   21.4251 C   0  0  0  0  0  0  0  0  0  0  0  0
  1  5  1  0
  1 13  1  0
  2 20  2  0
  2 28  1  0
  2 29  1  0
  3 19  4  0
  3 25  4  0
  4 23  4  0
  4 27  1  0
  4 30  4  0
  5 17  1  0
  6  8  1  0
  6 29  1  0
  7 24  4  0
  7 26  4  0
  8 28  1  0
  9 13  2  0
 10 18  1  0
 10 21  4  0
 10 30  4  0
 11 17  2  0
 12 18  1  0
 13 15  1  0
 14 24  1  0
 15 25  1  0
 16 28  2  0
 17 20  1  0
 19 24  4  0
 20 23  1  0
 21 22  4  0
 22 23  4  0
 25 26  4  0
 27 29  2  0
M  END
$$$$

 Created by Python create_sdf_string function

 30 33  0  0  0  0  0  0  0  0999 V2000
    8.3036    9.8571   18.4133 C   0  0  0  0  0  0  0  0  0  0  0  0
    8.3694    7.6612   22.6703 C   0  0  0  0  0  0  0  0  0  0  0  0
    8.4143    6.6863   16.2273 C   0  0  0  0  0  0  0  0  0  0  0  0
   10.7581    6.5674   21.7636 C   0  0  0  0  0  0  0  0  0  0  0  0
    8.4452    8.7960   19.2958 O   0  0  0  0  0  0  0  0  0  0  0  0
    8.7122    6.7842   24.8569 C   0  0  0  0  0  0  0  0  0  0  0  0
   10.3400    6.1726   14.3081 C   0  0  0  0  0  0  0  0  0  0  0  0
    7.4297    7.5873   24.8962 C   0  0  0  0  0  0  0  0  0  0  0  0
    8.1566   10.0536   16.0516 O   0  0  0  0  0  0  0  0  0  0  0  0
   12.4989    6.2074   20.1776 C   0  0  0  0  0  0  0  0  0  0  0  0
    6.9192    9.1053   20.9073 O   0  0  0  0  0  0  0  0  0  0  0  0
   14.3979    6.0729   18.7784 C   0  0  0  0  0  0  0  0  0  0  0  0
    8.6811    9.5354   16.9998 C   0  0  0  0  0  0  0  0  0  0  0  0
    9.2512    4.2713   13.7653 O   0  0  0  0  0  0  0  0  0  0  0  0
    9.6495    8.6317   16.8332 N   0  0  0  0  0  0  0  0  0  0  0  0
    6.2934    8.6988   23.1988 O   0  0  0  0  0  0  0  0  0  0  0  0
    7.9806    8.6543   20.5437 C   0  0  0  0  0  0  0  0  0  0  0  0
   13.7270    5.7144   19.8610 O   0  0  0  0  0  0  0  0  0  0  0  0
    8.3351    5.5235   15.4478 C   0  0  0  0  0  0  0  0  0  0  0  0
    8.7700    7.8434   21.3915 C   0  0  0  0  0  0  0  0  0  0  0  0
   11.7856    6.8851   19.2401 C   0  0  0  0  0  0  0  0  0  0  0  0
   10.5281    7.4276   19.5649 C   0  0  0  0  0  0  0  0  0  0  0  0
   10.0256    7.2907   20.8484 C   0  0  0  0  0  0  0  0  0  0  0  0
    9.3113    5.3049   14.4911 C   0  0  0  0  0  0  0  0  0  0  0  0
    9.4607    7.5646   16.0139 C   0  0  0  0  0  0  0  0  0  0  0  0
   10.4192    7.3157   15.0955 C   0  0  0  0  0  0  0  0  0  0  0  0
   10.2489    6.4227   23.0218 N   0  0  0  0  0  0  0  0  0  0  0  0
    7.2472    8.0746   23.5050 C   0  0  0  0  0  0  0  0  0  0  0  0
    9.2051    6.9101   23.4604 C   0  0  0  0  0  0  0  0  0  0  0  0
   11.9646    6.0299   21.4251 C   0  0  0  0  0  0  0  0  0  0  0  0
  1  5  1  0
  1 13  1  0
  2 20  2  0
  2 28  1  0
  2 29  1  0
  3 19  4  0
  3 25  4  0
  4 23  4  0
  4 27  1  0
  4 30  4  0
  5 17  1  0
  6  8  1  0
  6 29  1  0
  7 24  4  0
  7 26  4  0
  8 28  1  0
  9 13  2  0
 10 18  1  0
 10 21  4  0
 10 30  4  0
 11 17  2  0
 12 18  1  0
 13 15  1  0
 14 24  1  0
 15 25  1  0
 16 28  2  0
 17 20  1  0
 19 24  4  0
 20 23  1  0
 21 22  4  0
 22 23  4  0
 25 26  4  0
 27 29  2  0
M  END
$$$$

 Created by Python create_sdf_string function

 30 33  0  0  0  0  0  0  0  0999 V2000
    8.3036    9.8571   18.4133 C   0  0  0  0  0  0  0  0  0  0  0  0
    8.3694    7.6612   22.6703 C   0  0  0  0  0  0  0  0  0  0  0  0
    8.4143    6.6863   16.2273 C   0  0  0  0  0  0  0  0  0  0  0  0
   10.7581    6.5674   21.7636 C   0  0  0  0  0  0  0  0  0  0  0  0
    8.4452    8.7960   19.2958 O   0  0  0  0  0  0  0  0  0  0  0  0
    8.7122    6.7842   24.8569 C   0  0  0  0  0  0  0  0  0  0  0  0
   10.3400    6.1726   14.3081 C   0  0  0  0  0  0  0  0  0  0  0  0
    7.4297    7.5873   24.8962 C   0  0  0  0  0  0  0  0  0  0  0  0
    8.1566   10.0536   16.0516 O   0  0  0  0  0  0  0  0  0  0  0  0
   12.4989    6.2074   20.1776 C   0  0  0  0  0  0  0  0  0  0  0  0
    6.9192    9.1053   20.9073 O   0  0  0  0  0  0  0  0  0  0  0  0
   14.3979    6.0729   18.7784 C   0  0  0  0  0  0  0  0  0  0  0  0
    8.6811    9.5354   16.9998 C   0  0  0  0  0  0  0  0  0  0  0  0
    9.2512    4.2713   13.7653 O   0  0  0  0  0  0  0  0  0  0  0  0
    9.6495    8.6317   16.8332 N   0  0  0  0  0  0  0  0  0  0  0  0
    6.2934    8.6988   23.1988 O   0  0  0  0  0  0  0  0  0  0  0  0
    7.9806    8.6543   20.5437 C   0  0  0  0  0  0  0  0  0  0  0  0
   13.7270    5.7144   19.8610 O   0  0  0  0  0  0  0  0  0  0  0  0
    8.3351    5.5235   15.4478 C   0  0  0  0  0  0  0  0  0  0  0  0
    8.7700    7.8434   21.3915 C   0  0  0  0  0  0  0  0  0  0  0  0
   11.7856    6.8851   19.2401 C   0  0  0  0  0  0  0  0  0  0  0  0
   10.5281    7.4276   19.5649 C   0  0  0  0  0  0  0  0  0  0  0  0
   10.0256    7.2907   20.8484 C   0  0  0  0  0  0  0  0  0  0  0  0
    9.3113    5.3049   14.4911 C   0  0  0  0  0  0  0  0  0  0  0  0
    9.4607    7.5646   16.0139 C   0  0  0  0  0  0  0  0  0  0  0  0
   10.4192    7.3157   15.0955 C   0  0  0  0  0  0  0  0  0  0  0  0
   10.2489    6.4227   23.0218 N   0  0  0  0  0  0  0  0  0  0  0  0
    7.2472    8.0746   23.5050 C   0  0  0  0  0  0  0  0  0  0  0  0
    9.2051    6.9101   23.4604 C   0  0  0  0  0  0  0  0  0  0  0  0
   11.9646    6.0299   21.4251 C   0  0  0  0  0  0  0  0  0  0  0  0
  1  5  1  0
  1 13  1  0
  2 20  2  0
  2 28  1  0
  2 29  1  0
  3 19  4  0
  3 25  4  0
  4 23  4  0
  4 27  1  0
  4 30  4  0
  5 17  1  0
  6  8  1  0
  6 29  1  0
  7 24  4  0
  7 26  4  0
  8 28  1  0
  9 13  2  0
 10 18  1  0
 10 21  4  0
 10 30  4  0
 11 17  2  0
 12 18  1  0
 13 15  1  0
 14 24  1  0
 15 25  1  0
 16 28  2  0
 17 20  1  0
 19 24  4  0
 20 23  1  0
 21 22  4  0
 22 23  4  0
 25 26  4  0
 27 29  2  0
M  END
$$$$

 Created by Python create_sdf_string function

 30 33  0  0  0  0  0  0  0  0999 V2000
    8.3036    9.8571   18.4133 C   0  0  0  0  0  0  0  0  0  0  0  0
    8.3694    7.6612   22.6703 C   0  0  0  0  0  0  0  0  0  0  0  0
    8.4143    6.6863   16.2273 C   0  0  0  0  0  0  0  0  0  0  0  0
   10.7581    6.5674   21.7636 C   0  0  0  0  0  0  0  0  0  0  0  0
    8.4452    8.7960   19.2958 O   0  0  0  0  0  0  0  0  0  0  0  0
    8.7122    6.7842   24.8569 C   0  0  0  0  0  0  0  0  0  0  0  0
   10.3400    6.1726   14.3081 C   0  0  0  0  0  0  0  0  0  0  0  0
    7.4297    7.5873   24.8962 C   0  0  0  0  0  0  0  0  0  0  0  0
    8.1566   10.0536   16.0516 O   0  0  0  0  0  0  0  0  0  0  0  0
   12.4989    6.2074   20.1776 C   0  0  0  0  0  0  0  0  0  0  0  0
    6.9192    9.1053   20.9073 O   0  0  0  0  0  0  0  0  0  0  0  0
   14.3979    6.0729   18.7784 C   0  0  0  0  0  0  0  0  0  0  0  0
    8.6811    9.5354   16.9998 C   0  0  0  0  0  0  0  0  0  0  0  0
    9.2512    4.2713   13.7653 O   0  0  0  0  0  0  0  0  0  0  0  0
    9.6495    8.6317   16.8332 N   0  0  0  0  0  0  0  0  0  0  0  0
    6.2934    8.6988   23.1988 O   0  0  0  0  0  0  0  0  0  0  0  0
    7.9806    8.6543   20.5437 C   0  0  0  0  0  0  0  0  0  0  0  0
   13.7270    5.7144   19.8610 O   0  0  0  0  0  0  0  0  0  0  0  0
    8.3351    5.5235   15.4478 C   0  0  0  0  0  0  0  0  0  0  0  0
    8.7700    7.8434   21.3915 C   0  0  0  0  0  0  0  0  0  0  0  0
   11.7856    6.8851   19.2401 C   0  0  0  0  0  0  0  0  0  0  0  0
   10.5281    7.4276   19.5649 C   0  0  0  0  0  0  0  0  0  0  0  0
   10.0256    7.2907   20.8484 C   0  0  0  0  0  0  0  0  0  0  0  0
    9.3113    5.3049   14.4911 C   0  0  0  0  0  0  0  0  0  0  0  0
    9.4607    7.5646   16.0139 C   0  0  0  0  0  0  0  0  0  0  0  0
   10.4192    7.3157   15.0955 C   0  0  0  0  0  0  0  0  0  0  0  0
   10.2489    6.4227   23.0218 N   0  0  0  0  0  0  0  0  0  0  0  0
    7.2472    8.0746   23.5050 C   0  0  0  0  0  0  0  0  0  0  0  0
    9.2051    6.9101   23.4604 C   0  0  0  0  0  0  0  0  0  0  0  0
   11.9646    6.0299   21.4251 C   0  0  0  0  0  0  0  0  0  0  0  0
  1  5  1  0
  1 13  1  0
  2 20  2  0
  2 28  1  0
  2 29  1  0
  3 19  4  0
  3 25  4  0
  4 23  4  0
  4 27  1  0
  4 30  4  0
  5 17  1  0
  6  8  1  0
  6 29  1  0
  7 24  4  0
  7 26  4  0
  8 28  1  0
  9 13  2  0
 10 18  1  0
 10 21  4  0
 10 30  4  0
 11 17  2  0
 12 18  1  0
 13 15  1  0
 14 24  1  0
 15 25  1  0
 16 28  2  0
 17 20  1  0
 19 24  4  0
 20 23  1  0
 21 22  4  0
 22 23  4  0
 25 26  4  0
 27 29  2  0
M  END
$$$$

 Created by Python create_sdf_string function

 30 33  0  0  0  0  0  0  0  0999 V2000
    8.3036    9.8571   18.4133 C   0  0  0  0  0  0  0  0  0  0  0  0
    8.3694    7.6612   22.6703 C   0  0  0  0  0  0  0  0  0  0  0  0
    8.4143    6.6863   16.2273 C   0  0  0  0  0  0  0  0  0  0  0  0
   10.7581    6.5674   21.7636 C   0  0  0  0  0  0  0  0  0  0  0  0
    8.4452    8.7960   19.2958 O   0  0  0  0  0  0  0  0  0  0  0  0
    8.7122    6.7842   24.8569 C   0  0  0  0  0  0  0  0  0  0  0  0
   10.3400    6.1726   14.3081 C   0  0  0  0  0  0  0  0  0  0  0  0
    7.4297    7.5873   24.8962 C   0  0  0  0  0  0  0  0  0  0  0  0
    8.1566   10.0536   16.0516 O   0  0  0  0  0  0  0  0  0  0  0  0
   12.4989    6.2074   20.1776 C   0  0  0  0  0  0  0  0  0  0  0  0
    6.9192    9.1053   20.9073 O   0  0  0  0  0  0  0  0  0  0  0  0
   14.3979    6.0729   18.7784 C   0  0  0  0  0  0  0  0  0  0  0  0
    8.6811    9.5354   16.9998 C   0  0  0  0  0  0  0  0  0  0  0  0
    9.2512    4.2713   13.7653 O   0  0  0  0  0  0  0  0  0  0  0  0
    9.6495    8.6317   16.8332 N   0  0  0  0  0  0  0  0  0  0  0  0
    6.2934    8.6988   23.1988 O   0  0  0  0  0  0  0  0  0  0  0  0
    7.9806    8.6543   20.5437 C   0  0  0  0  0  0  0  0  0  0  0  0
   13.7270    5.7144   19.8610 O   0  0  0  0  0  0  0  0  0  0  0  0
    8.3351    5.5235   15.4478 C   0  0  0  0  0  0  0  0  0  0  0  0
    8.7700    7.8434   21.3915 C   0  0  0  0  0  0  0  0  0  0  0  0
   11.7856    6.8851   19.2401 C   0  0  0  0  0  0  0  0  0  0  0  0
   10.5281    7.4276   19.5649 C   0  0  0  0  0  0  0  0  0  0  0  0
   10.0256    7.2907   20.8484 C   0  0  0  0  0  0  0  0  0  0  0  0
    9.3113    5.3049   14.4911 C   0  0  0  0  0  0  0  0  0  0  0  0
    9.4607    7.5646   16.0139 C   0  0  0  0  0  0  0  0  0  0  0  0
   10.4192    7.3157   15.0955 C   0  0  0  0  0  0  0  0  0  0  0  0
   10.2489    6.4227   23.0218 N   0  0  0  0  0  0  0  0  0  0  0  0
    7.2472    8.0746   23.5050 C   0  0  0  0  0  0  0  0  0  0  0  0
    9.2051    6.9101   23.4604 C   0  0  0  0  0  0  0  0  0  0  0  0
   11.9646    6.0299   21.4251 C   0  0  0  0  0  0  0  0  0  0  0  0
  1  5  1  0
  1 13  1  0
  2 20  2  0
  2 28  1  0
  2 29  1  0
  3 19  4  0
  3 25  4  0
  4 23  4  0
  4 27  1  0
  4 30  4  0
  5 17  1  0
  6  8  1  0
  6 29  1  0
  7 24  4  0
  7 26  4  0
  8 28  1  0
  9 13  2  0
 10 18  1  0
 10 21  4  0
 10 30  4  0
 11 17  2  0
 12 18  1  0
 13 15  1  0
 14 24  1  0
 15 25  1  0
 16 28  2  0
 17 20  1  0
 19 24  4  0
 20 23  1  0
 21 22  4  0
 22 23  4  0
 25 26  4  0
 27 29  2  0
M  END
$$$$

 Created by Python create_sdf_string function

 30 33  0  0  0  0  0  0  0  0999 V2000
    8.3036    9.8571   18.4133 C   0  0  0  0  0  0  0  0  0  0  0  0
    8.3694    7.6612   22.6703 C   0  0  0  0  0  0  0  0  0  0  0  0
    8.4143    6.6863   16.2273 C   0  0  0  0  0  0  0  0  0  0  0  0
   10.7581    6.5674   21.7636 C   0  0  0  0  0  0  0  0  0  0  0  0
    8.4452    8.7960   19.2958 O   0  0  0  0  0  0  0  0  0  0  0  0
    8.7122    6.7842   24.8569 C   0  0  0  0  0  0  0  0  0  0  0  0
   10.3400    6.1726   14.3081 C   0  0  0  0  0  0  0  0  0  0  0  0
    7.4297    7.5873   24.8962 C   0  0  0  0  0  0  0  0  0  0  0  0
    8.1566   10.0536   16.0516 O   0  0  0  0  0  0  0  0  0  0  0  0
   12.4989    6.2074   20.1776 C   0  0  0  0  0  0  0  0  0  0  0  0
    6.9192    9.1053   20.9073 O   0  0  0  0  0  0  0  0  0  0  0  0
   14.3979    6.0729   18.7784 C   0  0  0  0  0  0  0  0  0  0  0  0
    8.6811    9.5354   16.9998 C   0  0  0  0  0  0  0  0  0  0  0  0
    9.2512    4.2713   13.7653 O   0  0  0  0  0  0  0  0  0  0  0  0
    9.6495    8.6317   16.8332 N   0  0  0  0  0  0  0  0  0  0  0  0
    6.2934    8.6988   23.1988 O   0  0  0  0  0  0  0  0  0  0  0  0
    7.9806    8.6543   20.5437 C   0  0  0  0  0  0  0  0  0  0  0  0
   13.7270    5.7144   19.8610 O   0  0  0  0  0  0  0  0  0  0  0  0
    8.3351    5.5235   15.4478 C   0  0  0  0  0  0  0  0  0  0  0  0
    8.7700    7.8434   21.3915 C   0  0  0  0  0  0  0  0  0  0  0  0
   11.7856    6.8851   19.2401 C   0  0  0  0  0  0  0  0  0  0  0  0
   10.5281    7.4276   19.5649 C   0  0  0  0  0  0  0  0  0  0  0  0
   10.0256    7.2907   20.8484 C   0  0  0  0  0  0  0  0  0  0  0  0
    9.3113    5.3049   14.4911 C   0  0  0  0  0  0  0  0  0  0  0  0
    9.4607    7.5646   16.0139 C   0  0  0  0  0  0  0  0  0  0  0  0
   10.4192    7.3157   15.0955 C   0  0  0  0  0  0  0  0  0  0  0  0
   10.2489    6.4227   23.0218 N   0  0  0  0  0  0  0  0  0  0  0  0
    7.2472    8.0746   23.5050 C   0  0  0  0  0  0  0  0  0  0  0  0
    9.2051    6.9101   23.4604 C   0  0  0  0  0  0  0  0  0  0  0  0
   11.9646    6.0299   21.4251 C   0  0  0  0  0  0  0  0  0  0  0  0
  1  5  1  0
  1 13  1  0
  2 20  2  0
  2 28  1  0
  2 29  1  0
  3 19  4  0
  3 25  4  0
  4 23  4  0
  4 27  1  0
  4 30  4  0
  5 17  1  0
  6  8  1  0
  6 29  1  0
  7 24  4  0
  7 26  4  0
  8 28  1  0
  9 13  2  0
 10 18  1  0
 10 21  4  0
 10 30  4  0
 11 17  2  0
 12 18  1  0
 13 15  1  0
 14 24  1  0
 15 25  1  0
 16 28  2  0
 17 20  1  0
 19 24  4  0
 20 23  1  0
 21 22  4  0
 22 23  4  0
 25 26  4  0
 27 29  2  0
M  END
$$$$

 Created by Python create_sdf_string function

 30 33  0  0  0  0  0  0  0  0999 V2000
    8.3036    9.8571   18.4133 C   0  0  0  0  0  0  0  0  0  0  0  0
    8.3694    7.6612   22.6703 C   0  0  0  0  0  0  0  0  0  0  0  0
    8.4143    6.6863   16.2273 C   0  0  0  0  0  0  0  0  0  0  0  0
   10.7581    6.5674   21.7636 C   0  0  0  0  0  0  0  0  0  0  0  0
    8.4452    8.7960   19.2958 O   0  0  0  0  0  0  0  0  0  0  0  0
    8.7122    6.7842   24.8569 C   0  0  0  0  0  0  0  0  0  0  0  0
   10.3400    6.1726   14.3081 C   0  0  0  0  0  0  0  0  0  0  0  0
    7.4297    7.5873   24.8962 C   0  0  0  0  0  0  0  0  0  0  0  0
    8.1566   10.0536   16.0516 O   0  0  0  0  0  0  0  0  0  0  0  0
   12.4989    6.2074   20.1776 C   0  0  0  0  0  0  0  0  0  0  0  0
    6.9192    9.1053   20.9073 O   0  0  0  0  0  0  0  0  0  0  0  0
   14.3979    6.0729   18.7784 C   0  0  0  0  0  0  0  0  0  0  0  0
    8.6811    9.5354   16.9998 C   0  0  0  0  0  0  0  0  0  0  0  0
    9.2512    4.2713   13.7653 O   0  0  0  0  0  0  0  0  0  0  0  0
    9.6495    8.6317   16.8332 N   0  0  0  0  0  0  0  0  0  0  0  0
    6.2934    8.6988   23.1988 O   0  0  0  0  0  0  0  0  0  0  0  0
    7.9806    8.6543   20.5437 C   0  0  0  0  0  0  0  0  0  0  0  0
   13.7270    5.7144   19.8610 O   0  0  0  0  0  0  0  0  0  0  0  0
    8.3351    5.5235   15.4478 C   0  0  0  0  0  0  0  0  0  0  0  0
    8.7700    7.8434   21.3915 C   0  0  0  0  0  0  0  0  0  0  0  0
   11.7856    6.8851   19.2401 C   0  0  0  0  0  0  0  0  0  0  0  0
   10.5281    7.4276   19.5649 C   0  0  0  0  0  0  0  0  0  0  0  0
   10.0256    7.2907   20.8484 C   0  0  0  0  0  0  0  0  0  0  0  0
    9.3113    5.3049   14.4911 C   0  0  0  0  0  0  0  0  0  0  0  0
    9.4607    7.5646   16.0139 C   0  0  0  0  0  0  0  0  0  0  0  0
   10.4192    7.3157   15.0955 C   0  0  0  0  0  0  0  0  0  0  0  0
   10.2489    6.4227   23.0218 N   0  0  0  0  0  0  0  0  0  0  0  0
    7.2472    8.0746   23.5050 C   0  0  0  0  0  0  0  0  0  0  0  0
    9.2051    6.9101   23.4604 C   0  0  0  0  0  0  0  0  0  0  0  0
   11.9646    6.0299   21.4251 C   0  0  0  0  0  0  0  0  0  0  0  0
  1  5  1  0
  1 13  1  0
  2 20  2  0
  2 28  1  0
  2 29  1  0
  3 19  4  0
  3 25  4  0
  4 23  4  0
  4 27  1  0
  4 30  4  0
  5 17  1  0
  6  8  1  0
  6 29  1  0
  7 24  4  0
  7 26  4  0
  8 28  1  0
  9 13  2  0
 10 18  1  0
 10 21  4  0
 10 30  4  0
 11 17  2  0
 12 18  1  0
 13 15  1  0
 14 24  1  0
 15 25  1  0
 16 28  2  0
 17 20  1  0
 19 24  4  0
 20 23  1  0
 21 22  4  0
 22 23  4  0
 25 26  4  0
 27 29  2  0
M  END
$$$$

 Created by Python create_sdf_string function

 30 33  0  0  0  0  0  0  0  0999 V2000
    8.3036    9.8571   18.4133 C   0  0  0  0  0  0  0  0  0  0  0  0
    8.3694    7.6612   22.6703 C   0  0  0  0  0  0  0  0  0  0  0  0
    8.4143    6.6863   16.2273 C   0  0  0  0  0  0  0  0  0  0  0  0
   10.7581    6.5674   21.7636 C   0  0  0  0  0  0  0  0  0  0  0  0
    8.4452    8.7960   19.2958 O   0  0  0  0  0  0  0  0  0  0  0  0
    8.7122    6.7842   24.8569 C   0  0  0  0  0  0  0  0  0  0  0  0
   10.3400    6.1726   14.3081 C   0  0  0  0  0  0  0  0  0  0  0  0
    7.4297    7.5873   24.8962 C   0  0  0  0  0  0  0  0  0  0  0  0
    8.1566   10.0536   16.0516 O   0  0  0  0  0  0  0  0  0  0  0  0
   12.4989    6.2074   20.1776 C   0  0  0  0  0  0  0  0  0  0  0  0
    6.9192    9.1053   20.9073 O   0  0  0  0  0  0  0  0  0  0  0  0
   14.3979    6.0729   18.7784 C   0  0  0  0  0  0  0  0  0  0  0  0
    8.6811    9.5354   16.9998 C   0  0  0  0  0  0  0  0  0  0  0  0
    9.2512    4.2713   13.7653 O   0  0  0  0  0  0  0  0  0  0  0  0
    9.6495    8.6317   16.8332 N   0  0  0  0  0  0  0  0  0  0  0  0
    6.2934    8.6988   23.1988 O   0  0  0  0  0  0  0  0  0  0  0  0
    7.9806    8.6543   20.5437 C   0  0  0  0  0  0  0  0  0  0  0  0
   13.7270    5.7144   19.8610 O   0  0  0  0  0  0  0  0  0  0  0  0
    8.3351    5.5235   15.4478 C   0  0  0  0  0  0  0  0  0  0  0  0
    8.7700    7.8434   21.3915 C   0  0  0  0  0  0  0  0  0  0  0  0
   11.7856    6.8851   19.2401 C   0  0  0  0  0  0  0  0  0  0  0  0
   10.5281    7.4276   19.5649 C   0  0  0  0  0  0  0  0  0  0  0  0
   10.0256    7.2907   20.8484 C   0  0  0  0  0  0  0  0  0  0  0  0
    9.3113    5.3049   14.4911 C   0  0  0  0  0  0  0  0  0  0  0  0
    9.4607    7.5646   16.0139 C   0  0  0  0  0  0  0  0  0  0  0  0
   10.4192    7.3157   15.0955 C   0  0  0  0  0  0  0  0  0  0  0  0
   10.2489    6.4227   23.0218 N   0  0  0  0  0  0  0  0  0  0  0  0
    7.2472    8.0746   23.5050 C   0  0  0  0  0  0  0  0  0  0  0  0
    9.2051    6.9101   23.4604 C   0  0  0  0  0  0  0  0  0  0  0  0
   11.9646    6.0299   21.4251 C   0  0  0  0  0  0  0  0  0  0  0  0
  1  5  1  0
  1 13  1  0
  2 20  2  0
  2 28  1  0
  2 29  1  0
  3 19  4  0
  3 25  4  0
  4 23  4  0
  4 27  1  0
  4 30  4  0
  5 17  1  0
  6  8  1  0
  6 29  1  0
  7 24  4  0
  7 26  4  0
  8 28  1  0
  9 13  2  0
 10 18  1  0
 10 21  4  0
 10 30  4  0
 11 17  2  0
 12 18  1  0
 13 15  1  0
 14 24  1  0
 15 25  1  0
 16 28  2  0
 17 20  1  0
 19 24  4  0
 20 23  1  0
 21 22  4  0
 22 23  4  0
 25 26  4  0
 27 29  2  0
M  END
$$$$

 Created by Python create_sdf_string function

 30 33  0  0  0  0  0  0  0  0999 V2000
    8.3036    9.8571   18.4133 C   0  0  0  0  0  0  0  0  0  0  0  0
    8.3694    7.6612   22.6703 C   0  0  0  0  0  0  0  0  0  0  0  0
    8.4143    6.6863   16.2273 C   0  0  0  0  0  0  0  0  0  0  0  0
   10.7581    6.5674   21.7636 C   0  0  0  0  0  0  0  0  0  0  0  0
    8.4452    8.7960   19.2958 O   0  0  0  0  0  0  0  0  0  0  0  0
    8.7122    6.7842   24.8569 C   0  0  0  0  0  0  0  0  0  0  0  0
   10.3400    6.1726   14.3081 C   0  0  0  0  0  0  0  0  0  0  0  0
    7.4297    7.5873   24.8962 C   0  0  0  0  0  0  0  0  0  0  0  0
    8.1566   10.0536   16.0516 O   0  0  0  0  0  0  0  0  0  0  0  0
   12.4989    6.2074   20.1776 C   0  0  0  0  0  0  0  0  0  0  0  0
    6.9192    9.1053   20.9073 O   0  0  0  0  0  0  0  0  0  0  0  0
   14.3979    6.0729   18.7784 C   0  0  0  0  0  0  0  0  0  0  0  0
    8.6811    9.5354   16.9998 C   0  0  0  0  0  0  0  0  0  0  0  0
    9.2512    4.2713   13.7653 O   0  0  0  0  0  0  0  0  0  0  0  0
    9.6495    8.6317   16.8332 N   0  0  0  0  0  0  0  0  0  0  0  0
    6.2934    8.6988   23.1988 O   0  0  0  0  0  0  0  0  0  0  0  0
    7.9806    8.6543   20.5437 C   0  0  0  0  0  0  0  0  0  0  0  0
   13.7270    5.7144   19.8610 O   0  0  0  0  0  0  0  0  0  0  0  0
    8.3351    5.5235   15.4478 C   0  0  0  0  0  0  0  0  0  0  0  0
    8.7700    7.8434   21.3915 C   0  0  0  0  0  0  0  0  0  0  0  0
   11.7856    6.8851   19.2401 C   0  0  0  0  0  0  0  0  0  0  0  0
   10.5281    7.4276   19.5649 C   0  0  0  0  0  0  0  0  0  0  0  0
   10.0256    7.2907   20.8484 C   0  0  0  0  0  0  0  0  0  0  0  0
    9.3113    5.3049   14.4911 C   0  0  0  0  0  0  0  0  0  0  0  0
    9.4607    7.5646   16.0139 C   0  0  0  0  0  0  0  0  0  0  0  0
   10.4192    7.3157   15.0955 C   0  0  0  0  0  0  0  0  0  0  0  0
   10.2489    6.4227   23.0218 N   0  0  0  0  0  0  0  0  0  0  0  0
    7.2472    8.0746   23.5050 C   0  0  0  0  0  0  0  0  0  0  0  0
    9.2051    6.9101   23.4604 C   0  0  0  0  0  0  0  0  0  0  0  0
   11.9646    6.0299   21.4251 C   0  0  0  0  0  0  0  0  0  0  0  0
  1  5  1  0
  1 13  1  0
  2 20  2  0
  2 28  1  0
  2 29  1  0
  3 19  4  0
  3 25  4  0
  4 23  4  0
  4 27  1  0
  4 30  4  0
  5 17  1  0
  6  8  1  0
  6 29  1  0
  7 24  4  0
  7 26  4  0
  8 28  1  0
  9 13  2  0
 10 18  1  0
 10 21  4  0
 10 30  4  0
 11 17  2  0
 12 18  1  0
 13 15  1  0
 14 24  1  0
 15 25  1  0
 16 28  2  0
 17 20  1  0
 19 24  4  0
 20 23  1  0
 21 22  4  0
 22 23  4  0
 25 26  4  0
 27 29  2  0
M  END
$$$$

 Created by Python create_sdf_string function

 30 33  0  0  0  0  0  0  0  0999 V2000
    8.3036    9.8571   18.4133 C   0  0  0  0  0  0  0  0  0  0  0  0
    8.3694    7.6612   22.6703 C   0  0  0  0  0  0  0  0  0  0  0  0
    8.4143    6.6863   16.2273 C   0  0  0  0  0  0  0  0  0  0  0  0
   10.7581    6.5674   21.7636 C   0  0  0  0  0  0  0  0  0  0  0  0
    8.4452    8.7960   19.2958 O   0  0  0  0  0  0  0  0  0  0  0  0
    8.7122    6.7842   24.8569 C   0  0  0  0  0  0  0  0  0  0  0  0
   10.3400    6.1726   14.3081 C   0  0  0  0  0  0  0  0  0  0  0  0
    7.4297    7.5873   24.8962 C   0  0  0  0  0  0  0  0  0  0  0  0
    8.1566   10.0536   16.0516 O   0  0  0  0  0  0  0  0  0  0  0  0
   12.4989    6.2074   20.1776 C   0  0  0  0  0  0  0  0  0  0  0  0
    6.9192    9.1053   20.9073 O   0  0  0  0  0  0  0  0  0  0  0  0
   14.3979    6.0729   18.7784 C   0  0  0  0  0  0  0  0  0  0  0  0
    8.6811    9.5354   16.9998 C   0  0  0  0  0  0  0  0  0  0  0  0
    9.2512    4.2713   13.7653 O   0  0  0  0  0  0  0  0  0  0  0  0
    9.6495    8.6317   16.8332 N   0  0  0  0  0  0  0  0  0  0  0  0
    6.2934    8.6988   23.1988 O   0  0  0  0  0  0  0  0  0  0  0  0
    7.9806    8.6543   20.5437 C   0  0  0  0  0  0  0  0  0  0  0  0
   13.7270    5.7144   19.8610 O   0  0  0  0  0  0  0  0  0  0  0  0
    8.3351    5.5235   15.4478 C   0  0  0  0  0  0  0  0  0  0  0  0
    8.7700    7.8434   21.3915 C   0  0  0  0  0  0  0  0  0  0  0  0
   11.7856    6.8851   19.2401 C   0  0  0  0  0  0  0  0  0  0  0  0
   10.5281    7.4276   19.5649 C   0  0  0  0  0  0  0  0  0  0  0  0
   10.0256    7.2907   20.8484 C   0  0  0  0  0  0  0  0  0  0  0  0
    9.3113    5.3049   14.4911 C   0  0  0  0  0  0  0  0  0  0  0  0
    9.4607    7.5646   16.0139 C   0  0  0  0  0  0  0  0  0  0  0  0
   10.4192    7.3157   15.0955 C   0  0  0  0  0  0  0  0  0  0  0  0
   10.2489    6.4227   23.0218 N   0  0  0  0  0  0  0  0  0  0  0  0
    7.2472    8.0746   23.5050 C   0  0  0  0  0  0  0  0  0  0  0  0
    9.2051    6.9101   23.4604 C   0  0  0  0  0  0  0  0  0  0  0  0
   11.9646    6.0299   21.4251 C   0  0  0  0  0  0  0  0  0  0  0  0
  1  5  1  0
  1 13  1  0
  2 20  2  0
  2 28  1  0
  2 29  1  0
  3 19  4  0
  3 25  4  0
  4 23  4  0
  4 27  1  0
  4 30  4  0
  5 17  1  0
  6  8  1  0
  6 29  1  0
  7 24  4  0
  7 26  4  0
  8 28  1  0
  9 13  2  0
 10 18  1  0
 10 21  4  0
 10 30  4  0
 11 17  2  0
 12 18  1  0
 13 15  1  0
 14 24  1  0
 15 25  1  0
 16 28  2  0
 17 20  1  0
 19 24  4  0
 20 23  1  0
 21 22  4  0
 22 23  4  0
 25 26  4  0
 27 29  2  0
M  END
$$$$

 Created by Python create_sdf_string function

 30 33  0  0  0  0  0  0  0  0999 V2000
    8.3036    9.8571   18.4133 C   0  0  0  0  0  0  0  0  0  0  0  0
    8.3694    7.6612   22.6703 C   0  0  0  0  0  0  0  0  0  0  0  0
    8.4143    6.6863   16.2273 C   0  0  0  0  0  0  0  0  0  0  0  0
   10.7581    6.5674   21.7636 C   0  0  0  0  0  0  0  0  0  0  0  0
    8.4452    8.7960   19.2958 O   0  0  0  0  0  0  0  0  0  0  0  0
    8.7122    6.7842   24.8569 C   0  0  0  0  0  0  0  0  0  0  0  0
   10.3400    6.1726   14.3081 C   0  0  0  0  0  0  0  0  0  0  0  0
    7.4297    7.5873   24.8962 C   0  0  0  0  0  0  0  0  0  0  0  0
    8.1566   10.0536   16.0516 O   0  0  0  0  0  0  0  0  0  0  0  0
   12.4989    6.2074   20.1776 C   0  0  0  0  0  0  0  0  0  0  0  0
    6.9192    9.1053   20.9073 O   0  0  0  0  0  0  0  0  0  0  0  0
   14.3979    6.0729   18.7784 C   0  0  0  0  0  0  0  0  0  0  0  0
    8.6811    9.5354   16.9998 C   0  0  0  0  0  0  0  0  0  0  0  0
    9.2512    4.2713   13.7653 O   0  0  0  0  0  0  0  0  0  0  0  0
    9.6495    8.6317   16.8332 N   0  0  0  0  0  0  0  0  0  0  0  0
    6.2934    8.6988   23.1988 O   0  0  0  0  0  0  0  0  0  0  0  0
    7.9806    8.6543   20.5437 C   0  0  0  0  0  0  0  0  0  0  0  0
   13.7270    5.7144   19.8610 O   0  0  0  0  0  0  0  0  0  0  0  0
    8.3351    5.5235   15.4478 C   0  0  0  0  0  0  0  0  0  0  0  0
    8.7700    7.8434   21.3915 C   0  0  0  0  0  0  0  0  0  0  0  0
   11.7856    6.8851   19.2401 C   0  0  0  0  0  0  0  0  0  0  0  0
   10.5281    7.4276   19.5649 C   0  0  0  0  0  0  0  0  0  0  0  0
   10.0256    7.2907   20.8484 C   0  0  0  0  0  0  0  0  0  0  0  0
    9.3113    5.3049   14.4911 C   0  0  0  0  0  0  0  0  0  0  0  0
    9.4607    7.5646   16.0139 C   0  0  0  0  0  0  0  0  0  0  0  0
   10.4192    7.3157   15.0955 C   0  0  0  0  0  0  0  0  0  0  0  0
   10.2489    6.4227   23.0218 N   0  0  0  0  0  0  0  0  0  0  0  0
    7.2472    8.0746   23.5050 C   0  0  0  0  0  0  0  0  0  0  0  0
    9.2051    6.9101   23.4604 C   0  0  0  0  0  0  0  0  0  0  0  0
   11.9646    6.0299   21.4251 C   0  0  0  0  0  0  0  0  0  0  0  0
  1  5  1  0
  1 13  1  0
  2 20  2  0
  2 28  1  0
  2 29  1  0
  3 19  4  0
  3 25  4  0
  4 23  4  0
  4 27  1  0
  4 30  4  0
  5 17  1  0
  6  8  1  0
  6 29  1  0
  7 24  4  0
  7 26  4  0
  8 28  1  0
  9 13  2  0
 10 18  1  0
 10 21  4  0
 10 30  4  0
 11 17  2  0
 12 18  1  0
 13 15  1  0
 14 24  1  0
 15 25  1  0
 16 28  2  0
 17 20  1  0
 19 24  4  0
 20 23  1  0
 21 22  4  0
 22 23  4  0
 25 26  4  0
 27 29  2  0
M  END
$$$$

 Created by Python create_sdf_string function

 30 33  0  0  0  0  0  0  0  0999 V2000
    8.3036    9.8571   18.4133 C   0  0  0  0  0  0  0  0  0  0  0  0
    8.3694    7.6612   22.6703 C   0  0  0  0  0  0  0  0  0  0  0  0
    8.4143    6.6863   16.2273 C   0  0  0  0  0  0  0  0  0  0  0  0
   10.7581    6.5674   21.7636 C   0  0  0  0  0  0  0  0  0  0  0  0
    8.4452    8.7960   19.2958 O   0  0  0  0  0  0  0  0  0  0  0  0
    8.7122    6.7842   24.8569 C   0  0  0  0  0  0  0  0  0  0  0  0
   10.3400    6.1726   14.3081 C   0  0  0  0  0  0  0  0  0  0  0  0
    7.4297    7.5873   24.8962 C   0  0  0  0  0  0  0  0  0  0  0  0
    8.1566   10.0536   16.0516 O   0  0  0  0  0  0  0  0  0  0  0  0
   12.4989    6.2074   20.1776 C   0  0  0  0  0  0  0  0  0  0  0  0
    6.9192    9.1053   20.9073 O   0  0  0  0  0  0  0  0  0  0  0  0
   14.3979    6.0729   18.7784 C   0  0  0  0  0  0  0  0  0  0  0  0
    8.6811    9.5354   16.9998 C   0  0  0  0  0  0  0  0  0  0  0  0
    9.2512    4.2713   13.7653 O   0  0  0  0  0  0  0  0  0  0  0  0
    9.6495    8.6317   16.8332 N   0  0  0  0  0  0  0  0  0  0  0  0
    6.2934    8.6988   23.1988 O   0  0  0  0  0  0  0  0  0  0  0  0
    7.9806    8.6543   20.5437 C   0  0  0  0  0  0  0  0  0  0  0  0
   13.7270    5.7144   19.8610 O   0  0  0  0  0  0  0  0  0  0  0  0
    8.3351    5.5235   15.4478 C   0  0  0  0  0  0  0  0  0  0  0  0
    8.7700    7.8434   21.3915 C   0  0  0  0  0  0  0  0  0  0  0  0
   11.7856    6.8851   19.2401 C   0  0  0  0  0  0  0  0  0  0  0  0
   10.5281    7.4276   19.5649 C   0  0  0  0  0  0  0  0  0  0  0  0
   10.0256    7.2907   20.8484 C   0  0  0  0  0  0  0  0  0  0  0  0
    9.3113    5.3049   14.4911 C   0  0  0  0  0  0  0  0  0  0  0  0
    9.4607    7.5646   16.0139 C   0  0  0  0  0  0  0  0  0  0  0  0
   10.4192    7.3157   15.0955 C   0  0  0  0  0  0  0  0  0  0  0  0
   10.2489    6.4227   23.0218 N   0  0  0  0  0  0  0  0  0  0  0  0
    7.2472    8.0746   23.5050 C   0  0  0  0  0  0  0  0  0  0  0  0
    9.2051    6.9101   23.4604 C   0  0  0  0  0  0  0  0  0  0  0  0
   11.9646    6.0299   21.4251 C   0  0  0  0  0  0  0  0  0  0  0  0
  1  5  1  0
  1 13  1  0
  2 20  2  0
  2 28  1  0
  2 29  1  0
  3 19  4  0
  3 25  4  0
  4 23  4  0
  4 27  1  0
  4 30  4  0
  5 17  1  0
  6  8  1  0
  6 29  1  0
  7 24  4  0
  7 26  4  0
  8 28  1  0
  9 13  2  0
 10 18  1  0
 10 21  4  0
 10 30  4  0
 11 17  2  0
 12 18  1  0
 13 15  1  0
 14 24  1  0
 15 25  1  0
 16 28  2  0
 17 20  1  0
 19 24  4  0
 20 23  1  0
 21 22  4  0
 22 23  4  0
 25 26  4  0
 27 29  2  0
M  END
$$$$

 Created by Python create_sdf_string function

 30 33  0  0  0  0  0  0  0  0999 V2000
    8.3036    9.8571   18.4133 C   0  0  0  0  0  0  0  0  0  0  0  0
    8.3694    7.6612   22.6703 C   0  0  0  0  0  0  0  0  0  0  0  0
    8.4143    6.6863   16.2273 C   0  0  0  0  0  0  0  0  0  0  0  0
   10.7581    6.5674   21.7636 C   0  0  0  0  0  0  0  0  0  0  0  0
    8.4452    8.7960   19.2958 O   0  0  0  0  0  0  0  0  0  0  0  0
    8.7122    6.7842   24.8569 C   0  0  0  0  0  0  0  0  0  0  0  0
   10.3400    6.1726   14.3081 C   0  0  0  0  0  0  0  0  0  0  0  0
    7.4297    7.5873   24.8962 C   0  0  0  0  0  0  0  0  0  0  0  0
    8.1566   10.0536   16.0516 O   0  0  0  0  0  0  0  0  0  0  0  0
   12.4989    6.2074   20.1776 C   0  0  0  0  0  0  0  0  0  0  0  0
    6.9192    9.1053   20.9073 O   0  0  0  0  0  0  0  0  0  0  0  0
   14.3979    6.0729   18.7784 C   0  0  0  0  0  0  0  0  0  0  0  0
    8.6811    9.5354   16.9998 C   0  0  0  0  0  0  0  0  0  0  0  0
    9.2512    4.2713   13.7653 O   0  0  0  0  0  0  0  0  0  0  0  0
    9.6495    8.6317   16.8332 N   0  0  0  0  0  0  0  0  0  0  0  0
    6.2934    8.6988   23.1988 O   0  0  0  0  0  0  0  0  0  0  0  0
    7.9806    8.6543   20.5437 C   0  0  0  0  0  0  0  0  0  0  0  0
   13.7270    5.7144   19.8610 O   0  0  0  0  0  0  0  0  0  0  0  0
    8.3351    5.5235   15.4478 C   0  0  0  0  0  0  0  0  0  0  0  0
    8.7700    7.8434   21.3915 C   0  0  0  0  0  0  0  0  0  0  0  0
   11.7856    6.8851   19.2401 C   0  0  0  0  0  0  0  0  0  0  0  0
   10.5281    7.4276   19.5649 C   0  0  0  0  0  0  0  0  0  0  0  0
   10.0256    7.2907   20.8484 C   0  0  0  0  0  0  0  0  0  0  0  0
    9.3113    5.3049   14.4911 C   0  0  0  0  0  0  0  0  0  0  0  0
    9.4607    7.5646   16.0139 C   0  0  0  0  0  0  0  0  0  0  0  0
   10.4192    7.3157   15.0955 C   0  0  0  0  0  0  0  0  0  0  0  0
   10.2489    6.4227   23.0218 N   0  0  0  0  0  0  0  0  0  0  0  0
    7.2472    8.0746   23.5050 C   0  0  0  0  0  0  0  0  0  0  0  0
    9.2051    6.9101   23.4604 C   0  0  0  0  0  0  0  0  0  0  0  0
   11.9646    6.0299   21.4251 C   0  0  0  0  0  0  0  0  0  0  0  0
  1  5  1  0
  1 13  1  0
  2 20  2  0
  2 28  1  0
  2 29  1  0
  3 19  4  0
  3 25  4  0
  4 23  4  0
  4 27  1  0
  4 30  4  0
  5 17  1  0
  6  8  1  0
  6 29  1  0
  7 24  4  0
  7 26  4  0
  8 28  1  0
  9 13  2  0
 10 18  1  0
 10 21  4  0
 10 30  4  0
 11 17  2  0
 12 18  1  0
 13 15  1  0
 14 24  1  0
 15 25  1  0
 16 28  2  0
 17 20  1  0
 19 24  4  0
 20 23  1  0
 21 22  4  0
 22 23  4  0
 25 26  4  0
 27 29  2  0
M  END
$$$$

 Created by Python create_sdf_string function

 30 33  0  0  0  0  0  0  0  0999 V2000
    8.3036    9.8571   18.4133 C   0  0  0  0  0  0  0  0  0  0  0  0
    8.3694    7.6612   22.6703 C   0  0  0  0  0  0  0  0  0  0  0  0
    8.4143    6.6863   16.2273 C   0  0  0  0  0  0  0  0  0  0  0  0
   10.7581    6.5674   21.7636 C   0  0  0  0  0  0  0  0  0  0  0  0
    8.4452    8.7960   19.2958 O   0  0  0  0  0  0  0  0  0  0  0  0
    8.7122    6.7842   24.8569 C   0  0  0  0  0  0  0  0  0  0  0  0
   10.3400    6.1726   14.3081 C   0  0  0  0  0  0  0  0  0  0  0  0
    7.4297    7.5873   24.8962 C   0  0  0  0  0  0  0  0  0  0  0  0
    8.1566   10.0536   16.0516 O   0  0  0  0  0  0  0  0  0  0  0  0
   12.4989    6.2074   20.1776 C   0  0  0  0  0  0  0  0  0  0  0  0
    6.9192    9.1053   20.9073 O   0  0  0  0  0  0  0  0  0  0  0  0
   14.3979    6.0729   18.7784 C   0  0  0  0  0  0  0  0  0  0  0  0
    8.6811    9.5354   16.9998 C   0  0  0  0  0  0  0  0  0  0  0  0
    9.2512    4.2713   13.7653 O   0  0  0  0  0  0  0  0  0  0  0  0
    9.6495    8.6317   16.8332 N   0  0  0  0  0  0  0  0  0  0  0  0
    6.2934    8.6988   23.1988 O   0  0  0  0  0  0  0  0  0  0  0  0
    7.9806    8.6543   20.5437 C   0  0  0  0  0  0  0  0  0  0  0  0
   13.7270    5.7144   19.8610 O   0  0  0  0  0  0  0  0  0  0  0  0
    8.3351    5.5235   15.4478 C   0  0  0  0  0  0  0  0  0  0  0  0
    8.7700    7.8434   21.3915 C   0  0  0  0  0  0  0  0  0  0  0  0
   11.7856    6.8851   19.2401 C   0  0  0  0  0  0  0  0  0  0  0  0
   10.5281    7.4276   19.5649 C   0  0  0  0  0  0  0  0  0  0  0  0
   10.0256    7.2907   20.8484 C   0  0  0  0  0  0  0  0  0  0  0  0
    9.3113    5.3049   14.4911 C   0  0  0  0  0  0  0  0  0  0  0  0
    9.4607    7.5646   16.0139 C   0  0  0  0  0  0  0  0  0  0  0  0
   10.4192    7.3157   15.0955 C   0  0  0  0  0  0  0  0  0  0  0  0
   10.2489    6.4227   23.0218 N   0  0  0  0  0  0  0  0  0  0  0  0
    7.2472    8.0746   23.5050 C   0  0  0  0  0  0  0  0  0  0  0  0
    9.2051    6.9101   23.4604 C   0  0  0  0  0  0  0  0  0  0  0  0
   11.9646    6.0299   21.4251 C   0  0  0  0  0  0  0  0  0  0  0  0
  1  5  1  0
  1 13  1  0
  2 20  2  0
  2 28  1  0
  2 29  1  0
  3 19  4  0
  3 25  4  0
  4 23  4  0
  4 27  1  0
  4 30  4  0
  5 17  1  0
  6  8  1  0
  6 29  1  0
  7 24  4  0
  7 26  4  0
  8 28  1  0
  9 13  2  0
 10 18  1  0
 10 21  4  0
 10 30  4  0
 11 17  2  0
 12 18  1  0
 13 15  1  0
 14 24  1  0
 15 25  1  0
 16 28  2  0
 17 20  1  0
 19 24  4  0
 20 23  1  0
 21 22  4  0
 22 23  4  0
 25 26  4  0
 27 29  2  0
M  END
$$$$

 Created by Python create_sdf_string function

 30 33  0  0  0  0  0  0  0  0999 V2000
    8.3036    9.8571   18.4133 C   0  0  0  0  0  0  0  0  0  0  0  0
    8.3694    7.6612   22.6703 C   0  0  0  0  0  0  0  0  0  0  0  0
    8.4143    6.6863   16.2273 C   0  0  0  0  0  0  0  0  0  0  0  0
   10.7581    6.5674   21.7636 C   0  0  0  0  0  0  0  0  0  0  0  0
    8.4452    8.7960   19.2958 O   0  0  0  0  0  0  0  0  0  0  0  0
    8.7122    6.7842   24.8569 C   0  0  0  0  0  0  0  0  0  0  0  0
   10.3400    6.1726   14.3081 C   0  0  0  0  0  0  0  0  0  0  0  0
    7.4297    7.5873   24.8962 C   0  0  0  0  0  0  0  0  0  0  0  0
    8.1566   10.0536   16.0516 O   0  0  0  0  0  0  0  0  0  0  0  0
   12.4989    6.2074   20.1776 C   0  0  0  0  0  0  0  0  0  0  0  0
    6.9192    9.1053   20.9073 O   0  0  0  0  0  0  0  0  0  0  0  0
   14.3979    6.0729   18.7784 C   0  0  0  0  0  0  0  0  0  0  0  0
    8.6811    9.5354   16.9998 C   0  0  0  0  0  0  0  0  0  0  0  0
    9.2512    4.2713   13.7653 O   0  0  0  0  0  0  0  0  0  0  0  0
    9.6495    8.6317   16.8332 N   0  0  0  0  0  0  0  0  0  0  0  0
    6.2934    8.6988   23.1988 O   0  0  0  0  0  0  0  0  0  0  0  0
    7.9806    8.6543   20.5437 C   0  0  0  0  0  0  0  0  0  0  0  0
   13.7270    5.7144   19.8610 O   0  0  0  0  0  0  0  0  0  0  0  0
    8.3351    5.5235   15.4478 C   0  0  0  0  0  0  0  0  0  0  0  0
    8.7700    7.8434   21.3915 C   0  0  0  0  0  0  0  0  0  0  0  0
   11.7856    6.8851   19.2401 C   0  0  0  0  0  0  0  0  0  0  0  0
   10.5281    7.4276   19.5649 C   0  0  0  0  0  0  0  0  0  0  0  0
   10.0256    7.2907   20.8484 C   0  0  0  0  0  0  0  0  0  0  0  0
    9.3113    5.3049   14.4911 C   0  0  0  0  0  0  0  0  0  0  0  0
    9.4607    7.5646   16.0139 C   0  0  0  0  0  0  0  0  0  0  0  0
   10.4192    7.3157   15.0955 C   0  0  0  0  0  0  0  0  0  0  0  0
   10.2489    6.4227   23.0218 N   0  0  0  0  0  0  0  0  0  0  0  0
    7.2472    8.0746   23.5050 C   0  0  0  0  0  0  0  0  0  0  0  0
    9.2051    6.9101   23.4604 C   0  0  0  0  0  0  0  0  0  0  0  0
   11.9646    6.0299   21.4251 C   0  0  0  0  0  0  0  0  0  0  0  0
  1  5  1  0
  1 13  1  0
  2 20  2  0
  2 28  1  0
  2 29  1  0
  3 19  4  0
  3 25  4  0
  4 23  4  0
  4 27  1  0
  4 30  4  0
  5 17  1  0
  6  8  1  0
  6 29  1  0
  7 24  4  0
  7 26  4  0
  8 28  1  0
  9 13  2  0
 10 18  1  0
 10 21  4  0
 10 30  4  0
 11 17  2  0
 12 18  1  0
 13 15  1  0
 14 24  1  0
 15 25  1  0
 16 28  2  0
 17 20  1  0
 19 24  4  0
 20 23  1  0
 21 22  4  0
 22 23  4  0
 25 26  4  0
 27 29  2  0
M  END
$$$$

 Created by Python create_sdf_string function

 30 33  0  0  0  0  0  0  0  0999 V2000
    8.3036    9.8571   18.4133 C   0  0  0  0  0  0  0  0  0  0  0  0
    8.3694    7.6612   22.6703 C   0  0  0  0  0  0  0  0  0  0  0  0
    8.4143    6.6863   16.2273 C   0  0  0  0  0  0  0  0  0  0  0  0
   10.7581    6.5674   21.7636 C   0  0  0  0  0  0  0  0  0  0  0  0
    8.4452    8.7960   19.2958 O   0  0  0  0  0  0  0  0  0  0  0  0
    8.7122    6.7842   24.8569 C   0  0  0  0  0  0  0  0  0  0  0  0
   10.3400    6.1726   14.3081 C   0  0  0  0  0  0  0  0  0  0  0  0
    7.4297    7.5873   24.8962 C   0  0  0  0  0  0  0  0  0  0  0  0
    8.1566   10.0536   16.0516 O   0  0  0  0  0  0  0  0  0  0  0  0
   12.4989    6.2074   20.1776 C   0  0  0  0  0  0  0  0  0  0  0  0
    6.9192    9.1053   20.9073 O   0  0  0  0  0  0  0  0  0  0  0  0
   14.3979    6.0729   18.7784 C   0  0  0  0  0  0  0  0  0  0  0  0
    8.6811    9.5354   16.9998 C   0  0  0  0  0  0  0  0  0  0  0  0
    9.2512    4.2713   13.7653 O   0  0  0  0  0  0  0  0  0  0  0  0
    9.6495    8.6317   16.8332 N   0  0  0  0  0  0  0  0  0  0  0  0
    6.2934    8.6988   23.1988 O   0  0  0  0  0  0  0  0  0  0  0  0
    7.9806    8.6543   20.5437 C   0  0  0  0  0  0  0  0  0  0  0  0
   13.7270    5.7144   19.8610 O   0  0  0  0  0  0  0  0  0  0  0  0
    8.3351    5.5235   15.4478 C   0  0  0  0  0  0  0  0  0  0  0  0
    8.7700    7.8434   21.3915 C   0  0  0  0  0  0  0  0  0  0  0  0
   11.7856    6.8851   19.2401 C   0  0  0  0  0  0  0  0  0  0  0  0
   10.5281    7.4276   19.5649 C   0  0  0  0  0  0  0  0  0  0  0  0
   10.0256    7.2907   20.8484 C   0  0  0  0  0  0  0  0  0  0  0  0
    9.3113    5.3049   14.4911 C   0  0  0  0  0  0  0  0  0  0  0  0
    9.4607    7.5646   16.0139 C   0  0  0  0  0  0  0  0  0  0  0  0
   10.4192    7.3157   15.0955 C   0  0  0  0  0  0  0  0  0  0  0  0
   10.2489    6.4227   23.0218 N   0  0  0  0  0  0  0  0  0  0  0  0
    7.2472    8.0746   23.5050 C   0  0  0  0  0  0  0  0  0  0  0  0
    9.2051    6.9101   23.4604 C   0  0  0  0  0  0  0  0  0  0  0  0
   11.9646    6.0299   21.4251 C   0  0  0  0  0  0  0  0  0  0  0  0
  1  5  1  0
  1 13  1  0
  2 20  2  0
  2 28  1  0
  2 29  1  0
  3 19  4  0
  3 25  4  0
  4 23  4  0
  4 27  1  0
  4 30  4  0
  5 17  1  0
  6  8  1  0
  6 29  1  0
  7 24  4  0
  7 26  4  0
  8 28  1  0
  9 13  2  0
 10 18  1  0
 10 21  4  0
 10 30  4  0
 11 17  2  0
 12 18  1  0
 13 15  1  0
 14 24  1  0
 15 25  1  0
 16 28  2  0
 17 20  1  0
 19 24  4  0
 20 23  1  0
 21 22  4  0
 22 23  4  0
 25 26  4  0
 27 29  2  0
M  END
$$$$

 Created by Python create_sdf_string function

 30 33  0  0  0  0  0  0  0  0999 V2000
    8.3036    9.8571   18.4133 C   0  0  0  0  0  0  0  0  0  0  0  0
    8.3694    7.6612   22.6703 C   0  0  0  0  0  0  0  0  0  0  0  0
    8.4143    6.6863   16.2273 C   0  0  0  0  0  0  0  0  0  0  0  0
   10.7581    6.5674   21.7636 C   0  0  0  0  0  0  0  0  0  0  0  0
    8.4452    8.7960   19.2958 O   0  0  0  0  0  0  0  0  0  0  0  0
    8.7122    6.7842   24.8569 C   0  0  0  0  0  0  0  0  0  0  0  0
   10.3400    6.1726   14.3081 C   0  0  0  0  0  0  0  0  0  0  0  0
    7.4297    7.5873   24.8962 C   0  0  0  0  0  0  0  0  0  0  0  0
    8.1566   10.0536   16.0516 O   0  0  0  0  0  0  0  0  0  0  0  0
   12.4989    6.2074   20.1776 C   0  0  0  0  0  0  0  0  0  0  0  0
    6.9192    9.1053   20.9073 O   0  0  0  0  0  0  0  0  0  0  0  0
   14.3979    6.0729   18.7784 C   0  0  0  0  0  0  0  0  0  0  0  0
    8.6811    9.5354   16.9998 C   0  0  0  0  0  0  0  0  0  0  0  0
    9.2512    4.2713   13.7653 O   0  0  0  0  0  0  0  0  0  0  0  0
    9.6495    8.6317   16.8332 N   0  0  0  0  0  0  0  0  0  0  0  0
    6.2934    8.6988   23.1988 O   0  0  0  0  0  0  0  0  0  0  0  0
    7.9806    8.6543   20.5437 C   0  0  0  0  0  0  0  0  0  0  0  0
   13.7270    5.7144   19.8610 O   0  0  0  0  0  0  0  0  0  0  0  0
    8.3351    5.5235   15.4478 C   0  0  0  0  0  0  0  0  0  0  0  0
    8.7700    7.8434   21.3915 C   0  0  0  0  0  0  0  0  0  0  0  0
   11.7856    6.8851   19.2401 C   0  0  0  0  0  0  0  0  0  0  0  0
   10.5281    7.4276   19.5649 C   0  0  0  0  0  0  0  0  0  0  0  0
   10.0256    7.2907   20.8484 C   0  0  0  0  0  0  0  0  0  0  0  0
    9.3113    5.3049   14.4911 C   0  0  0  0  0  0  0  0  0  0  0  0
    9.4607    7.5646   16.0139 C   0  0  0  0  0  0  0  0  0  0  0  0
   10.4192    7.3157   15.0955 C   0  0  0  0  0  0  0  0  0  0  0  0
   10.2489    6.4227   23.0218 N   0  0  0  0  0  0  0  0  0  0  0  0
    7.2472    8.0746   23.5050 C   0  0  0  0  0  0  0  0  0  0  0  0
    9.2051    6.9101   23.4604 C   0  0  0  0  0  0  0  0  0  0  0  0
   11.9646    6.0299   21.4251 C   0  0  0  0  0  0  0  0  0  0  0  0
  1  5  1  0
  1 13  1  0
  2 20  2  0
  2 28  1  0
  2 29  1  0
  3 19  4  0
  3 25  4  0
  4 23  4  0
  4 27  1  0
  4 30  4  0
  5 17  1  0
  6  8  1  0
  6 29  1  0
  7 24  4  0
  7 26  4  0
  8 28  1  0
  9 13  2  0
 10 18  1  0
 10 21  4  0
 10 30  4  0
 11 17  2  0
 12 18  1  0
 13 15  1  0
 14 24  1  0
 15 25  1  0
 16 28  2  0
 17 20  1  0
 19 24  4  0
 20 23  1  0
 21 22  4  0
 22 23  4  0
 25 26  4  0
 27 29  2  0
M  END
$$$$

 Created by Python create_sdf_string function

 30 33  0  0  0  0  0  0  0  0999 V2000
    8.3036    9.8571   18.4133 C   0  0  0  0  0  0  0  0  0  0  0  0
    8.3694    7.6612   22.6703 C   0  0  0  0  0  0  0  0  0  0  0  0
    8.4143    6.6863   16.2273 C   0  0  0  0  0  0  0  0  0  0  0  0
   10.7581    6.5674   21.7636 C   0  0  0  0  0  0  0  0  0  0  0  0
    8.4452    8.7960   19.2958 O   0  0  0  0  0  0  0  0  0  0  0  0
    8.7122    6.7842   24.8569 C   0  0  0  0  0  0  0  0  0  0  0  0
   10.3400    6.1726   14.3081 C   0  0  0  0  0  0  0  0  0  0  0  0
    7.4297    7.5873   24.8962 C   0  0  0  0  0  0  0  0  0  0  0  0
    8.1566   10.0536   16.0516 O   0  0  0  0  0  0  0  0  0  0  0  0
   12.4989    6.2074   20.1776 C   0  0  0  0  0  0  0  0  0  0  0  0
    6.9192    9.1053   20.9073 O   0  0  0  0  0  0  0  0  0  0  0  0
   14.3979    6.0729   18.7784 C   0  0  0  0  0  0  0  0  0  0  0  0
    8.6811    9.5354   16.9998 C   0  0  0  0  0  0  0  0  0  0  0  0
    9.2512    4.2713   13.7653 O   0  0  0  0  0  0  0  0  0  0  0  0
    9.6495    8.6317   16.8332 N   0  0  0  0  0  0  0  0  0  0  0  0
    6.2934    8.6988   23.1988 O   0  0  0  0  0  0  0  0  0  0  0  0
    7.9806    8.6543   20.5437 C   0  0  0  0  0  0  0  0  0  0  0  0
   13.7270    5.7144   19.8610 O   0  0  0  0  0  0  0  0  0  0  0  0
    8.3351    5.5235   15.4478 C   0  0  0  0  0  0  0  0  0  0  0  0
    8.7700    7.8434   21.3915 C   0  0  0  0  0  0  0  0  0  0  0  0
   11.7856    6.8851   19.2401 C   0  0  0  0  0  0  0  0  0  0  0  0
   10.5281    7.4276   19.5649 C   0  0  0  0  0  0  0  0  0  0  0  0
   10.0256    7.2907   20.8484 C   0  0  0  0  0  0  0  0  0  0  0  0
    9.3113    5.3049   14.4911 C   0  0  0  0  0  0  0  0  0  0  0  0
    9.4607    7.5646   16.0139 C   0  0  0  0  0  0  0  0  0  0  0  0
   10.4192    7.3157   15.0955 C   0  0  0  0  0  0  0  0  0  0  0  0
   10.2489    6.4227   23.0218 N   0  0  0  0  0  0  0  0  0  0  0  0
    7.2472    8.0746   23.5050 C   0  0  0  0  0  0  0  0  0  0  0  0
    9.2051    6.9101   23.4604 C   0  0  0  0  0  0  0  0  0  0  0  0
   11.9646    6.0299   21.4251 C   0  0  0  0  0  0  0  0  0  0  0  0
  1  5  1  0
  1 13  1  0
  2 20  2  0
  2 28  1  0
  2 29  1  0
  3 19  4  0
  3 25  4  0
  4 23  4  0
  4 27  1  0
  4 30  4  0
  5 17  1  0
  6  8  1  0
  6 29  1  0
  7 24  4  0
  7 26  4  0
  8 28  1  0
  9 13  2  0
 10 18  1  0
 10 21  4  0
 10 30  4  0
 11 17  2  0
 12 18  1  0
 13 15  1  0
 14 24  1  0
 15 25  1  0
 16 28  2  0
 17 20  1  0
 19 24  4  0
 20 23  1  0
 21 22  4  0
 22 23  4  0
 25 26  4  0
 27 29  2  0
M  END
$$$$

 Created by Python create_sdf_string function

 30 33  0  0  0  0  0  0  0  0999 V2000
    8.3036    9.8571   18.4133 C   0  0  0  0  0  0  0  0  0  0  0  0
    8.3694    7.6612   22.6703 C   0  0  0  0  0  0  0  0  0  0  0  0
    8.4143    6.6863   16.2273 C   0  0  0  0  0  0  0  0  0  0  0  0
   10.7581    6.5674   21.7636 C   0  0  0  0  0  0  0  0  0  0  0  0
    8.4452    8.7960   19.2958 O   0  0  0  0  0  0  0  0  0  0  0  0
    8.7122    6.7842   24.8569 C   0  0  0  0  0  0  0  0  0  0  0  0
   10.3400    6.1726   14.3081 C   0  0  0  0  0  0  0  0  0  0  0  0
    7.4297    7.5873   24.8962 C   0  0  0  0  0  0  0  0  0  0  0  0
    8.1566   10.0536   16.0516 O   0  0  0  0  0  0  0  0  0  0  0  0
   12.4989    6.2074   20.1776 C   0  0  0  0  0  0  0  0  0  0  0  0
    6.9192    9.1053   20.9073 O   0  0  0  0  0  0  0  0  0  0  0  0
   14.3979    6.0729   18.7784 C   0  0  0  0  0  0  0  0  0  0  0  0
    8.6811    9.5354   16.9998 C   0  0  0  0  0  0  0  0  0  0  0  0
    9.2512    4.2713   13.7653 O   0  0  0  0  0  0  0  0  0  0  0  0
    9.6495    8.6317   16.8332 N   0  0  0  0  0  0  0  0  0  0  0  0
    6.2934    8.6988   23.1988 O   0  0  0  0  0  0  0  0  0  0  0  0
    7.9806    8.6543   20.5437 C   0  0  0  0  0  0  0  0  0  0  0  0
   13.7270    5.7144   19.8610 O   0  0  0  0  0  0  0  0  0  0  0  0
    8.3351    5.5235   15.4478 C   0  0  0  0  0  0  0  0  0  0  0  0
    8.7700    7.8434   21.3915 C   0  0  0  0  0  0  0  0  0  0  0  0
   11.7856    6.8851   19.2401 C   0  0  0  0  0  0  0  0  0  0  0  0
   10.5281    7.4276   19.5649 C   0  0  0  0  0  0  0  0  0  0  0  0
   10.0256    7.2907   20.8484 C   0  0  0  0  0  0  0  0  0  0  0  0
    9.3113    5.3049   14.4911 C   0  0  0  0  0  0  0  0  0  0  0  0
    9.4607    7.5646   16.0139 C   0  0  0  0  0  0  0  0  0  0  0  0
   10.4192    7.3157   15.0955 C   0  0  0  0  0  0  0  0  0  0  0  0
   10.2489    6.4227   23.0218 N   0  0  0  0  0  0  0  0  0  0  0  0
    7.2472    8.0746   23.5050 C   0  0  0  0  0  0  0  0  0  0  0  0
    9.2051    6.9101   23.4604 C   0  0  0  0  0  0  0  0  0  0  0  0
   11.9646    6.0299   21.4251 C   0  0  0  0  0  0  0  0  0  0  0  0
  1  5  1  0
  1 13  1  0
  2 20  2  0
  2 28  1  0
  2 29  1  0
  3 19  4  0
  3 25  4  0
  4 23  4  0
  4 27  1  0
  4 30  4  0
  5 17  1  0
  6  8  1  0
  6 29  1  0
  7 24  4  0
  7 26  4  0
  8 28  1  0
  9 13  2  0
 10 18  1  0
 10 21  4  0
 10 30  4  0
 11 17  2  0
 12 18  1  0
 13 15  1  0
 14 24  1  0
 15 25  1  0
 16 28  2  0
 17 20  1  0
 19 24  4  0
 20 23  1  0
 21 22  4  0
 22 23  4  0
 25 26  4  0
 27 29  2  0
M  END
$$$$

 Created by Python create_sdf_string function

 30 33  0  0  0  0  0  0  0  0999 V2000
    8.3036    9.8571   18.4133 C   0  0  0  0  0  0  0  0  0  0  0  0
    8.3694    7.6612   22.6703 C   0  0  0  0  0  0  0  0  0  0  0  0
    8.4143    6.6863   16.2273 C   0  0  0  0  0  0  0  0  0  0  0  0
   10.7581    6.5674   21.7636 C   0  0  0  0  0  0  0  0  0  0  0  0
    8.4452    8.7960   19.2958 O   0  0  0  0  0  0  0  0  0  0  0  0
    8.7122    6.7842   24.8569 C   0  0  0  0  0  0  0  0  0  0  0  0
   10.3400    6.1726   14.3081 C   0  0  0  0  0  0  0  0  0  0  0  0
    7.4297    7.5873   24.8962 C   0  0  0  0  0  0  0  0  0  0  0  0
    8.1566   10.0536   16.0516 O   0  0  0  0  0  0  0  0  0  0  0  0
   12.4989    6.2074   20.1776 C   0  0  0  0  0  0  0  0  0  0  0  0
    6.9192    9.1053   20.9073 O   0  0  0  0  0  0  0  0  0  0  0  0
   14.3979    6.0729   18.7784 C   0  0  0  0  0  0  0  0  0  0  0  0
    8.6811    9.5354   16.9998 C   0  0  0  0  0  0  0  0  0  0  0  0
    9.2512    4.2713   13.7653 O   0  0  0  0  0  0  0  0  0  0  0  0
    9.6495    8.6317   16.8332 N   0  0  0  0  0  0  0  0  0  0  0  0
    6.2934    8.6988   23.1988 O   0  0  0  0  0  0  0  0  0  0  0  0
    7.9806    8.6543   20.5437 C   0  0  0  0  0  0  0  0  0  0  0  0
   13.7270    5.7144   19.8610 O   0  0  0  0  0  0  0  0  0  0  0  0
    8.3351    5.5235   15.4478 C   0  0  0  0  0  0  0  0  0  0  0  0
    8.7700    7.8434   21.3915 C   0  0  0  0  0  0  0  0  0  0  0  0
   11.7856    6.8851   19.2401 C   0  0  0  0  0  0  0  0  0  0  0  0
   10.5281    7.4276   19.5649 C   0  0  0  0  0  0  0  0  0  0  0  0
   10.0256    7.2907   20.8484 C   0  0  0  0  0  0  0  0  0  0  0  0
    9.3113    5.3049   14.4911 C   0  0  0  0  0  0  0  0  0  0  0  0
    9.4607    7.5646   16.0139 C   0  0  0  0  0  0  0  0  0  0  0  0
   10.4192    7.3157   15.0955 C   0  0  0  0  0  0  0  0  0  0  0  0
   10.2489    6.4227   23.0218 N   0  0  0  0  0  0  0  0  0  0  0  0
    7.2472    8.0746   23.5050 C   0  0  0  0  0  0  0  0  0  0  0  0
    9.2051    6.9101   23.4604 C   0  0  0  0  0  0  0  0  0  0  0  0
   11.9646    6.0299   21.4251 C   0  0  0  0  0  0  0  0  0  0  0  0
  1  5  1  0
  1 13  1  0
  2 20  2  0
  2 28  1  0
  2 29  1  0
  3 19  4  0
  3 25  4  0
  4 23  4  0
  4 27  1  0
  4 30  4  0
  5 17  1  0
  6  8  1  0
  6 29  1  0
  7 24  4  0
  7 26  4  0
  8 28  1  0
  9 13  2  0
 10 18  1  0
 10 21  4  0
 10 30  4  0
 11 17  2  0
 12 18  1  0
 13 15  1  0
 14 24  1  0
 15 25  1  0
 16 28  2  0
 17 20  1  0
 19 24  4  0
 20 23  1  0
 21 22  4  0
 22 23  4  0
 25 26  4  0
 27 29  2  0
M  END
$$$$

 Created by Python create_sdf_string function

 30 33  0  0  0  0  0  0  0  0999 V2000
    8.3036    9.8571   18.4133 C   0  0  0  0  0  0  0  0  0  0  0  0
    8.3694    7.6612   22.6703 C   0  0  0  0  0  0  0  0  0  0  0  0
    8.4143    6.6863   16.2273 C   0  0  0  0  0  0  0  0  0  0  0  0
   10.7581    6.5674   21.7636 C   0  0  0  0  0  0  0  0  0  0  0  0
    8.4452    8.7960   19.2958 O   0  0  0  0  0  0  0  0  0  0  0  0
    8.7122    6.7842   24.8569 C   0  0  0  0  0  0  0  0  0  0  0  0
   10.3400    6.1726   14.3081 C   0  0  0  0  0  0  0  0  0  0  0  0
    7.4297    7.5873   24.8962 C   0  0  0  0  0  0  0  0  0  0  0  0
    8.1566   10.0536   16.0516 O   0  0  0  0  0  0  0  0  0  0  0  0
   12.4989    6.2074   20.1776 C   0  0  0  0  0  0  0  0  0  0  0  0
    6.9192    9.1053   20.9073 O   0  0  0  0  0  0  0  0  0  0  0  0
   14.3979    6.0729   18.7784 C   0  0  0  0  0  0  0  0  0  0  0  0
    8.6811    9.5354   16.9998 C   0  0  0  0  0  0  0  0  0  0  0  0
    9.2512    4.2713   13.7653 O   0  0  0  0  0  0  0  0  0  0  0  0
    9.6495    8.6317   16.8332 N   0  0  0  0  0  0  0  0  0  0  0  0
    6.2934    8.6988   23.1988 O   0  0  0  0  0  0  0  0  0  0  0  0
    7.9806    8.6543   20.5437 C   0  0  0  0  0  0  0  0  0  0  0  0
   13.7270    5.7144   19.8610 O   0  0  0  0  0  0  0  0  0  0  0  0
    8.3351    5.5235   15.4478 C   0  0  0  0  0  0  0  0  0  0  0  0
    8.7700    7.8434   21.3915 C   0  0  0  0  0  0  0  0  0  0  0  0
   11.7856    6.8851   19.2401 C   0  0  0  0  0  0  0  0  0  0  0  0
   10.5281    7.4276   19.5649 C   0  0  0  0  0  0  0  0  0  0  0  0
   10.0256    7.2907   20.8484 C   0  0  0  0  0  0  0  0  0  0  0  0
    9.3113    5.3049   14.4911 C   0  0  0  0  0  0  0  0  0  0  0  0
    9.4607    7.5646   16.0139 C   0  0  0  0  0  0  0  0  0  0  0  0
   10.4192    7.3157   15.0955 C   0  0  0  0  0  0  0  0  0  0  0  0
   10.2489    6.4227   23.0218 N   0  0  0  0  0  0  0  0  0  0  0  0
    7.2472    8.0746   23.5050 C   0  0  0  0  0  0  0  0  0  0  0  0
    9.2051    6.9101   23.4604 C   0  0  0  0  0  0  0  0  0  0  0  0
   11.9646    6.0299   21.4251 C   0  0  0  0  0  0  0  0  0  0  0  0
  1  5  1  0
  1 13  1  0
  2 20  2  0
  2 28  1  0
  2 29  1  0
  3 19  4  0
  3 25  4  0
  4 23  4  0
  4 27  1  0
  4 30  4  0
  5 17  1  0
  6  8  1  0
  6 29  1  0
  7 24  4  0
  7 26  4  0
  8 28  1  0
  9 13  2  0
 10 18  1  0
 10 21  4  0
 10 30  4  0
 11 17  2  0
 12 18  1  0
 13 15  1  0
 14 24  1  0
 15 25  1  0
 16 28  2  0
 17 20  1  0
 19 24  4  0
 20 23  1  0
 21 22  4  0
 22 23  4  0
 25 26  4  0
 27 29  2  0
M  END
$$$$

 Created by Python create_sdf_string function

 30 33  0  0  0  0  0  0  0  0999 V2000
    8.3036    9.8571   18.4133 C   0  0  0  0  0  0  0  0  0  0  0  0
    8.3694    7.6612   22.6703 C   0  0  0  0  0  0  0  0  0  0  0  0
    8.4143    6.6863   16.2273 C   0  0  0  0  0  0  0  0  0  0  0  0
   10.7581    6.5674   21.7636 C   0  0  0  0  0  0  0  0  0  0  0  0
    8.4452    8.7960   19.2958 O   0  0  0  0  0  0  0  0  0  0  0  0
    8.7122    6.7842   24.8569 C   0  0  0  0  0  0  0  0  0  0  0  0
   10.3400    6.1726   14.3081 C   0  0  0  0  0  0  0  0  0  0  0  0
    7.4297    7.5873   24.8962 C   0  0  0  0  0  0  0  0  0  0  0  0
    8.1566   10.0536   16.0516 O   0  0  0  0  0  0  0  0  0  0  0  0
   12.4989    6.2074   20.1776 C   0  0  0  0  0  0  0  0  0  0  0  0
    6.9192    9.1053   20.9073 O   0  0  0  0  0  0  0  0  0  0  0  0
   14.3979    6.0729   18.7784 C   0  0  0  0  0  0  0  0  0  0  0  0
    8.6811    9.5354   16.9998 C   0  0  0  0  0  0  0  0  0  0  0  0
    9.2512    4.2713   13.7653 O   0  0  0  0  0  0  0  0  0  0  0  0
    9.6495    8.6317   16.8332 N   0  0  0  0  0  0  0  0  0  0  0  0
    6.2934    8.6988   23.1988 O   0  0  0  0  0  0  0  0  0  0  0  0
    7.9806    8.6543   20.5437 C   0  0  0  0  0  0  0  0  0  0  0  0
   13.7270    5.7144   19.8610 O   0  0  0  0  0  0  0  0  0  0  0  0
    8.3351    5.5235   15.4478 C   0  0  0  0  0  0  0  0  0  0  0  0
    8.7700    7.8434   21.3915 C   0  0  0  0  0  0  0  0  0  0  0  0
   11.7856    6.8851   19.2401 C   0  0  0  0  0  0  0  0  0  0  0  0
   10.5281    7.4276   19.5649 C   0  0  0  0  0  0  0  0  0  0  0  0
   10.0256    7.2907   20.8484 C   0  0  0  0  0  0  0  0  0  0  0  0
    9.3113    5.3049   14.4911 C   0  0  0  0  0  0  0  0  0  0  0  0
    9.4607    7.5646   16.0139 C   0  0  0  0  0  0  0  0  0  0  0  0
   10.4192    7.3157   15.0955 C   0  0  0  0  0  0  0  0  0  0  0  0
   10.2489    6.4227   23.0218 N   0  0  0  0  0  0  0  0  0  0  0  0
    7.2472    8.0746   23.5050 C   0  0  0  0  0  0  0  0  0  0  0  0
    9.2051    6.9101   23.4604 C   0  0  0  0  0  0  0  0  0  0  0  0
   11.9646    6.0299   21.4251 C   0  0  0  0  0  0  0  0  0  0  0  0
  1  5  1  0
  1 13  1  0
  2 20  2  0
  2 28  1  0
  2 29  1  0
  3 19  4  0
  3 25  4  0
  4 23  4  0
  4 27  1  0
  4 30  4  0
  5 17  1  0
  6  8  1  0
  6 29  1  0
  7 24  4  0
  7 26  4  0
  8 28  1  0
  9 13  2  0
 10 18  1  0
 10 21  4  0
 10 30  4  0
 11 17  2  0
 12 18  1  0
 13 15  1  0
 14 24  1  0
 15 25  1  0
 16 28  2  0
 17 20  1  0
 19 24  4  0
 20 23  1  0
 21 22  4  0
 22 23  4  0
 25 26  4  0
 27 29  2  0
M  END
$$$$

 Created by Python create_sdf_string function

 30 33  0  0  0  0  0  0  0  0999 V2000
    8.3036    9.8571   18.4133 C   0  0  0  0  0  0  0  0  0  0  0  0
    8.3694    7.6612   22.6703 C   0  0  0  0  0  0  0  0  0  0  0  0
    8.4143    6.6863   16.2273 C   0  0  0  0  0  0  0  0  0  0  0  0
   10.7581    6.5674   21.7636 C   0  0  0  0  0  0  0  0  0  0  0  0
    8.4452    8.7960   19.2958 O   0  0  0  0  0  0  0  0  0  0  0  0
    8.7122    6.7842   24.8569 C   0  0  0  0  0  0  0  0  0  0  0  0
   10.3400    6.1726   14.3081 C   0  0  0  0  0  0  0  0  0  0  0  0
    7.4297    7.5873   24.8962 C   0  0  0  0  0  0  0  0  0  0  0  0
    8.1566   10.0536   16.0516 O   0  0  0  0  0  0  0  0  0  0  0  0
   12.4989    6.2074   20.1776 C   0  0  0  0  0  0  0  0  0  0  0  0
    6.9192    9.1053   20.9073 O   0  0  0  0  0  0  0  0  0  0  0  0
   14.3979    6.0729   18.7784 C   0  0  0  0  0  0  0  0  0  0  0  0
    8.6811    9.5354   16.9998 C   0  0  0  0  0  0  0  0  0  0  0  0
    9.2512    4.2713   13.7653 O   0  0  0  0  0  0  0  0  0  0  0  0
    9.6495    8.6317   16.8332 N   0  0  0  0  0  0  0  0  0  0  0  0
    6.2934    8.6988   23.1988 O   0  0  0  0  0  0  0  0  0  0  0  0
    7.9806    8.6543   20.5437 C   0  0  0  0  0  0  0  0  0  0  0  0
   13.7270    5.7144   19.8610 O   0  0  0  0  0  0  0  0  0  0  0  0
    8.3351    5.5235   15.4478 C   0  0  0  0  0  0  0  0  0  0  0  0
    8.7700    7.8434   21.3915 C   0  0  0  0  0  0  0  0  0  0  0  0
   11.7856    6.8851   19.2401 C   0  0  0  0  0  0  0  0  0  0  0  0
   10.5281    7.4276   19.5649 C   0  0  0  0  0  0  0  0  0  0  0  0
   10.0256    7.2907   20.8484 C   0  0  0  0  0  0  0  0  0  0  0  0
    9.3113    5.3049   14.4911 C   0  0  0  0  0  0  0  0  0  0  0  0
    9.4607    7.5646   16.0139 C   0  0  0  0  0  0  0  0  0  0  0  0
   10.4192    7.3157   15.0955 C   0  0  0  0  0  0  0  0  0  0  0  0
   10.2489    6.4227   23.0218 N   0  0  0  0  0  0  0  0  0  0  0  0
    7.2472    8.0746   23.5050 C   0  0  0  0  0  0  0  0  0  0  0  0
    9.2051    6.9101   23.4604 C   0  0  0  0  0  0  0  0  0  0  0  0
   11.9646    6.0299   21.4251 C   0  0  0  0  0  0  0  0  0  0  0  0
  1  5  1  0
  1 13  1  0
  2 20  2  0
  2 28  1  0
  2 29  1  0
  3 19  4  0
  3 25  4  0
  4 23  4  0
  4 27  1  0
  4 30  4  0
  5 17  1  0
  6  8  1  0
  6 29  1  0
  7 24  4  0
  7 26  4  0
  8 28  1  0
  9 13  2  0
 10 18  1  0
 10 21  4  0
 10 30  4  0
 11 17  2  0
 12 18  1  0
 13 15  1  0
 14 24  1  0
 15 25  1  0
 16 28  2  0
 17 20  1  0
 19 24  4  0
 20 23  1  0
 21 22  4  0
 22 23  4  0
 25 26  4  0
 27 29  2  0
M  END
$$$$

 Created by Python create_sdf_string function

 30 33  0  0  0  0  0  0  0  0999 V2000
    8.3036    9.8571   18.4133 C   0  0  0  0  0  0  0  0  0  0  0  0
    8.3694    7.6612   22.6703 C   0  0  0  0  0  0  0  0  0  0  0  0
    8.4143    6.6863   16.2273 C   0  0  0  0  0  0  0  0  0  0  0  0
   10.7581    6.5674   21.7636 C   0  0  0  0  0  0  0  0  0  0  0  0
    8.4452    8.7960   19.2958 O   0  0  0  0  0  0  0  0  0  0  0  0
    8.7122    6.7842   24.8569 C   0  0  0  0  0  0  0  0  0  0  0  0
   10.3400    6.1726   14.3081 C   0  0  0  0  0  0  0  0  0  0  0  0
    7.4297    7.5873   24.8962 C   0  0  0  0  0  0  0  0  0  0  0  0
    8.1566   10.0536   16.0516 O   0  0  0  0  0  0  0  0  0  0  0  0
   12.4989    6.2074   20.1776 C   0  0  0  0  0  0  0  0  0  0  0  0
    6.9192    9.1053   20.9073 O   0  0  0  0  0  0  0  0  0  0  0  0
   14.3979    6.0729   18.7784 C   0  0  0  0  0  0  0  0  0  0  0  0
    8.6811    9.5354   16.9998 C   0  0  0  0  0  0  0  0  0  0  0  0
    9.2512    4.2713   13.7653 O   0  0  0  0  0  0  0  0  0  0  0  0
    9.6495    8.6317   16.8332 N   0  0  0  0  0  0  0  0  0  0  0  0
    6.2934    8.6988   23.1988 O   0  0  0  0  0  0  0  0  0  0  0  0
    7.9806    8.6543   20.5437 C   0  0  0  0  0  0  0  0  0  0  0  0
   13.7270    5.7144   19.8610 O   0  0  0  0  0  0  0  0  0  0  0  0
    8.3351    5.5235   15.4478 C   0  0  0  0  0  0  0  0  0  0  0  0
    8.7700    7.8434   21.3915 C   0  0  0  0  0  0  0  0  0  0  0  0
   11.7856    6.8851   19.2401 C   0  0  0  0  0  0  0  0  0  0  0  0
   10.5281    7.4276   19.5649 C   0  0  0  0  0  0  0  0  0  0  0  0
   10.0256    7.2907   20.8484 C   0  0  0  0  0  0  0  0  0  0  0  0
    9.3113    5.3049   14.4911 C   0  0  0  0  0  0  0  0  0  0  0  0
    9.4607    7.5646   16.0139 C   0  0  0  0  0  0  0  0  0  0  0  0
   10.4192    7.3157   15.0955 C   0  0  0  0  0  0  0  0  0  0  0  0
   10.2489    6.4227   23.0218 N   0  0  0  0  0  0  0  0  0  0  0  0
    7.2472    8.0746   23.5050 C   0  0  0  0  0  0  0  0  0  0  0  0
    9.2051    6.9101   23.4604 C   0  0  0  0  0  0  0  0  0  0  0  0
   11.9646    6.0299   21.4251 C   0  0  0  0  0  0  0  0  0  0  0  0
  1  5  1  0
  1 13  1  0
  2 20  2  0
  2 28  1  0
  2 29  1  0
  3 19  4  0
  3 25  4  0
  4 23  4  0
  4 27  1  0
  4 30  4  0
  5 17  1  0
  6  8  1  0
  6 29  1  0
  7 24  4  0
  7 26  4  0
  8 28  1  0
  9 13  2  0
 10 18  1  0
 10 21  4  0
 10 30  4  0
 11 17  2  0
 12 18  1  0
 13 15  1  0
 14 24  1  0
 15 25  1  0
 16 28  2  0
 17 20  1  0
 19 24  4  0
 20 23  1  0
 21 22  4  0
 22 23  4  0
 25 26  4  0
 27 29  2  0
M  END
$$$$

 Created by Python create_sdf_string function

 30 33  0  0  0  0  0  0  0  0999 V2000
    8.3036    9.8571   18.4133 C   0  0  0  0  0  0  0  0  0  0  0  0
    8.3694    7.6612   22.6703 C   0  0  0  0  0  0  0  0  0  0  0  0
    8.4143    6.6863   16.2273 C   0  0  0  0  0  0  0  0  0  0  0  0
   10.7581    6.5674   21.7636 C   0  0  0  0  0  0  0  0  0  0  0  0
    8.4452    8.7960   19.2958 O   0  0  0  0  0  0  0  0  0  0  0  0
    8.7122    6.7842   24.8569 C   0  0  0  0  0  0  0  0  0  0  0  0
   10.3400    6.1726   14.3081 C   0  0  0  0  0  0  0  0  0  0  0  0
    7.4297    7.5873   24.8962 C   0  0  0  0  0  0  0  0  0  0  0  0
    8.1566   10.0536   16.0516 O   0  0  0  0  0  0  0  0  0  0  0  0
   12.4989    6.2074   20.1776 C   0  0  0  0  0  0  0  0  0  0  0  0
    6.9192    9.1053   20.9073 O   0  0  0  0  0  0  0  0  0  0  0  0
   14.3979    6.0729   18.7784 C   0  0  0  0  0  0  0  0  0  0  0  0
    8.6811    9.5354   16.9998 C   0  0  0  0  0  0  0  0  0  0  0  0
    9.2512    4.2713   13.7653 O   0  0  0  0  0  0  0  0  0  0  0  0
    9.6495    8.6317   16.8332 N   0  0  0  0  0  0  0  0  0  0  0  0
    6.2934    8.6988   23.1988 O   0  0  0  0  0  0  0  0  0  0  0  0
    7.9806    8.6543   20.5437 C   0  0  0  0  0  0  0  0  0  0  0  0
   13.7270    5.7144   19.8610 O   0  0  0  0  0  0  0  0  0  0  0  0
    8.3351    5.5235   15.4478 C   0  0  0  0  0  0  0  0  0  0  0  0
    8.7700    7.8434   21.3915 C   0  0  0  0  0  0  0  0  0  0  0  0
   11.7856    6.8851   19.2401 C   0  0  0  0  0  0  0  0  0  0  0  0
   10.5281    7.4276   19.5649 C   0  0  0  0  0  0  0  0  0  0  0  0
   10.0256    7.2907   20.8484 C   0  0  0  0  0  0  0  0  0  0  0  0
    9.3113    5.3049   14.4911 C   0  0  0  0  0  0  0  0  0  0  0  0
    9.4607    7.5646   16.0139 C   0  0  0  0  0  0  0  0  0  0  0  0
   10.4192    7.3157   15.0955 C   0  0  0  0  0  0  0  0  0  0  0  0
   10.2489    6.4227   23.0218 N   0  0  0  0  0  0  0  0  0  0  0  0
    7.2472    8.0746   23.5050 C   0  0  0  0  0  0  0  0  0  0  0  0
    9.2051    6.9101   23.4604 C   0  0  0  0  0  0  0  0  0  0  0  0
   11.9646    6.0299   21.4251 C   0  0  0  0  0  0  0  0  0  0  0  0
  1  5  1  0
  1 13  1  0
  2 20  2  0
  2 28  1  0
  2 29  1  0
  3 19  4  0
  3 25  4  0
  4 23  4  0
  4 27  1  0
  4 30  4  0
  5 17  1  0
  6  8  1  0
  6 29  1  0
  7 24  4  0
  7 26  4  0
  8 28  1  0
  9 13  2  0
 10 18  1  0
 10 21  4  0
 10 30  4  0
 11 17  2  0
 12 18  1  0
 13 15  1  0
 14 24  1  0
 15 25  1  0
 16 28  2  0
 17 20  1  0
 19 24  4  0
 20 23  1  0
 21 22  4  0
 22 23  4  0
 25 26  4  0
 27 29  2  0
M  END
$$$$

 Created by Python create_sdf_string function

 30 33  0  0  0  0  0  0  0  0999 V2000
    8.3036    9.8571   18.4133 C   0  0  0  0  0  0  0  0  0  0  0  0
    8.3694    7.6612   22.6703 C   0  0  0  0  0  0  0  0  0  0  0  0
    8.4143    6.6863   16.2273 C   0  0  0  0  0  0  0  0  0  0  0  0
   10.7581    6.5674   21.7636 C   0  0  0  0  0  0  0  0  0  0  0  0
    8.4452    8.7960   19.2958 O   0  0  0  0  0  0  0  0  0  0  0  0
    8.7122    6.7842   24.8569 C   0  0  0  0  0  0  0  0  0  0  0  0
   10.3400    6.1726   14.3081 C   0  0  0  0  0  0  0  0  0  0  0  0
    7.4297    7.5873   24.8962 C   0  0  0  0  0  0  0  0  0  0  0  0
    8.1566   10.0536   16.0516 O   0  0  0  0  0  0  0  0  0  0  0  0
   12.4989    6.2074   20.1776 C   0  0  0  0  0  0  0  0  0  0  0  0
    6.9192    9.1053   20.9073 O   0  0  0  0  0  0  0  0  0  0  0  0
   14.3979    6.0729   18.7784 C   0  0  0  0  0  0  0  0  0  0  0  0
    8.6811    9.5354   16.9998 C   0  0  0  0  0  0  0  0  0  0  0  0
    9.2512    4.2713   13.7653 O   0  0  0  0  0  0  0  0  0  0  0  0
    9.6495    8.6317   16.8332 N   0  0  0  0  0  0  0  0  0  0  0  0
    6.2934    8.6988   23.1988 O   0  0  0  0  0  0  0  0  0  0  0  0
    7.9806    8.6543   20.5437 C   0  0  0  0  0  0  0  0  0  0  0  0
   13.7270    5.7144   19.8610 O   0  0  0  0  0  0  0  0  0  0  0  0
    8.3351    5.5235   15.4478 C   0  0  0  0  0  0  0  0  0  0  0  0
    8.7700    7.8434   21.3915 C   0  0  0  0  0  0  0  0  0  0  0  0
   11.7856    6.8851   19.2401 C   0  0  0  0  0  0  0  0  0  0  0  0
   10.5281    7.4276   19.5649 C   0  0  0  0  0  0  0  0  0  0  0  0
   10.0256    7.2907   20.8484 C   0  0  0  0  0  0  0  0  0  0  0  0
    9.3113    5.3049   14.4911 C   0  0  0  0  0  0  0  0  0  0  0  0
    9.4607    7.5646   16.0139 C   0  0  0  0  0  0  0  0  0  0  0  0
   10.4192    7.3157   15.0955 C   0  0  0  0  0  0  0  0  0  0  0  0
   10.2489    6.4227   23.0218 N   0  0  0  0  0  0  0  0  0  0  0  0
    7.2472    8.0746   23.5050 C   0  0  0  0  0  0  0  0  0  0  0  0
    9.2051    6.9101   23.4604 C   0  0  0  0  0  0  0  0  0  0  0  0
   11.9646    6.0299   21.4251 C   0  0  0  0  0  0  0  0  0  0  0  0
  1  5  1  0
  1 13  1  0
  2 20  2  0
  2 28  1  0
  2 29  1  0
  3 19  4  0
  3 25  4  0
  4 23  4  0
  4 27  1  0
  4 30  4  0
  5 17  1  0
  6  8  1  0
  6 29  1  0
  7 24  4  0
  7 26  4  0
  8 28  1  0
  9 13  2  0
 10 18  1  0
 10 21  4  0
 10 30  4  0
 11 17  2  0
 12 18  1  0
 13 15  1  0
 14 24  1  0
 15 25  1  0
 16 28  2  0
 17 20  1  0
 19 24  4  0
 20 23  1  0
 21 22  4  0
 22 23  4  0
 25 26  4  0
 27 29  2  0
M  END
$$$$

 Created by Python create_sdf_string function

 30 33  0  0  0  0  0  0  0  0999 V2000
    8.3036    9.8571   18.4133 C   0  0  0  0  0  0  0  0  0  0  0  0
    8.3694    7.6612   22.6703 C   0  0  0  0  0  0  0  0  0  0  0  0
    8.4143    6.6863   16.2273 C   0  0  0  0  0  0  0  0  0  0  0  0
   10.7581    6.5674   21.7636 C   0  0  0  0  0  0  0  0  0  0  0  0
    8.4452    8.7960   19.2958 O   0  0  0  0  0  0  0  0  0  0  0  0
    8.7122    6.7842   24.8569 C   0  0  0  0  0  0  0  0  0  0  0  0
   10.3400    6.1726   14.3081 C   0  0  0  0  0  0  0  0  0  0  0  0
    7.4297    7.5873   24.8962 C   0  0  0  0  0  0  0  0  0  0  0  0
    8.1566   10.0536   16.0516 O   0  0  0  0  0  0  0  0  0  0  0  0
   12.4989    6.2074   20.1776 C   0  0  0  0  0  0  0  0  0  0  0  0
    6.9192    9.1053   20.9073 O   0  0  0  0  0  0  0  0  0  0  0  0
   14.3979    6.0729   18.7784 C   0  0  0  0  0  0  0  0  0  0  0  0
    8.6811    9.5354   16.9998 C   0  0  0  0  0  0  0  0  0  0  0  0
    9.2512    4.2713   13.7653 O   0  0  0  0  0  0  0  0  0  0  0  0
    9.6495    8.6317   16.8332 N   0  0  0  0  0  0  0  0  0  0  0  0
    6.2934    8.6988   23.1988 O   0  0  0  0  0  0  0  0  0  0  0  0
    7.9806    8.6543   20.5437 C   0  0  0  0  0  0  0  0  0  0  0  0
   13.7270    5.7144   19.8610 O   0  0  0  0  0  0  0  0  0  0  0  0
    8.3351    5.5235   15.4478 C   0  0  0  0  0  0  0  0  0  0  0  0
    8.7700    7.8434   21.3915 C   0  0  0  0  0  0  0  0  0  0  0  0
   11.7856    6.8851   19.2401 C   0  0  0  0  0  0  0  0  0  0  0  0
   10.5281    7.4276   19.5649 C   0  0  0  0  0  0  0  0  0  0  0  0
   10.0256    7.2907   20.8484 C   0  0  0  0  0  0  0  0  0  0  0  0
    9.3113    5.3049   14.4911 C   0  0  0  0  0  0  0  0  0  0  0  0
    9.4607    7.5646   16.0139 C   0  0  0  0  0  0  0  0  0  0  0  0
   10.4192    7.3157   15.0955 C   0  0  0  0  0  0  0  0  0  0  0  0
   10.2489    6.4227   23.0218 N   0  0  0  0  0  0  0  0  0  0  0  0
    7.2472    8.0746   23.5050 C   0  0  0  0  0  0  0  0  0  0  0  0
    9.2051    6.9101   23.4604 C   0  0  0  0  0  0  0  0  0  0  0  0
   11.9646    6.0299   21.4251 C   0  0  0  0  0  0  0  0  0  0  0  0
  1  5  1  0
  1 13  1  0
  2 20  2  0
  2 28  1  0
  2 29  1  0
  3 19  4  0
  3 25  4  0
  4 23  4  0
  4 27  1  0
  4 30  4  0
  5 17  1  0
  6  8  1  0
  6 29  1  0
  7 24  4  0
  7 26  4  0
  8 28  1  0
  9 13  2  0
 10 18  1  0
 10 21  4  0
 10 30  4  0
 11 17  2  0
 12 18  1  0
 13 15  1  0
 14 24  1  0
 15 25  1  0
 16 28  2  0
 17 20  1  0
 19 24  4  0
 20 23  1  0
 21 22  4  0
 22 23  4  0
 25 26  4  0
 27 29  2  0
M  END
$$$$

 Created by Python create_sdf_string function

 30 33  0  0  0  0  0  0  0  0999 V2000
    8.3036    9.8571   18.4133 C   0  0  0  0  0  0  0  0  0  0  0  0
    8.3694    7.6612   22.6703 C   0  0  0  0  0  0  0  0  0  0  0  0
    8.4143    6.6863   16.2273 C   0  0  0  0  0  0  0  0  0  0  0  0
   10.7581    6.5674   21.7636 C   0  0  0  0  0  0  0  0  0  0  0  0
    8.4452    8.7960   19.2958 O   0  0  0  0  0  0  0  0  0  0  0  0
    8.7122    6.7842   24.8569 C   0  0  0  0  0  0  0  0  0  0  0  0
   10.3400    6.1726   14.3081 C   0  0  0  0  0  0  0  0  0  0  0  0
    7.4297    7.5873   24.8962 C   0  0  0  0  0  0  0  0  0  0  0  0
    8.1566   10.0536   16.0516 O   0  0  0  0  0  0  0  0  0  0  0  0
   12.4989    6.2074   20.1776 C   0  0  0  0  0  0  0  0  0  0  0  0
    6.9192    9.1053   20.9073 O   0  0  0  0  0  0  0  0  0  0  0  0
   14.3979    6.0729   18.7784 C   0  0  0  0  0  0  0  0  0  0  0  0
    8.6811    9.5354   16.9998 C   0  0  0  0  0  0  0  0  0  0  0  0
    9.2512    4.2713   13.7653 O   0  0  0  0  0  0  0  0  0  0  0  0
    9.6495    8.6317   16.8332 N   0  0  0  0  0  0  0  0  0  0  0  0
    6.2934    8.6988   23.1988 O   0  0  0  0  0  0  0  0  0  0  0  0
    7.9806    8.6543   20.5437 C   0  0  0  0  0  0  0  0  0  0  0  0
   13.7270    5.7144   19.8610 O   0  0  0  0  0  0  0  0  0  0  0  0
    8.3351    5.5235   15.4478 C   0  0  0  0  0  0  0  0  0  0  0  0
    8.7700    7.8434   21.3915 C   0  0  0  0  0  0  0  0  0  0  0  0
   11.7856    6.8851   19.2401 C   0  0  0  0  0  0  0  0  0  0  0  0
   10.5281    7.4276   19.5649 C   0  0  0  0  0  0  0  0  0  0  0  0
   10.0256    7.2907   20.8484 C   0  0  0  0  0  0  0  0  0  0  0  0
    9.3113    5.3049   14.4911 C   0  0  0  0  0  0  0  0  0  0  0  0
    9.4607    7.5646   16.0139 C   0  0  0  0  0  0  0  0  0  0  0  0
   10.4192    7.3157   15.0955 C   0  0  0  0  0  0  0  0  0  0  0  0
   10.2489    6.4227   23.0218 N   0  0  0  0  0  0  0  0  0  0  0  0
    7.2472    8.0746   23.5050 C   0  0  0  0  0  0  0  0  0  0  0  0
    9.2051    6.9101   23.4604 C   0  0  0  0  0  0  0  0  0  0  0  0
   11.9646    6.0299   21.4251 C   0  0  0  0  0  0  0  0  0  0  0  0
  1  5  1  0
  1 13  1  0
  2 20  2  0
  2 28  1  0
  2 29  1  0
  3 19  4  0
  3 25  4  0
  4 23  4  0
  4 27  1  0
  4 30  4  0
  5 17  1  0
  6  8  1  0
  6 29  1  0
  7 24  4  0
  7 26  4  0
  8 28  1  0
  9 13  2  0
 10 18  1  0
 10 21  4  0
 10 30  4  0
 11 17  2  0
 12 18  1  0
 13 15  1  0
 14 24  1  0
 15 25  1  0
 16 28  2  0
 17 20  1  0
 19 24  4  0
 20 23  1  0
 21 22  4  0
 22 23  4  0
 25 26  4  0
 27 29  2  0
M  END
$$$$

 Created by Python create_sdf_string function

 30 33  0  0  0  0  0  0  0  0999 V2000
    8.3036    9.8571   18.4133 C   0  0  0  0  0  0  0  0  0  0  0  0
    8.3694    7.6612   22.6703 C   0  0  0  0  0  0  0  0  0  0  0  0
    8.4143    6.6863   16.2273 C   0  0  0  0  0  0  0  0  0  0  0  0
   10.7581    6.5674   21.7636 C   0  0  0  0  0  0  0  0  0  0  0  0
    8.4452    8.7960   19.2958 O   0  0  0  0  0  0  0  0  0  0  0  0
    8.7122    6.7842   24.8569 C   0  0  0  0  0  0  0  0  0  0  0  0
   10.3400    6.1726   14.3081 C   0  0  0  0  0  0  0  0  0  0  0  0
    7.4297    7.5873   24.8962 C   0  0  0  0  0  0  0  0  0  0  0  0
    8.1566   10.0536   16.0516 O   0  0  0  0  0  0  0  0  0  0  0  0
   12.4989    6.2074   20.1776 C   0  0  0  0  0  0  0  0  0  0  0  0
    6.9192    9.1053   20.9073 O   0  0  0  0  0  0  0  0  0  0  0  0
   14.3979    6.0729   18.7784 C   0  0  0  0  0  0  0  0  0  0  0  0
    8.6811    9.5354   16.9998 C   0  0  0  0  0  0  0  0  0  0  0  0
    9.2512    4.2713   13.7653 O   0  0  0  0  0  0  0  0  0  0  0  0
    9.6495    8.6317   16.8332 N   0  0  0  0  0  0  0  0  0  0  0  0
    6.2934    8.6988   23.1988 O   0  0  0  0  0  0  0  0  0  0  0  0
    7.9806    8.6543   20.5437 C   0  0  0  0  0  0  0  0  0  0  0  0
   13.7270    5.7144   19.8610 O   0  0  0  0  0  0  0  0  0  0  0  0
    8.3351    5.5235   15.4478 C   0  0  0  0  0  0  0  0  0  0  0  0
    8.7700    7.8434   21.3915 C   0  0  0  0  0  0  0  0  0  0  0  0
   11.7856    6.8851   19.2401 C   0  0  0  0  0  0  0  0  0  0  0  0
   10.5281    7.4276   19.5649 C   0  0  0  0  0  0  0  0  0  0  0  0
   10.0256    7.2907   20.8484 C   0  0  0  0  0  0  0  0  0  0  0  0
    9.3113    5.3049   14.4911 C   0  0  0  0  0  0  0  0  0  0  0  0
    9.4607    7.5646   16.0139 C   0  0  0  0  0  0  0  0  0  0  0  0
   10.4192    7.3157   15.0955 C   0  0  0  0  0  0  0  0  0  0  0  0
   10.2489    6.4227   23.0218 N   0  0  0  0  0  0  0  0  0  0  0  0
    7.2472    8.0746   23.5050 C   0  0  0  0  0  0  0  0  0  0  0  0
    9.2051    6.9101   23.4604 C   0  0  0  0  0  0  0  0  0  0  0  0
   11.9646    6.0299   21.4251 C   0  0  0  0  0  0  0  0  0  0  0  0
  1  5  1  0
  1 13  1  0
  2 20  2  0
  2 28  1  0
  2 29  1  0
  3 19  4  0
  3 25  4  0
  4 23  4  0
  4 27  1  0
  4 30  4  0
  5 17  1  0
  6  8  1  0
  6 29  1  0
  7 24  4  0
  7 26  4  0
  8 28  1  0
  9 13  2  0
 10 18  1  0
 10 21  4  0
 10 30  4  0
 11 17  2  0
 12 18  1  0
 13 15  1  0
 14 24  1  0
 15 25  1  0
 16 28  2  0
 17 20  1  0
 19 24  4  0
 20 23  1  0
 21 22  4  0
 22 23  4  0
 25 26  4  0
 27 29  2  0
M  END
$$$$

 Created by Python create_sdf_string function

 30 33  0  0  0  0  0  0  0  0999 V2000
    8.3036    9.8571   18.4133 C   0  0  0  0  0  0  0  0  0  0  0  0
    8.3694    7.6612   22.6703 C   0  0  0  0  0  0  0  0  0  0  0  0
    8.4143    6.6863   16.2273 C   0  0  0  0  0  0  0  0  0  0  0  0
   10.7581    6.5674   21.7636 C   0  0  0  0  0  0  0  0  0  0  0  0
    8.4452    8.7960   19.2958 O   0  0  0  0  0  0  0  0  0  0  0  0
    8.7122    6.7842   24.8569 C   0  0  0  0  0  0  0  0  0  0  0  0
   10.3400    6.1726   14.3081 C   0  0  0  0  0  0  0  0  0  0  0  0
    7.4297    7.5873   24.8962 C   0  0  0  0  0  0  0  0  0  0  0  0
    8.1566   10.0536   16.0516 O   0  0  0  0  0  0  0  0  0  0  0  0
   12.4989    6.2074   20.1776 C   0  0  0  0  0  0  0  0  0  0  0  0
    6.9192    9.1053   20.9073 O   0  0  0  0  0  0  0  0  0  0  0  0
   14.3979    6.0729   18.7784 C   0  0  0  0  0  0  0  0  0  0  0  0
    8.6811    9.5354   16.9998 C   0  0  0  0  0  0  0  0  0  0  0  0
    9.2512    4.2713   13.7653 O   0  0  0  0  0  0  0  0  0  0  0  0
    9.6495    8.6317   16.8332 N   0  0  0  0  0  0  0  0  0  0  0  0
    6.2934    8.6988   23.1988 O   0  0  0  0  0  0  0  0  0  0  0  0
    7.9806    8.6543   20.5437 C   0  0  0  0  0  0  0  0  0  0  0  0
   13.7270    5.7144   19.8610 O   0  0  0  0  0  0  0  0  0  0  0  0
    8.3351    5.5235   15.4478 C   0  0  0  0  0  0  0  0  0  0  0  0
    8.7700    7.8434   21.3915 C   0  0  0  0  0  0  0  0  0  0  0  0
   11.7856    6.8851   19.2401 C   0  0  0  0  0  0  0  0  0  0  0  0
   10.5281    7.4276   19.5649 C   0  0  0  0  0  0  0  0  0  0  0  0
   10.0256    7.2907   20.8484 C   0  0  0  0  0  0  0  0  0  0  0  0
    9.3113    5.3049   14.4911 C   0  0  0  0  0  0  0  0  0  0  0  0
    9.4607    7.5646   16.0139 C   0  0  0  0  0  0  0  0  0  0  0  0
   10.4192    7.3157   15.0955 C   0  0  0  0  0  0  0  0  0  0  0  0
   10.2489    6.4227   23.0218 N   0  0  0  0  0  0  0  0  0  0  0  0
    7.2472    8.0746   23.5050 C   0  0  0  0  0  0  0  0  0  0  0  0
    9.2051    6.9101   23.4604 C   0  0  0  0  0  0  0  0  0  0  0  0
   11.9646    6.0299   21.4251 C   0  0  0  0  0  0  0  0  0  0  0  0
  1  5  1  0
  1 13  1  0
  2 20  2  0
  2 28  1  0
  2 29  1  0
  3 19  4  0
  3 25  4  0
  4 23  4  0
  4 27  1  0
  4 30  4  0
  5 17  1  0
  6  8  1  0
  6 29  1  0
  7 24  4  0
  7 26  4  0
  8 28  1  0
  9 13  2  0
 10 18  1  0
 10 21  4  0
 10 30  4  0
 11 17  2  0
 12 18  1  0
 13 15  1  0
 14 24  1  0
 15 25  1  0
 16 28  2  0
 17 20  1  0
 19 24  4  0
 20 23  1  0
 21 22  4  0
 22 23  4  0
 25 26  4  0
 27 29  2  0
M  END
$$$$

 Created by Python create_sdf_string function

 30 33  0  0  0  0  0  0  0  0999 V2000
    8.3036    9.8571   18.4133 C   0  0  0  0  0  0  0  0  0  0  0  0
    8.3694    7.6612   22.6703 C   0  0  0  0  0  0  0  0  0  0  0  0
    8.4143    6.6863   16.2273 C   0  0  0  0  0  0  0  0  0  0  0  0
   10.7581    6.5674   21.7636 C   0  0  0  0  0  0  0  0  0  0  0  0
    8.4452    8.7960   19.2958 O   0  0  0  0  0  0  0  0  0  0  0  0
    8.7122    6.7842   24.8569 C   0  0  0  0  0  0  0  0  0  0  0  0
   10.3400    6.1726   14.3081 C   0  0  0  0  0  0  0  0  0  0  0  0
    7.4297    7.5873   24.8962 C   0  0  0  0  0  0  0  0  0  0  0  0
    8.1566   10.0536   16.0516 O   0  0  0  0  0  0  0  0  0  0  0  0
   12.4989    6.2074   20.1776 C   0  0  0  0  0  0  0  0  0  0  0  0
    6.9192    9.1053   20.9073 O   0  0  0  0  0  0  0  0  0  0  0  0
   14.3979    6.0729   18.7784 C   0  0  0  0  0  0  0  0  0  0  0  0
    8.6811    9.5354   16.9998 C   0  0  0  0  0  0  0  0  0  0  0  0
    9.2512    4.2713   13.7653 O   0  0  0  0  0  0  0  0  0  0  0  0
    9.6495    8.6317   16.8332 N   0  0  0  0  0  0  0  0  0  0  0  0
    6.2934    8.6988   23.1988 O   0  0  0  0  0  0  0  0  0  0  0  0
    7.9806    8.6543   20.5437 C   0  0  0  0  0  0  0  0  0  0  0  0
   13.7270    5.7144   19.8610 O   0  0  0  0  0  0  0  0  0  0  0  0
    8.3351    5.5235   15.4478 C   0  0  0  0  0  0  0  0  0  0  0  0
    8.7700    7.8434   21.3915 C   0  0  0  0  0  0  0  0  0  0  0  0
   11.7856    6.8851   19.2401 C   0  0  0  0  0  0  0  0  0  0  0  0
   10.5281    7.4276   19.5649 C   0  0  0  0  0  0  0  0  0  0  0  0
   10.0256    7.2907   20.8484 C   0  0  0  0  0  0  0  0  0  0  0  0
    9.3113    5.3049   14.4911 C   0  0  0  0  0  0  0  0  0  0  0  0
    9.4607    7.5646   16.0139 C   0  0  0  0  0  0  0  0  0  0  0  0
   10.4192    7.3157   15.0955 C   0  0  0  0  0  0  0  0  0  0  0  0
   10.2489    6.4227   23.0218 N   0  0  0  0  0  0  0  0  0  0  0  0
    7.2472    8.0746   23.5050 C   0  0  0  0  0  0  0  0  0  0  0  0
    9.2051    6.9101   23.4604 C   0  0  0  0  0  0  0  0  0  0  0  0
   11.9646    6.0299   21.4251 C   0  0  0  0  0  0  0  0  0  0  0  0
  1  5  1  0
  1 13  1  0
  2 20  2  0
  2 28  1  0
  2 29  1  0
  3 19  4  0
  3 25  4  0
  4 23  4  0
  4 27  1  0
  4 30  4  0
  5 17  1  0
  6  8  1  0
  6 29  1  0
  7 24  4  0
  7 26  4  0
  8 28  1  0
  9 13  2  0
 10 18  1  0
 10 21  4  0
 10 30  4  0
 11 17  2  0
 12 18  1  0
 13 15  1  0
 14 24  1  0
 15 25  1  0
 16 28  2  0
 17 20  1  0
 19 24  4  0
 20 23  1  0
 21 22  4  0
 22 23  4  0
 25 26  4  0
 27 29  2  0
M  END
$$$$

 Created by Python create_sdf_string function

 30 33  0  0  0  0  0  0  0  0999 V2000
    8.3036    9.8571   18.4133 C   0  0  0  0  0  0  0  0  0  0  0  0
    8.3694    7.6612   22.6703 C   0  0  0  0  0  0  0  0  0  0  0  0
    8.4143    6.6863   16.2273 C   0  0  0  0  0  0  0  0  0  0  0  0
   10.7581    6.5674   21.7636 C   0  0  0  0  0  0  0  0  0  0  0  0
    8.4452    8.7960   19.2958 O   0  0  0  0  0  0  0  0  0  0  0  0
    8.7122    6.7842   24.8569 C   0  0  0  0  0  0  0  0  0  0  0  0
   10.3400    6.1726   14.3081 C   0  0  0  0  0  0  0  0  0  0  0  0
    7.4297    7.5873   24.8962 C   0  0  0  0  0  0  0  0  0  0  0  0
    8.1566   10.0536   16.0516 O   0  0  0  0  0  0  0  0  0  0  0  0
   12.4989    6.2074   20.1776 C   0  0  0  0  0  0  0  0  0  0  0  0
    6.9192    9.1053   20.9073 O   0  0  0  0  0  0  0  0  0  0  0  0
   14.3979    6.0729   18.7784 C   0  0  0  0  0  0  0  0  0  0  0  0
    8.6811    9.5354   16.9998 C   0  0  0  0  0  0  0  0  0  0  0  0
    9.2512    4.2713   13.7653 O   0  0  0  0  0  0  0  0  0  0  0  0
    9.6495    8.6317   16.8332 N   0  0  0  0  0  0  0  0  0  0  0  0
    6.2934    8.6988   23.1988 O   0  0  0  0  0  0  0  0  0  0  0  0
    7.9806    8.6543   20.5437 C   0  0  0  0  0  0  0  0  0  0  0  0
   13.7270    5.7144   19.8610 O   0  0  0  0  0  0  0  0  0  0  0  0
    8.3351    5.5235   15.4478 C   0  0  0  0  0  0  0  0  0  0  0  0
    8.7700    7.8434   21.3915 C   0  0  0  0  0  0  0  0  0  0  0  0
   11.7856    6.8851   19.2401 C   0  0  0  0  0  0  0  0  0  0  0  0
   10.5281    7.4276   19.5649 C   0  0  0  0  0  0  0  0  0  0  0  0
   10.0256    7.2907   20.8484 C   0  0  0  0  0  0  0  0  0  0  0  0
    9.3113    5.3049   14.4911 C   0  0  0  0  0  0  0  0  0  0  0  0
    9.4607    7.5646   16.0139 C   0  0  0  0  0  0  0  0  0  0  0  0
   10.4192    7.3157   15.0955 C   0  0  0  0  0  0  0  0  0  0  0  0
   10.2489    6.4227   23.0218 N   0  0  0  0  0  0  0  0  0  0  0  0
    7.2472    8.0746   23.5050 C   0  0  0  0  0  0  0  0  0  0  0  0
    9.2051    6.9101   23.4604 C   0  0  0  0  0  0  0  0  0  0  0  0
   11.9646    6.0299   21.4251 C   0  0  0  0  0  0  0  0  0  0  0  0
  1  5  1  0
  1 13  1  0
  2 20  2  0
  2 28  1  0
  2 29  1  0
  3 19  4  0
  3 25  4  0
  4 23  4  0
  4 27  1  0
  4 30  4  0
  5 17  1  0
  6  8  1  0
  6 29  1  0
  7 24  4  0
  7 26  4  0
  8 28  1  0
  9 13  2  0
 10 18  1  0
 10 21  4  0
 10 30  4  0
 11 17  2  0
 12 18  1  0
 13 15  1  0
 14 24  1  0
 15 25  1  0
 16 28  2  0
 17 20  1  0
 19 24  4  0
 20 23  1  0
 21 22  4  0
 22 23  4  0
 25 26  4  0
 27 29  2  0
M  END
$$$$

 Created by Python create_sdf_string function

 30 33  0  0  0  0  0  0  0  0999 V2000
    8.3036    9.8571   18.4133 C   0  0  0  0  0  0  0  0  0  0  0  0
    8.3694    7.6612   22.6703 C   0  0  0  0  0  0  0  0  0  0  0  0
    8.4143    6.6863   16.2273 C   0  0  0  0  0  0  0  0  0  0  0  0
   10.7581    6.5674   21.7636 C   0  0  0  0  0  0  0  0  0  0  0  0
    8.4452    8.7960   19.2958 O   0  0  0  0  0  0  0  0  0  0  0  0
    8.7122    6.7842   24.8569 C   0  0  0  0  0  0  0  0  0  0  0  0
   10.3400    6.1726   14.3081 C   0  0  0  0  0  0  0  0  0  0  0  0
    7.4297    7.5873   24.8962 C   0  0  0  0  0  0  0  0  0  0  0  0
    8.1566   10.0536   16.0516 O   0  0  0  0  0  0  0  0  0  0  0  0
   12.4989    6.2074   20.1776 C   0  0  0  0  0  0  0  0  0  0  0  0
    6.9192    9.1053   20.9073 O   0  0  0  0  0  0  0  0  0  0  0  0
   14.3979    6.0729   18.7784 C   0  0  0  0  0  0  0  0  0  0  0  0
    8.6811    9.5354   16.9998 C   0  0  0  0  0  0  0  0  0  0  0  0
    9.2512    4.2713   13.7653 O   0  0  0  0  0  0  0  0  0  0  0  0
    9.6495    8.6317   16.8332 N   0  0  0  0  0  0  0  0  0  0  0  0
    6.2934    8.6988   23.1988 O   0  0  0  0  0  0  0  0  0  0  0  0
    7.9806    8.6543   20.5437 C   0  0  0  0  0  0  0  0  0  0  0  0
   13.7270    5.7144   19.8610 O   0  0  0  0  0  0  0  0  0  0  0  0
    8.3351    5.5235   15.4478 C   0  0  0  0  0  0  0  0  0  0  0  0
    8.7700    7.8434   21.3915 C   0  0  0  0  0  0  0  0  0  0  0  0
   11.7856    6.8851   19.2401 C   0  0  0  0  0  0  0  0  0  0  0  0
   10.5281    7.4276   19.5649 C   0  0  0  0  0  0  0  0  0  0  0  0
   10.0256    7.2907   20.8484 C   0  0  0  0  0  0  0  0  0  0  0  0
    9.3113    5.3049   14.4911 C   0  0  0  0  0  0  0  0  0  0  0  0
    9.4607    7.5646   16.0139 C   0  0  0  0  0  0  0  0  0  0  0  0
   10.4192    7.3157   15.0955 C   0  0  0  0  0  0  0  0  0  0  0  0
   10.2489    6.4227   23.0218 N   0  0  0  0  0  0  0  0  0  0  0  0
    7.2472    8.0746   23.5050 C   0  0  0  0  0  0  0  0  0  0  0  0
    9.2051    6.9101   23.4604 C   0  0  0  0  0  0  0  0  0  0  0  0
   11.9646    6.0299   21.4251 C   0  0  0  0  0  0  0  0  0  0  0  0
  1  5  1  0
  1 13  1  0
  2 20  2  0
  2 28  1  0
  2 29  1  0
  3 19  4  0
  3 25  4  0
  4 23  4  0
  4 27  1  0
  4 30  4  0
  5 17  1  0
  6  8  1  0
  6 29  1  0
  7 24  4  0
  7 26  4  0
  8 28  1  0
  9 13  2  0
 10 18  1  0
 10 21  4  0
 10 30  4  0
 11 17  2  0
 12 18  1  0
 13 15  1  0
 14 24  1  0
 15 25  1  0
 16 28  2  0
 17 20  1  0
 19 24  4  0
 20 23  1  0
 21 22  4  0
 22 23  4  0
 25 26  4  0
 27 29  2  0
M  END
$$$$

 Created by Python create_sdf_string function

 30 33  0  0  0  0  0  0  0  0999 V2000
    8.3036    9.8571   18.4133 C   0  0  0  0  0  0  0  0  0  0  0  0
    8.3694    7.6612   22.6703 C   0  0  0  0  0  0  0  0  0  0  0  0
    8.4143    6.6863   16.2273 C   0  0  0  0  0  0  0  0  0  0  0  0
   10.7581    6.5674   21.7636 C   0  0  0  0  0  0  0  0  0  0  0  0
    8.4452    8.7960   19.2958 O   0  0  0  0  0  0  0  0  0  0  0  0
    8.7122    6.7842   24.8569 C   0  0  0  0  0  0  0  0  0  0  0  0
   10.3400    6.1726   14.3081 C   0  0  0  0  0  0  0  0  0  0  0  0
    7.4297    7.5873   24.8962 C   0  0  0  0  0  0  0  0  0  0  0  0
    8.1566   10.0536   16.0516 O   0  0  0  0  0  0  0  0  0  0  0  0
   12.4989    6.2074   20.1776 C   0  0  0  0  0  0  0  0  0  0  0  0
    6.9192    9.1053   20.9073 O   0  0  0  0  0  0  0  0  0  0  0  0
   14.3979    6.0729   18.7784 C   0  0  0  0  0  0  0  0  0  0  0  0
    8.6811    9.5354   16.9998 C   0  0  0  0  0  0  0  0  0  0  0  0
    9.2512    4.2713   13.7653 O   0  0  0  0  0  0  0  0  0  0  0  0
    9.6495    8.6317   16.8332 N   0  0  0  0  0  0  0  0  0  0  0  0
    6.2934    8.6988   23.1988 O   0  0  0  0  0  0  0  0  0  0  0  0
    7.9806    8.6543   20.5437 C   0  0  0  0  0  0  0  0  0  0  0  0
   13.7270    5.7144   19.8610 O   0  0  0  0  0  0  0  0  0  0  0  0
    8.3351    5.5235   15.4478 C   0  0  0  0  0  0  0  0  0  0  0  0
    8.7700    7.8434   21.3915 C   0  0  0  0  0  0  0  0  0  0  0  0
   11.7856    6.8851   19.2401 C   0  0  0  0  0  0  0  0  0  0  0  0
   10.5281    7.4276   19.5649 C   0  0  0  0  0  0  0  0  0  0  0  0
   10.0256    7.2907   20.8484 C   0  0  0  0  0  0  0  0  0  0  0  0
    9.3113    5.3049   14.4911 C   0  0  0  0  0  0  0  0  0  0  0  0
    9.4607    7.5646   16.0139 C   0  0  0  0  0  0  0  0  0  0  0  0
   10.4192    7.3157   15.0955 C   0  0  0  0  0  0  0  0  0  0  0  0
   10.2489    6.4227   23.0218 N   0  0  0  0  0  0  0  0  0  0  0  0
    7.2472    8.0746   23.5050 C   0  0  0  0  0  0  0  0  0  0  0  0
    9.2051    6.9101   23.4604 C   0  0  0  0  0  0  0  0  0  0  0  0
   11.9646    6.0299   21.4251 C   0  0  0  0  0  0  0  0  0  0  0  0
  1  5  1  0
  1 13  1  0
  2 20  2  0
  2 28  1  0
  2 29  1  0
  3 19  4  0
  3 25  4  0
  4 23  4  0
  4 27  1  0
  4 30  4  0
  5 17  1  0
  6  8  1  0
  6 29  1  0
  7 24  4  0
  7 26  4  0
  8 28  1  0
  9 13  2  0
 10 18  1  0
 10 21  4  0
 10 30  4  0
 11 17  2  0
 12 18  1  0
 13 15  1  0
 14 24  1  0
 15 25  1  0
 16 28  2  0
 17 20  1  0
 19 24  4  0
 20 23  1  0
 21 22  4  0
 22 23  4  0
 25 26  4  0
 27 29  2  0
M  END
$$$$

 Created by Python create_sdf_string function

 30 33  0  0  0  0  0  0  0  0999 V2000
    8.3036    9.8571   18.4133 C   0  0  0  0  0  0  0  0  0  0  0  0
    8.3694    7.6612   22.6703 C   0  0  0  0  0  0  0  0  0  0  0  0
    8.4143    6.6863   16.2273 C   0  0  0  0  0  0  0  0  0  0  0  0
   10.7581    6.5674   21.7636 C   0  0  0  0  0  0  0  0  0  0  0  0
    8.4452    8.7960   19.2958 O   0  0  0  0  0  0  0  0  0  0  0  0
    8.7122    6.7842   24.8569 C   0  0  0  0  0  0  0  0  0  0  0  0
   10.3400    6.1726   14.3081 C   0  0  0  0  0  0  0  0  0  0  0  0
    7.4297    7.5873   24.8962 C   0  0  0  0  0  0  0  0  0  0  0  0
    8.1566   10.0536   16.0516 O   0  0  0  0  0  0  0  0  0  0  0  0
   12.4989    6.2074   20.1776 C   0  0  0  0  0  0  0  0  0  0  0  0
    6.9192    9.1053   20.9073 O   0  0  0  0  0  0  0  0  0  0  0  0
   14.3979    6.0729   18.7784 C   0  0  0  0  0  0  0  0  0  0  0  0
    8.6811    9.5354   16.9998 C   0  0  0  0  0  0  0  0  0  0  0  0
    9.2512    4.2713   13.7653 O   0  0  0  0  0  0  0  0  0  0  0  0
    9.6495    8.6317   16.8332 N   0  0  0  0  0  0  0  0  0  0  0  0
    6.2934    8.6988   23.1988 O   0  0  0  0  0  0  0  0  0  0  0  0
    7.9806    8.6543   20.5437 C   0  0  0  0  0  0  0  0  0  0  0  0
   13.7270    5.7144   19.8610 O   0  0  0  0  0  0  0  0  0  0  0  0
    8.3351    5.5235   15.4478 C   0  0  0  0  0  0  0  0  0  0  0  0
    8.7700    7.8434   21.3915 C   0  0  0  0  0  0  0  0  0  0  0  0
   11.7856    6.8851   19.2401 C   0  0  0  0  0  0  0  0  0  0  0  0
   10.5281    7.4276   19.5649 C   0  0  0  0  0  0  0  0  0  0  0  0
   10.0256    7.2907   20.8484 C   0  0  0  0  0  0  0  0  0  0  0  0
    9.3113    5.3049   14.4911 C   0  0  0  0  0  0  0  0  0  0  0  0
    9.4607    7.5646   16.0139 C   0  0  0  0  0  0  0  0  0  0  0  0
   10.4192    7.3157   15.0955 C   0  0  0  0  0  0  0  0  0  0  0  0
   10.2489    6.4227   23.0218 N   0  0  0  0  0  0  0  0  0  0  0  0
    7.2472    8.0746   23.5050 C   0  0  0  0  0  0  0  0  0  0  0  0
    9.2051    6.9101   23.4604 C   0  0  0  0  0  0  0  0  0  0  0  0
   11.9646    6.0299   21.4251 C   0  0  0  0  0  0  0  0  0  0  0  0
  1  5  1  0
  1 13  1  0
  2 20  2  0
  2 28  1  0
  2 29  1  0
  3 19  4  0
  3 25  4  0
  4 23  4  0
  4 27  1  0
  4 30  4  0
  5 17  1  0
  6  8  1  0
  6 29  1  0
  7 24  4  0
  7 26  4  0
  8 28  1  0
  9 13  2  0
 10 18  1  0
 10 21  4  0
 10 30  4  0
 11 17  2  0
 12 18  1  0
 13 15  1  0
 14 24  1  0
 15 25  1  0
 16 28  2  0
 17 20  1  0
 19 24  4  0
 20 23  1  0
 21 22  4  0
 22 23  4  0
 25 26  4  0
 27 29  2  0
M  END
$$$$

 Created by Python create_sdf_string function

 30 33  0  0  0  0  0  0  0  0999 V2000
    8.3036    9.8571   18.4133 C   0  0  0  0  0  0  0  0  0  0  0  0
    8.3694    7.6612   22.6703 C   0  0  0  0  0  0  0  0  0  0  0  0
    8.4143    6.6863   16.2273 C   0  0  0  0  0  0  0  0  0  0  0  0
   10.7581    6.5674   21.7636 C   0  0  0  0  0  0  0  0  0  0  0  0
    8.4452    8.7960   19.2958 O   0  0  0  0  0  0  0  0  0  0  0  0
    8.7122    6.7842   24.8569 C   0  0  0  0  0  0  0  0  0  0  0  0
   10.3400    6.1726   14.3081 C   0  0  0  0  0  0  0  0  0  0  0  0
    7.4297    7.5873   24.8962 C   0  0  0  0  0  0  0  0  0  0  0  0
    8.1566   10.0536   16.0516 O   0  0  0  0  0  0  0  0  0  0  0  0
   12.4989    6.2074   20.1776 C   0  0  0  0  0  0  0  0  0  0  0  0
    6.9192    9.1053   20.9073 O   0  0  0  0  0  0  0  0  0  0  0  0
   14.3979    6.0729   18.7784 C   0  0  0  0  0  0  0  0  0  0  0  0
    8.6811    9.5354   16.9998 C   0  0  0  0  0  0  0  0  0  0  0  0
    9.2512    4.2713   13.7653 O   0  0  0  0  0  0  0  0  0  0  0  0
    9.6495    8.6317   16.8332 N   0  0  0  0  0  0  0  0  0  0  0  0
    6.2934    8.6988   23.1988 O   0  0  0  0  0  0  0  0  0  0  0  0
    7.9806    8.6543   20.5437 C   0  0  0  0  0  0  0  0  0  0  0  0
   13.7270    5.7144   19.8610 O   0  0  0  0  0  0  0  0  0  0  0  0
    8.3351    5.5235   15.4478 C   0  0  0  0  0  0  0  0  0  0  0  0
    8.7700    7.8434   21.3915 C   0  0  0  0  0  0  0  0  0  0  0  0
   11.7856    6.8851   19.2401 C   0  0  0  0  0  0  0  0  0  0  0  0
   10.5281    7.4276   19.5649 C   0  0  0  0  0  0  0  0  0  0  0  0
   10.0256    7.2907   20.8484 C   0  0  0  0  0  0  0  0  0  0  0  0
    9.3113    5.3049   14.4911 C   0  0  0  0  0  0  0  0  0  0  0  0
    9.4607    7.5646   16.0139 C   0  0  0  0  0  0  0  0  0  0  0  0
   10.4192    7.3157   15.0955 C   0  0  0  0  0  0  0  0  0  0  0  0
   10.2489    6.4227   23.0218 N   0  0  0  0  0  0  0  0  0  0  0  0
    7.2472    8.0746   23.5050 C   0  0  0  0  0  0  0  0  0  0  0  0
    9.2051    6.9101   23.4604 C   0  0  0  0  0  0  0  0  0  0  0  0
   11.9646    6.0299   21.4251 C   0  0  0  0  0  0  0  0  0  0  0  0
  1  5  1  0
  1 13  1  0
  2 20  2  0
  2 28  1  0
  2 29  1  0
  3 19  4  0
  3 25  4  0
  4 23  4  0
  4 27  1  0
  4 30  4  0
  5 17  1  0
  6  8  1  0
  6 29  1  0
  7 24  4  0
  7 26  4  0
  8 28  1  0
  9 13  2  0
 10 18  1  0
 10 21  4  0
 10 30  4  0
 11 17  2  0
 12 18  1  0
 13 15  1  0
 14 24  1  0
 15 25  1  0
 16 28  2  0
 17 20  1  0
 19 24  4  0
 20 23  1  0
 21 22  4  0
 22 23  4  0
 25 26  4  0
 27 29  2  0
M  END
$$$$

 Created by Python create_sdf_string function

 30 33  0  0  0  0  0  0  0  0999 V2000
    8.3036    9.8571   18.4133 C   0  0  0  0  0  0  0  0  0  0  0  0
    8.3694    7.6612   22.6703 C   0  0  0  0  0  0  0  0  0  0  0  0
    8.4143    6.6863   16.2273 C   0  0  0  0  0  0  0  0  0  0  0  0
   10.7581    6.5674   21.7636 C   0  0  0  0  0  0  0  0  0  0  0  0
    8.4452    8.7960   19.2958 O   0  0  0  0  0  0  0  0  0  0  0  0
    8.7122    6.7842   24.8569 C   0  0  0  0  0  0  0  0  0  0  0  0
   10.3400    6.1726   14.3081 C   0  0  0  0  0  0  0  0  0  0  0  0
    7.4297    7.5873   24.8962 C   0  0  0  0  0  0  0  0  0  0  0  0
    8.1566   10.0536   16.0516 O   0  0  0  0  0  0  0  0  0  0  0  0
   12.4989    6.2074   20.1776 C   0  0  0  0  0  0  0  0  0  0  0  0
    6.9192    9.1053   20.9073 O   0  0  0  0  0  0  0  0  0  0  0  0
   14.3979    6.0729   18.7784 C   0  0  0  0  0  0  0  0  0  0  0  0
    8.6811    9.5354   16.9998 C   0  0  0  0  0  0  0  0  0  0  0  0
    9.2512    4.2713   13.7653 O   0  0  0  0  0  0  0  0  0  0  0  0
    9.6495    8.6317   16.8332 N   0  0  0  0  0  0  0  0  0  0  0  0
    6.2934    8.6988   23.1988 O   0  0  0  0  0  0  0  0  0  0  0  0
    7.9806    8.6543   20.5437 C   0  0  0  0  0  0  0  0  0  0  0  0
   13.7270    5.7144   19.8610 O   0  0  0  0  0  0  0  0  0  0  0  0
    8.3351    5.5235   15.4478 C   0  0  0  0  0  0  0  0  0  0  0  0
    8.7700    7.8434   21.3915 C   0  0  0  0  0  0  0  0  0  0  0  0
   11.7856    6.8851   19.2401 C   0  0  0  0  0  0  0  0  0  0  0  0
   10.5281    7.4276   19.5649 C   0  0  0  0  0  0  0  0  0  0  0  0
   10.0256    7.2907   20.8484 C   0  0  0  0  0  0  0  0  0  0  0  0
    9.3113    5.3049   14.4911 C   0  0  0  0  0  0  0  0  0  0  0  0
    9.4607    7.5646   16.0139 C   0  0  0  0  0  0  0  0  0  0  0  0
   10.4192    7.3157   15.0955 C   0  0  0  0  0  0  0  0  0  0  0  0
   10.2489    6.4227   23.0218 N   0  0  0  0  0  0  0  0  0  0  0  0
    7.2472    8.0746   23.5050 C   0  0  0  0  0  0  0  0  0  0  0  0
    9.2051    6.9101   23.4604 C   0  0  0  0  0  0  0  0  0  0  0  0
   11.9646    6.0299   21.4251 C   0  0  0  0  0  0  0  0  0  0  0  0
  1  5  1  0
  1 13  1  0
  2 20  2  0
  2 28  1  0
  2 29  1  0
  3 19  4  0
  3 25  4  0
  4 23  4  0
  4 27  1  0
  4 30  4  0
  5 17  1  0
  6  8  1  0
  6 29  1  0
  7 24  4  0
  7 26  4  0
  8 28  1  0
  9 13  2  0
 10 18  1  0
 10 21  4  0
 10 30  4  0
 11 17  2  0
 12 18  1  0
 13 15  1  0
 14 24  1  0
 15 25  1  0
 16 28  2  0
 17 20  1  0
 19 24  4  0
 20 23  1  0
 21 22  4  0
 22 23  4  0
 25 26  4  0
 27 29  2  0
M  END
$$$$

 Created by Python create_sdf_string function

 30 33  0  0  0  0  0  0  0  0999 V2000
    8.3036    9.8571   18.4133 C   0  0  0  0  0  0  0  0  0  0  0  0
    8.3694    7.6612   22.6703 C   0  0  0  0  0  0  0  0  0  0  0  0
    8.4143    6.6863   16.2273 C   0  0  0  0  0  0  0  0  0  0  0  0
   10.7581    6.5674   21.7636 C   0  0  0  0  0  0  0  0  0  0  0  0
    8.4452    8.7960   19.2958 O   0  0  0  0  0  0  0  0  0  0  0  0
    8.7122    6.7842   24.8569 C   0  0  0  0  0  0  0  0  0  0  0  0
   10.3400    6.1726   14.3081 C   0  0  0  0  0  0  0  0  0  0  0  0
    7.4297    7.5873   24.8962 C   0  0  0  0  0  0  0  0  0  0  0  0
    8.1566   10.0536   16.0516 O   0  0  0  0  0  0  0  0  0  0  0  0
   12.4989    6.2074   20.1776 C   0  0  0  0  0  0  0  0  0  0  0  0
    6.9192    9.1053   20.9073 O   0  0  0  0  0  0  0  0  0  0  0  0
   14.3979    6.0729   18.7784 C   0  0  0  0  0  0  0  0  0  0  0  0
    8.6811    9.5354   16.9998 C   0  0  0  0  0  0  0  0  0  0  0  0
    9.2512    4.2713   13.7653 O   0  0  0  0  0  0  0  0  0  0  0  0
    9.6495    8.6317   16.8332 N   0  0  0  0  0  0  0  0  0  0  0  0
    6.2934    8.6988   23.1988 O   0  0  0  0  0  0  0  0  0  0  0  0
    7.9806    8.6543   20.5437 C   0  0  0  0  0  0  0  0  0  0  0  0
   13.7270    5.7144   19.8610 O   0  0  0  0  0  0  0  0  0  0  0  0
    8.3351    5.5235   15.4478 C   0  0  0  0  0  0  0  0  0  0  0  0
    8.7700    7.8434   21.3915 C   0  0  0  0  0  0  0  0  0  0  0  0
   11.7856    6.8851   19.2401 C   0  0  0  0  0  0  0  0  0  0  0  0
   10.5281    7.4276   19.5649 C   0  0  0  0  0  0  0  0  0  0  0  0
   10.0256    7.2907   20.8484 C   0  0  0  0  0  0  0  0  0  0  0  0
    9.3113    5.3049   14.4911 C   0  0  0  0  0  0  0  0  0  0  0  0
    9.4607    7.5646   16.0139 C   0  0  0  0  0  0  0  0  0  0  0  0
   10.4192    7.3157   15.0955 C   0  0  0  0  0  0  0  0  0  0  0  0
   10.2489    6.4227   23.0218 N   0  0  0  0  0  0  0  0  0  0  0  0
    7.2472    8.0746   23.5050 C   0  0  0  0  0  0  0  0  0  0  0  0
    9.2051    6.9101   23.4604 C   0  0  0  0  0  0  0  0  0  0  0  0
   11.9646    6.0299   21.4251 C   0  0  0  0  0  0  0  0  0  0  0  0
  1  5  1  0
  1 13  1  0
  2 20  2  0
  2 28  1  0
  2 29  1  0
  3 19  4  0
  3 25  4  0
  4 23  4  0
  4 27  1  0
  4 30  4  0
  5 17  1  0
  6  8  1  0
  6 29  1  0
  7 24  4  0
  7 26  4  0
  8 28  1  0
  9 13  2  0
 10 18  1  0
 10 21  4  0
 10 30  4  0
 11 17  2  0
 12 18  1  0
 13 15  1  0
 14 24  1  0
 15 25  1  0
 16 28  2  0
 17 20  1  0
 19 24  4  0
 20 23  1  0
 21 22  4  0
 22 23  4  0
 25 26  4  0
 27 29  2  0
M  END
$$$$

 Created by Python create_sdf_string function

 30 33  0  0  0  0  0  0  0  0999 V2000
    8.3036    9.8571   18.4133 C   0  0  0  0  0  0  0  0  0  0  0  0
    8.3694    7.6612   22.6703 C   0  0  0  0  0  0  0  0  0  0  0  0
    8.4143    6.6863   16.2273 C   0  0  0  0  0  0  0  0  0  0  0  0
   10.7581    6.5674   21.7636 C   0  0  0  0  0  0  0  0  0  0  0  0
    8.4452    8.7960   19.2958 O   0  0  0  0  0  0  0  0  0  0  0  0
    8.7122    6.7842   24.8569 C   0  0  0  0  0  0  0  0  0  0  0  0
   10.3400    6.1726   14.3081 C   0  0  0  0  0  0  0  0  0  0  0  0
    7.4297    7.5873   24.8962 C   0  0  0  0  0  0  0  0  0  0  0  0
    8.1566   10.0536   16.0516 O   0  0  0  0  0  0  0  0  0  0  0  0
   12.4989    6.2074   20.1776 C   0  0  0  0  0  0  0  0  0  0  0  0
    6.9192    9.1053   20.9073 O   0  0  0  0  0  0  0  0  0  0  0  0
   14.3979    6.0729   18.7784 C   0  0  0  0  0  0  0  0  0  0  0  0
    8.6811    9.5354   16.9998 C   0  0  0  0  0  0  0  0  0  0  0  0
    9.2512    4.2713   13.7653 O   0  0  0  0  0  0  0  0  0  0  0  0
    9.6495    8.6317   16.8332 N   0  0  0  0  0  0  0  0  0  0  0  0
    6.2934    8.6988   23.1988 O   0  0  0  0  0  0  0  0  0  0  0  0
    7.9806    8.6543   20.5437 C   0  0  0  0  0  0  0  0  0  0  0  0
   13.7270    5.7144   19.8610 O   0  0  0  0  0  0  0  0  0  0  0  0
    8.3351    5.5235   15.4478 C   0  0  0  0  0  0  0  0  0  0  0  0
    8.7700    7.8434   21.3915 C   0  0  0  0  0  0  0  0  0  0  0  0
   11.7856    6.8851   19.2401 C   0  0  0  0  0  0  0  0  0  0  0  0
   10.5281    7.4276   19.5649 C   0  0  0  0  0  0  0  0  0  0  0  0
   10.0256    7.2907   20.8484 C   0  0  0  0  0  0  0  0  0  0  0  0
    9.3113    5.3049   14.4911 C   0  0  0  0  0  0  0  0  0  0  0  0
    9.4607    7.5646   16.0139 C   0  0  0  0  0  0  0  0  0  0  0  0
   10.4192    7.3157   15.0955 C   0  0  0  0  0  0  0  0  0  0  0  0
   10.2489    6.4227   23.0218 N   0  0  0  0  0  0  0  0  0  0  0  0
    7.2472    8.0746   23.5050 C   0  0  0  0  0  0  0  0  0  0  0  0
    9.2051    6.9101   23.4604 C   0  0  0  0  0  0  0  0  0  0  0  0
   11.9646    6.0299   21.4251 C   0  0  0  0  0  0  0  0  0  0  0  0
  1  5  1  0
  1 13  1  0
  2 20  2  0
  2 28  1  0
  2 29  1  0
  3 19  4  0
  3 25  4  0
  4 23  4  0
  4 27  1  0
  4 30  4  0
  5 17  1  0
  6  8  1  0
  6 29  1  0
  7 24  4  0
  7 26  4  0
  8 28  1  0
  9 13  2  0
 10 18  1  0
 10 21  4  0
 10 30  4  0
 11 17  2  0
 12 18  1  0
 13 15  1  0
 14 24  1  0
 15 25  1  0
 16 28  2  0
 17 20  1  0
 19 24  4  0
 20 23  1  0
 21 22  4  0
 22 23  4  0
 25 26  4  0
 27 29  2  0
M  END
$$$$

 Created by Python create_sdf_string function

 30 33  0  0  0  0  0  0  0  0999 V2000
    8.3036    9.8571   18.4133 C   0  0  0  0  0  0  0  0  0  0  0  0
    8.3694    7.6612   22.6703 C   0  0  0  0  0  0  0  0  0  0  0  0
    8.4143    6.6863   16.2273 C   0  0  0  0  0  0  0  0  0  0  0  0
   10.7581    6.5674   21.7636 C   0  0  0  0  0  0  0  0  0  0  0  0
    8.4452    8.7960   19.2958 O   0  0  0  0  0  0  0  0  0  0  0  0
    8.7122    6.7842   24.8569 C   0  0  0  0  0  0  0  0  0  0  0  0
   10.3400    6.1726   14.3081 C   0  0  0  0  0  0  0  0  0  0  0  0
    7.4297    7.5873   24.8962 C   0  0  0  0  0  0  0  0  0  0  0  0
    8.1566   10.0536   16.0516 O   0  0  0  0  0  0  0  0  0  0  0  0
   12.4989    6.2074   20.1776 C   0  0  0  0  0  0  0  0  0  0  0  0
    6.9192    9.1053   20.9073 O   0  0  0  0  0  0  0  0  0  0  0  0
   14.3979    6.0729   18.7784 C   0  0  0  0  0  0  0  0  0  0  0  0
    8.6811    9.5354   16.9998 C   0  0  0  0  0  0  0  0  0  0  0  0
    9.2512    4.2713   13.7653 O   0  0  0  0  0  0  0  0  0  0  0  0
    9.6495    8.6317   16.8332 N   0  0  0  0  0  0  0  0  0  0  0  0
    6.2934    8.6988   23.1988 O   0  0  0  0  0  0  0  0  0  0  0  0
    7.9806    8.6543   20.5437 C   0  0  0  0  0  0  0  0  0  0  0  0
   13.7270    5.7144   19.8610 O   0  0  0  0  0  0  0  0  0  0  0  0
    8.3351    5.5235   15.4478 C   0  0  0  0  0  0  0  0  0  0  0  0
    8.7700    7.8434   21.3915 C   0  0  0  0  0  0  0  0  0  0  0  0
   11.7856    6.8851   19.2401 C   0  0  0  0  0  0  0  0  0  0  0  0
   10.5281    7.4276   19.5649 C   0  0  0  0  0  0  0  0  0  0  0  0
   10.0256    7.2907   20.8484 C   0  0  0  0  0  0  0  0  0  0  0  0
    9.3113    5.3049   14.4911 C   0  0  0  0  0  0  0  0  0  0  0  0
    9.4607    7.5646   16.0139 C   0  0  0  0  0  0  0  0  0  0  0  0
   10.4192    7.3157   15.0955 C   0  0  0  0  0  0  0  0  0  0  0  0
   10.2489    6.4227   23.0218 N   0  0  0  0  0  0  0  0  0  0  0  0
    7.2472    8.0746   23.5050 C   0  0  0  0  0  0  0  0  0  0  0  0
    9.2051    6.9101   23.4604 C   0  0  0  0  0  0  0  0  0  0  0  0
   11.9646    6.0299   21.4251 C   0  0  0  0  0  0  0  0  0  0  0  0
  1  5  1  0
  1 13  1  0
  2 20  2  0
  2 28  1  0
  2 29  1  0
  3 19  4  0
  3 25  4  0
  4 23  4  0
  4 27  1  0
  4 30  4  0
  5 17  1  0
  6  8  1  0
  6 29  1  0
  7 24  4  0
  7 26  4  0
  8 28  1  0
  9 13  2  0
 10 18  1  0
 10 21  4  0
 10 30  4  0
 11 17  2  0
 12 18  1  0
 13 15  1  0
 14 24  1  0
 15 25  1  0
 16 28  2  0
 17 20  1  0
 19 24  4  0
 20 23  1  0
 21 22  4  0
 22 23  4  0
 25 26  4  0
 27 29  2  0
M  END
$$$$

 Created by Python create_sdf_string function

 30 33  0  0  0  0  0  0  0  0999 V2000
    8.3036    9.8571   18.4133 C   0  0  0  0  0  0  0  0  0  0  0  0
    8.3694    7.6612   22.6703 C   0  0  0  0  0  0  0  0  0  0  0  0
    8.4143    6.6863   16.2273 C   0  0  0  0  0  0  0  0  0  0  0  0
   10.7581    6.5674   21.7636 C   0  0  0  0  0  0  0  0  0  0  0  0
    8.4452    8.7960   19.2958 O   0  0  0  0  0  0  0  0  0  0  0  0
    8.7122    6.7842   24.8569 C   0  0  0  0  0  0  0  0  0  0  0  0
   10.3400    6.1726   14.3081 C   0  0  0  0  0  0  0  0  0  0  0  0
    7.4297    7.5873   24.8962 C   0  0  0  0  0  0  0  0  0  0  0  0
    8.1566   10.0536   16.0516 O   0  0  0  0  0  0  0  0  0  0  0  0
   12.4989    6.2074   20.1776 C   0  0  0  0  0  0  0  0  0  0  0  0
    6.9192    9.1053   20.9073 O   0  0  0  0  0  0  0  0  0  0  0  0
   14.3979    6.0729   18.7784 C   0  0  0  0  0  0  0  0  0  0  0  0
    8.6811    9.5354   16.9998 C   0  0  0  0  0  0  0  0  0  0  0  0
    9.2512    4.2713   13.7653 O   0  0  0  0  0  0  0  0  0  0  0  0
    9.6495    8.6317   16.8332 N   0  0  0  0  0  0  0  0  0  0  0  0
    6.2934    8.6988   23.1988 O   0  0  0  0  0  0  0  0  0  0  0  0
    7.9806    8.6543   20.5437 C   0  0  0  0  0  0  0  0  0  0  0  0
   13.7270    5.7144   19.8610 O   0  0  0  0  0  0  0  0  0  0  0  0
    8.3351    5.5235   15.4478 C   0  0  0  0  0  0  0  0  0  0  0  0
    8.7700    7.8434   21.3915 C   0  0  0  0  0  0  0  0  0  0  0  0
   11.7856    6.8851   19.2401 C   0  0  0  0  0  0  0  0  0  0  0  0
   10.5281    7.4276   19.5649 C   0  0  0  0  0  0  0  0  0  0  0  0
   10.0256    7.2907   20.8484 C   0  0  0  0  0  0  0  0  0  0  0  0
    9.3113    5.3049   14.4911 C   0  0  0  0  0  0  0  0  0  0  0  0
    9.4607    7.5646   16.0139 C   0  0  0  0  0  0  0  0  0  0  0  0
   10.4192    7.3157   15.0955 C   0  0  0  0  0  0  0  0  0  0  0  0
   10.2489    6.4227   23.0218 N   0  0  0  0  0  0  0  0  0  0  0  0
    7.2472    8.0746   23.5050 C   0  0  0  0  0  0  0  0  0  0  0  0
    9.2051    6.9101   23.4604 C   0  0  0  0  0  0  0  0  0  0  0  0
   11.9646    6.0299   21.4251 C   0  0  0  0  0  0  0  0  0  0  0  0
  1  5  1  0
  1 13  1  0
  2 20  2  0
  2 28  1  0
  2 29  1  0
  3 19  4  0
  3 25  4  0
  4 23  4  0
  4 27  1  0
  4 30  4  0
  5 17  1  0
  6  8  1  0
  6 29  1  0
  7 24  4  0
  7 26  4  0
  8 28  1  0
  9 13  2  0
 10 18  1  0
 10 21  4  0
 10 30  4  0
 11 17  2  0
 12 18  1  0
 13 15  1  0
 14 24  1  0
 15 25  1  0
 16 28  2  0
 17 20  1  0
 19 24  4  0
 20 23  1  0
 21 22  4  0
 22 23  4  0
 25 26  4  0
 27 29  2  0
M  END
$$$$

 Created by Python create_sdf_string function

 30 33  0  0  0  0  0  0  0  0999 V2000
    8.3036    9.8571   18.4133 C   0  0  0  0  0  0  0  0  0  0  0  0
    8.3694    7.6612   22.6703 C   0  0  0  0  0  0  0  0  0  0  0  0
    8.4143    6.6863   16.2273 C   0  0  0  0  0  0  0  0  0  0  0  0
   10.7581    6.5674   21.7636 C   0  0  0  0  0  0  0  0  0  0  0  0
    8.4452    8.7960   19.2958 O   0  0  0  0  0  0  0  0  0  0  0  0
    8.7122    6.7842   24.8569 C   0  0  0  0  0  0  0  0  0  0  0  0
   10.3400    6.1726   14.3081 C   0  0  0  0  0  0  0  0  0  0  0  0
    7.4297    7.5873   24.8962 C   0  0  0  0  0  0  0  0  0  0  0  0
    8.1566   10.0536   16.0516 O   0  0  0  0  0  0  0  0  0  0  0  0
   12.4989    6.2074   20.1776 C   0  0  0  0  0  0  0  0  0  0  0  0
    6.9192    9.1053   20.9073 O   0  0  0  0  0  0  0  0  0  0  0  0
   14.3979    6.0729   18.7784 C   0  0  0  0  0  0  0  0  0  0  0  0
    8.6811    9.5354   16.9998 C   0  0  0  0  0  0  0  0  0  0  0  0
    9.2512    4.2713   13.7653 O   0  0  0  0  0  0  0  0  0  0  0  0
    9.6495    8.6317   16.8332 N   0  0  0  0  0  0  0  0  0  0  0  0
    6.2934    8.6988   23.1988 O   0  0  0  0  0  0  0  0  0  0  0  0
    7.9806    8.6543   20.5437 C   0  0  0  0  0  0  0  0  0  0  0  0
   13.7270    5.7144   19.8610 O   0  0  0  0  0  0  0  0  0  0  0  0
    8.3351    5.5235   15.4478 C   0  0  0  0  0  0  0  0  0  0  0  0
    8.7700    7.8434   21.3915 C   0  0  0  0  0  0  0  0  0  0  0  0
   11.7856    6.8851   19.2401 C   0  0  0  0  0  0  0  0  0  0  0  0
   10.5281    7.4276   19.5649 C   0  0  0  0  0  0  0  0  0  0  0  0
   10.0256    7.2907   20.8484 C   0  0  0  0  0  0  0  0  0  0  0  0
    9.3113    5.3049   14.4911 C   0  0  0  0  0  0  0  0  0  0  0  0
    9.4607    7.5646   16.0139 C   0  0  0  0  0  0  0  0  0  0  0  0
   10.4192    7.3157   15.0955 C   0  0  0  0  0  0  0  0  0  0  0  0
   10.2489    6.4227   23.0218 N   0  0  0  0  0  0  0  0  0  0  0  0
    7.2472    8.0746   23.5050 C   0  0  0  0  0  0  0  0  0  0  0  0
    9.2051    6.9101   23.4604 C   0  0  0  0  0  0  0  0  0  0  0  0
   11.9646    6.0299   21.4251 C   0  0  0  0  0  0  0  0  0  0  0  0
  1  5  1  0
  1 13  1  0
  2 20  2  0
  2 28  1  0
  2 29  1  0
  3 19  4  0
  3 25  4  0
  4 23  4  0
  4 27  1  0
  4 30  4  0
  5 17  1  0
  6  8  1  0
  6 29  1  0
  7 24  4  0
  7 26  4  0
  8 28  1  0
  9 13  2  0
 10 18  1  0
 10 21  4  0
 10 30  4  0
 11 17  2  0
 12 18  1  0
 13 15  1  0
 14 24  1  0
 15 25  1  0
 16 28  2  0
 17 20  1  0
 19 24  4  0
 20 23  1  0
 21 22  4  0
 22 23  4  0
 25 26  4  0
 27 29  2  0
M  END
$$$$

 Created by Python create_sdf_string function

 30 33  0  0  0  0  0  0  0  0999 V2000
    8.3036    9.8571   18.4133 C   0  0  0  0  0  0  0  0  0  0  0  0
    8.3694    7.6612   22.6703 C   0  0  0  0  0  0  0  0  0  0  0  0
    8.4143    6.6863   16.2273 C   0  0  0  0  0  0  0  0  0  0  0  0
   10.7581    6.5674   21.7636 C   0  0  0  0  0  0  0  0  0  0  0  0
    8.4452    8.7960   19.2958 O   0  0  0  0  0  0  0  0  0  0  0  0
    8.7122    6.7842   24.8569 C   0  0  0  0  0  0  0  0  0  0  0  0
   10.3400    6.1726   14.3081 C   0  0  0  0  0  0  0  0  0  0  0  0
    7.4297    7.5873   24.8962 C   0  0  0  0  0  0  0  0  0  0  0  0
    8.1566   10.0536   16.0516 O   0  0  0  0  0  0  0  0  0  0  0  0
   12.4989    6.2074   20.1776 C   0  0  0  0  0  0  0  0  0  0  0  0
    6.9192    9.1053   20.9073 O   0  0  0  0  0  0  0  0  0  0  0  0
   14.3979    6.0729   18.7784 C   0  0  0  0  0  0  0  0  0  0  0  0
    8.6811    9.5354   16.9998 C   0  0  0  0  0  0  0  0  0  0  0  0
    9.2512    4.2713   13.7653 O   0  0  0  0  0  0  0  0  0  0  0  0
    9.6495    8.6317   16.8332 N   0  0  0  0  0  0  0  0  0  0  0  0
    6.2934    8.6988   23.1988 O   0  0  0  0  0  0  0  0  0  0  0  0
    7.9806    8.6543   20.5437 C   0  0  0  0  0  0  0  0  0  0  0  0
   13.7270    5.7144   19.8610 O   0  0  0  0  0  0  0  0  0  0  0  0
    8.3351    5.5235   15.4478 C   0  0  0  0  0  0  0  0  0  0  0  0
    8.7700    7.8434   21.3915 C   0  0  0  0  0  0  0  0  0  0  0  0
   11.7856    6.8851   19.2401 C   0  0  0  0  0  0  0  0  0  0  0  0
   10.5281    7.4276   19.5649 C   0  0  0  0  0  0  0  0  0  0  0  0
   10.0256    7.2907   20.8484 C   0  0  0  0  0  0  0  0  0  0  0  0
    9.3113    5.3049   14.4911 C   0  0  0  0  0  0  0  0  0  0  0  0
    9.4607    7.5646   16.0139 C   0  0  0  0  0  0  0  0  0  0  0  0
   10.4192    7.3157   15.0955 C   0  0  0  0  0  0  0  0  0  0  0  0
   10.2489    6.4227   23.0218 N   0  0  0  0  0  0  0  0  0  0  0  0
    7.2472    8.0746   23.5050 C   0  0  0  0  0  0  0  0  0  0  0  0
    9.2051    6.9101   23.4604 C   0  0  0  0  0  0  0  0  0  0  0  0
   11.9646    6.0299   21.4251 C   0  0  0  0  0  0  0  0  0  0  0  0
  1  5  1  0
  1 13  1  0
  2 20  2  0
  2 28  1  0
  2 29  1  0
  3 19  4  0
  3 25  4  0
  4 23  4  0
  4 27  1  0
  4 30  4  0
  5 17  1  0
  6  8  1  0
  6 29  1  0
  7 24  4  0
  7 26  4  0
  8 28  1  0
  9 13  2  0
 10 18  1  0
 10 21  4  0
 10 30  4  0
 11 17  2  0
 12 18  1  0
 13 15  1  0
 14 24  1  0
 15 25  1  0
 16 28  2  0
 17 20  1  0
 19 24  4  0
 20 23  1  0
 21 22  4  0
 22 23  4  0
 25 26  4  0
 27 29  2  0
M  END
$$$$

 Created by Python create_sdf_string function

 30 33  0  0  0  0  0  0  0  0999 V2000
    8.3036    9.8571   18.4133 C   0  0  0  0  0  0  0  0  0  0  0  0
    8.3694    7.6612   22.6703 C   0  0  0  0  0  0  0  0  0  0  0  0
    8.4143    6.6863   16.2273 C   0  0  0  0  0  0  0  0  0  0  0  0
   10.7581    6.5674   21.7636 C   0  0  0  0  0  0  0  0  0  0  0  0
    8.4452    8.7960   19.2958 O   0  0  0  0  0  0  0  0  0  0  0  0
    8.7122    6.7842   24.8569 C   0  0  0  0  0  0  0  0  0  0  0  0
   10.3400    6.1726   14.3081 C   0  0  0  0  0  0  0  0  0  0  0  0
    7.4297    7.5873   24.8962 C   0  0  0  0  0  0  0  0  0  0  0  0
    8.1566   10.0536   16.0516 O   0  0  0  0  0  0  0  0  0  0  0  0
   12.4989    6.2074   20.1776 C   0  0  0  0  0  0  0  0  0  0  0  0
    6.9192    9.1053   20.9073 O   0  0  0  0  0  0  0  0  0  0  0  0
   14.3979    6.0729   18.7784 C   0  0  0  0  0  0  0  0  0  0  0  0
    8.6811    9.5354   16.9998 C   0  0  0  0  0  0  0  0  0  0  0  0
    9.2512    4.2713   13.7653 O   0  0  0  0  0  0  0  0  0  0  0  0
    9.6495    8.6317   16.8332 N   0  0  0  0  0  0  0  0  0  0  0  0
    6.2934    8.6988   23.1988 O   0  0  0  0  0  0  0  0  0  0  0  0
    7.9806    8.6543   20.5437 C   0  0  0  0  0  0  0  0  0  0  0  0
   13.7270    5.7144   19.8610 O   0  0  0  0  0  0  0  0  0  0  0  0
    8.3351    5.5235   15.4478 C   0  0  0  0  0  0  0  0  0  0  0  0
    8.7700    7.8434   21.3915 C   0  0  0  0  0  0  0  0  0  0  0  0
   11.7856    6.8851   19.2401 C   0  0  0  0  0  0  0  0  0  0  0  0
   10.5281    7.4276   19.5649 C   0  0  0  0  0  0  0  0  0  0  0  0
   10.0256    7.2907   20.8484 C   0  0  0  0  0  0  0  0  0  0  0  0
    9.3113    5.3049   14.4911 C   0  0  0  0  0  0  0  0  0  0  0  0
    9.4607    7.5646   16.0139 C   0  0  0  0  0  0  0  0  0  0  0  0
   10.4192    7.3157   15.0955 C   0  0  0  0  0  0  0  0  0  0  0  0
   10.2489    6.4227   23.0218 N   0  0  0  0  0  0  0  0  0  0  0  0
    7.2472    8.0746   23.5050 C   0  0  0  0  0  0  0  0  0  0  0  0
    9.2051    6.9101   23.4604 C   0  0  0  0  0  0  0  0  0  0  0  0
   11.9646    6.0299   21.4251 C   0  0  0  0  0  0  0  0  0  0  0  0
  1  5  1  0
  1 13  1  0
  2 20  2  0
  2 28  1  0
  2 29  1  0
  3 19  4  0
  3 25  4  0
  4 23  4  0
  4 27  1  0
  4 30  4  0
  5 17  1  0
  6  8  1  0
  6 29  1  0
  7 24  4  0
  7 26  4  0
  8 28  1  0
  9 13  2  0
 10 18  1  0
 10 21  4  0
 10 30  4  0
 11 17  2  0
 12 18  1  0
 13 15  1  0
 14 24  1  0
 15 25  1  0
 16 28  2  0
 17 20  1  0
 19 24  4  0
 20 23  1  0
 21 22  4  0
 22 23  4  0
 25 26  4  0
 27 29  2  0
M  END
$$$$

 Created by Python create_sdf_string function

 30 33  0  0  0  0  0  0  0  0999 V2000
    8.3036    9.8571   18.4133 C   0  0  0  0  0  0  0  0  0  0  0  0
    8.3694    7.6612   22.6703 C   0  0  0  0  0  0  0  0  0  0  0  0
    8.4143    6.6863   16.2273 C   0  0  0  0  0  0  0  0  0  0  0  0
   10.7581    6.5674   21.7636 C   0  0  0  0  0  0  0  0  0  0  0  0
    8.4452    8.7960   19.2958 O   0  0  0  0  0  0  0  0  0  0  0  0
    8.7122    6.7842   24.8569 C   0  0  0  0  0  0  0  0  0  0  0  0
   10.3400    6.1726   14.3081 C   0  0  0  0  0  0  0  0  0  0  0  0
    7.4297    7.5873   24.8962 C   0  0  0  0  0  0  0  0  0  0  0  0
    8.1566   10.0536   16.0516 O   0  0  0  0  0  0  0  0  0  0  0  0
   12.4989    6.2074   20.1776 C   0  0  0  0  0  0  0  0  0  0  0  0
    6.9192    9.1053   20.9073 O   0  0  0  0  0  0  0  0  0  0  0  0
   14.3979    6.0729   18.7784 C   0  0  0  0  0  0  0  0  0  0  0  0
    8.6811    9.5354   16.9998 C   0  0  0  0  0  0  0  0  0  0  0  0
    9.2512    4.2713   13.7653 O   0  0  0  0  0  0  0  0  0  0  0  0
    9.6495    8.6317   16.8332 N   0  0  0  0  0  0  0  0  0  0  0  0
    6.2934    8.6988   23.1988 O   0  0  0  0  0  0  0  0  0  0  0  0
    7.9806    8.6543   20.5437 C   0  0  0  0  0  0  0  0  0  0  0  0
   13.7270    5.7144   19.8610 O   0  0  0  0  0  0  0  0  0  0  0  0
    8.3351    5.5235   15.4478 C   0  0  0  0  0  0  0  0  0  0  0  0
    8.7700    7.8434   21.3915 C   0  0  0  0  0  0  0  0  0  0  0  0
   11.7856    6.8851   19.2401 C   0  0  0  0  0  0  0  0  0  0  0  0
   10.5281    7.4276   19.5649 C   0  0  0  0  0  0  0  0  0  0  0  0
   10.0256    7.2907   20.8484 C   0  0  0  0  0  0  0  0  0  0  0  0
    9.3113    5.3049   14.4911 C   0  0  0  0  0  0  0  0  0  0  0  0
    9.4607    7.5646   16.0139 C   0  0  0  0  0  0  0  0  0  0  0  0
   10.4192    7.3157   15.0955 C   0  0  0  0  0  0  0  0  0  0  0  0
   10.2489    6.4227   23.0218 N   0  0  0  0  0  0  0  0  0  0  0  0
    7.2472    8.0746   23.5050 C   0  0  0  0  0  0  0  0  0  0  0  0
    9.2051    6.9101   23.4604 C   0  0  0  0  0  0  0  0  0  0  0  0
   11.9646    6.0299   21.4251 C   0  0  0  0  0  0  0  0  0  0  0  0
  1  5  1  0
  1 13  1  0
  2 20  2  0
  2 28  1  0
  2 29  1  0
  3 19  4  0
  3 25  4  0
  4 23  4  0
  4 27  1  0
  4 30  4  0
  5 17  1  0
  6  8  1  0
  6 29  1  0
  7 24  4  0
  7 26  4  0
  8 28  1  0
  9 13  2  0
 10 18  1  0
 10 21  4  0
 10 30  4  0
 11 17  2  0
 12 18  1  0
 13 15  1  0
 14 24  1  0
 15 25  1  0
 16 28  2  0
 17 20  1  0
 19 24  4  0
 20 23  1  0
 21 22  4  0
 22 23  4  0
 25 26  4  0
 27 29  2  0
M  END
$$$$

 Created by Python create_sdf_string function

 30 33  0  0  0  0  0  0  0  0999 V2000
    8.3036    9.8571   18.4133 C   0  0  0  0  0  0  0  0  0  0  0  0
    8.3694    7.6612   22.6703 C   0  0  0  0  0  0  0  0  0  0  0  0
    8.4143    6.6863   16.2273 C   0  0  0  0  0  0  0  0  0  0  0  0
   10.7581    6.5674   21.7636 C   0  0  0  0  0  0  0  0  0  0  0  0
    8.4452    8.7960   19.2958 O   0  0  0  0  0  0  0  0  0  0  0  0
    8.7122    6.7842   24.8569 C   0  0  0  0  0  0  0  0  0  0  0  0
   10.3400    6.1726   14.3081 C   0  0  0  0  0  0  0  0  0  0  0  0
    7.4297    7.5873   24.8962 C   0  0  0  0  0  0  0  0  0  0  0  0
    8.1566   10.0536   16.0516 O   0  0  0  0  0  0  0  0  0  0  0  0
   12.4989    6.2074   20.1776 C   0  0  0  0  0  0  0  0  0  0  0  0
    6.9192    9.1053   20.9073 O   0  0  0  0  0  0  0  0  0  0  0  0
   14.3979    6.0729   18.7784 C   0  0  0  0  0  0  0  0  0  0  0  0
    8.6811    9.5354   16.9998 C   0  0  0  0  0  0  0  0  0  0  0  0
    9.2512    4.2713   13.7653 O   0  0  0  0  0  0  0  0  0  0  0  0
    9.6495    8.6317   16.8332 N   0  0  0  0  0  0  0  0  0  0  0  0
    6.2934    8.6988   23.1988 O   0  0  0  0  0  0  0  0  0  0  0  0
    7.9806    8.6543   20.5437 C   0  0  0  0  0  0  0  0  0  0  0  0
   13.7270    5.7144   19.8610 O   0  0  0  0  0  0  0  0  0  0  0  0
    8.3351    5.5235   15.4478 C   0  0  0  0  0  0  0  0  0  0  0  0
    8.7700    7.8434   21.3915 C   0  0  0  0  0  0  0  0  0  0  0  0
   11.7856    6.8851   19.2401 C   0  0  0  0  0  0  0  0  0  0  0  0
   10.5281    7.4276   19.5649 C   0  0  0  0  0  0  0  0  0  0  0  0
   10.0256    7.2907   20.8484 C   0  0  0  0  0  0  0  0  0  0  0  0
    9.3113    5.3049   14.4911 C   0  0  0  0  0  0  0  0  0  0  0  0
    9.4607    7.5646   16.0139 C   0  0  0  0  0  0  0  0  0  0  0  0
   10.4192    7.3157   15.0955 C   0  0  0  0  0  0  0  0  0  0  0  0
   10.2489    6.4227   23.0218 N   0  0  0  0  0  0  0  0  0  0  0  0
    7.2472    8.0746   23.5050 C   0  0  0  0  0  0  0  0  0  0  0  0
    9.2051    6.9101   23.4604 C   0  0  0  0  0  0  0  0  0  0  0  0
   11.9646    6.0299   21.4251 C   0  0  0  0  0  0  0  0  0  0  0  0
  1  5  1  0
  1 13  1  0
  2 20  2  0
  2 28  1  0
  2 29  1  0
  3 19  4  0
  3 25  4  0
  4 23  4  0
  4 27  1  0
  4 30  4  0
  5 17  1  0
  6  8  1  0
  6 29  1  0
  7 24  4  0
  7 26  4  0
  8 28  1  0
  9 13  2  0
 10 18  1  0
 10 21  4  0
 10 30  4  0
 11 17  2  0
 12 18  1  0
 13 15  1  0
 14 24  1  0
 15 25  1  0
 16 28  2  0
 17 20  1  0
 19 24  4  0
 20 23  1  0
 21 22  4  0
 22 23  4  0
 25 26  4  0
 27 29  2  0
M  END
$$$$

 Created by Python create_sdf_string function

 30 33  0  0  0  0  0  0  0  0999 V2000
    8.3036    9.8571   18.4133 C   0  0  0  0  0  0  0  0  0  0  0  0
    8.3694    7.6612   22.6703 C   0  0  0  0  0  0  0  0  0  0  0  0
    8.4143    6.6863   16.2273 C   0  0  0  0  0  0  0  0  0  0  0  0
   10.7581    6.5674   21.7636 C   0  0  0  0  0  0  0  0  0  0  0  0
    8.4452    8.7960   19.2958 O   0  0  0  0  0  0  0  0  0  0  0  0
    8.7122    6.7842   24.8569 C   0  0  0  0  0  0  0  0  0  0  0  0
   10.3400    6.1726   14.3081 C   0  0  0  0  0  0  0  0  0  0  0  0
    7.4297    7.5873   24.8962 C   0  0  0  0  0  0  0  0  0  0  0  0
    8.1566   10.0536   16.0516 O   0  0  0  0  0  0  0  0  0  0  0  0
   12.4989    6.2074   20.1776 C   0  0  0  0  0  0  0  0  0  0  0  0
    6.9192    9.1053   20.9073 O   0  0  0  0  0  0  0  0  0  0  0  0
   14.3979    6.0729   18.7784 C   0  0  0  0  0  0  0  0  0  0  0  0
    8.6811    9.5354   16.9998 C   0  0  0  0  0  0  0  0  0  0  0  0
    9.2512    4.2713   13.7653 O   0  0  0  0  0  0  0  0  0  0  0  0
    9.6495    8.6317   16.8332 N   0  0  0  0  0  0  0  0  0  0  0  0
    6.2934    8.6988   23.1988 O   0  0  0  0  0  0  0  0  0  0  0  0
    7.9806    8.6543   20.5437 C   0  0  0  0  0  0  0  0  0  0  0  0
   13.7270    5.7144   19.8610 O   0  0  0  0  0  0  0  0  0  0  0  0
    8.3351    5.5235   15.4478 C   0  0  0  0  0  0  0  0  0  0  0  0
    8.7700    7.8434   21.3915 C   0  0  0  0  0  0  0  0  0  0  0  0
   11.7856    6.8851   19.2401 C   0  0  0  0  0  0  0  0  0  0  0  0
   10.5281    7.4276   19.5649 C   0  0  0  0  0  0  0  0  0  0  0  0
   10.0256    7.2907   20.8484 C   0  0  0  0  0  0  0  0  0  0  0  0
    9.3113    5.3049   14.4911 C   0  0  0  0  0  0  0  0  0  0  0  0
    9.4607    7.5646   16.0139 C   0  0  0  0  0  0  0  0  0  0  0  0
   10.4192    7.3157   15.0955 C   0  0  0  0  0  0  0  0  0  0  0  0
   10.2489    6.4227   23.0218 N   0  0  0  0  0  0  0  0  0  0  0  0
    7.2472    8.0746   23.5050 C   0  0  0  0  0  0  0  0  0  0  0  0
    9.2051    6.9101   23.4604 C   0  0  0  0  0  0  0  0  0  0  0  0
   11.9646    6.0299   21.4251 C   0  0  0  0  0  0  0  0  0  0  0  0
  1  5  1  0
  1 13  1  0
  2 20  2  0
  2 28  1  0
  2 29  1  0
  3 19  4  0
  3 25  4  0
  4 23  4  0
  4 27  1  0
  4 30  4  0
  5 17  1  0
  6  8  1  0
  6 29  1  0
  7 24  4  0
  7 26  4  0
  8 28  1  0
  9 13  2  0
 10 18  1  0
 10 21  4  0
 10 30  4  0
 11 17  2  0
 12 18  1  0
 13 15  1  0
 14 24  1  0
 15 25  1  0
 16 28  2  0
 17 20  1  0
 19 24  4  0
 20 23  1  0
 21 22  4  0
 22 23  4  0
 25 26  4  0
 27 29  2  0
M  END
$$$$

 Created by Python create_sdf_string function

 30 33  0  0  0  0  0  0  0  0999 V2000
    8.3036    9.8571   18.4133 C   0  0  0  0  0  0  0  0  0  0  0  0
    8.3694    7.6612   22.6703 C   0  0  0  0  0  0  0  0  0  0  0  0
    8.4143    6.6863   16.2273 C   0  0  0  0  0  0  0  0  0  0  0  0
   10.7581    6.5674   21.7636 C   0  0  0  0  0  0  0  0  0  0  0  0
    8.4452    8.7960   19.2958 O   0  0  0  0  0  0  0  0  0  0  0  0
    8.7122    6.7842   24.8569 C   0  0  0  0  0  0  0  0  0  0  0  0
   10.3400    6.1726   14.3081 C   0  0  0  0  0  0  0  0  0  0  0  0
    7.4297    7.5873   24.8962 C   0  0  0  0  0  0  0  0  0  0  0  0
    8.1566   10.0536   16.0516 O   0  0  0  0  0  0  0  0  0  0  0  0
   12.4989    6.2074   20.1776 C   0  0  0  0  0  0  0  0  0  0  0  0
    6.9192    9.1053   20.9073 O   0  0  0  0  0  0  0  0  0  0  0  0
   14.3979    6.0729   18.7784 C   0  0  0  0  0  0  0  0  0  0  0  0
    8.6811    9.5354   16.9998 C   0  0  0  0  0  0  0  0  0  0  0  0
    9.2512    4.2713   13.7653 O   0  0  0  0  0  0  0  0  0  0  0  0
    9.6495    8.6317   16.8332 N   0  0  0  0  0  0  0  0  0  0  0  0
    6.2934    8.6988   23.1988 O   0  0  0  0  0  0  0  0  0  0  0  0
    7.9806    8.6543   20.5437 C   0  0  0  0  0  0  0  0  0  0  0  0
   13.7270    5.7144   19.8610 O   0  0  0  0  0  0  0  0  0  0  0  0
    8.3351    5.5235   15.4478 C   0  0  0  0  0  0  0  0  0  0  0  0
    8.7700    7.8434   21.3915 C   0  0  0  0  0  0  0  0  0  0  0  0
   11.7856    6.8851   19.2401 C   0  0  0  0  0  0  0  0  0  0  0  0
   10.5281    7.4276   19.5649 C   0  0  0  0  0  0  0  0  0  0  0  0
   10.0256    7.2907   20.8484 C   0  0  0  0  0  0  0  0  0  0  0  0
    9.3113    5.3049   14.4911 C   0  0  0  0  0  0  0  0  0  0  0  0
    9.4607    7.5646   16.0139 C   0  0  0  0  0  0  0  0  0  0  0  0
   10.4192    7.3157   15.0955 C   0  0  0  0  0  0  0  0  0  0  0  0
   10.2489    6.4227   23.0218 N   0  0  0  0  0  0  0  0  0  0  0  0
    7.2472    8.0746   23.5050 C   0  0  0  0  0  0  0  0  0  0  0  0
    9.2051    6.9101   23.4604 C   0  0  0  0  0  0  0  0  0  0  0  0
   11.9646    6.0299   21.4251 C   0  0  0  0  0  0  0  0  0  0  0  0
  1  5  1  0
  1 13  1  0
  2 20  2  0
  2 28  1  0
  2 29  1  0
  3 19  4  0
  3 25  4  0
  4 23  4  0
  4 27  1  0
  4 30  4  0
  5 17  1  0
  6  8  1  0
  6 29  1  0
  7 24  4  0
  7 26  4  0
  8 28  1  0
  9 13  2  0
 10 18  1  0
 10 21  4  0
 10 30  4  0
 11 17  2  0
 12 18  1  0
 13 15  1  0
 14 24  1  0
 15 25  1  0
 16 28  2  0
 17 20  1  0
 19 24  4  0
 20 23  1  0
 21 22  4  0
 22 23  4  0
 25 26  4  0
 27 29  2  0
M  END
$$$$

 Created by Python create_sdf_string function

 30 33  0  0  0  0  0  0  0  0999 V2000
    8.3036    9.8571   18.4133 C   0  0  0  0  0  0  0  0  0  0  0  0
    8.3694    7.6612   22.6703 C   0  0  0  0  0  0  0  0  0  0  0  0
    8.4143    6.6863   16.2273 C   0  0  0  0  0  0  0  0  0  0  0  0
   10.7581    6.5674   21.7636 C   0  0  0  0  0  0  0  0  0  0  0  0
    8.4452    8.7960   19.2958 O   0  0  0  0  0  0  0  0  0  0  0  0
    8.7122    6.7842   24.8569 C   0  0  0  0  0  0  0  0  0  0  0  0
   10.3400    6.1726   14.3081 C   0  0  0  0  0  0  0  0  0  0  0  0
    7.4297    7.5873   24.8962 C   0  0  0  0  0  0  0  0  0  0  0  0
    8.1566   10.0536   16.0516 O   0  0  0  0  0  0  0  0  0  0  0  0
   12.4989    6.2074   20.1776 C   0  0  0  0  0  0  0  0  0  0  0  0
    6.9192    9.1053   20.9073 O   0  0  0  0  0  0  0  0  0  0  0  0
   14.3979    6.0729   18.7784 C   0  0  0  0  0  0  0  0  0  0  0  0
    8.6811    9.5354   16.9998 C   0  0  0  0  0  0  0  0  0  0  0  0
    9.2512    4.2713   13.7653 O   0  0  0  0  0  0  0  0  0  0  0  0
    9.6495    8.6317   16.8332 N   0  0  0  0  0  0  0  0  0  0  0  0
    6.2934    8.6988   23.1988 O   0  0  0  0  0  0  0  0  0  0  0  0
    7.9806    8.6543   20.5437 C   0  0  0  0  0  0  0  0  0  0  0  0
   13.7270    5.7144   19.8610 O   0  0  0  0  0  0  0  0  0  0  0  0
    8.3351    5.5235   15.4478 C   0  0  0  0  0  0  0  0  0  0  0  0
    8.7700    7.8434   21.3915 C   0  0  0  0  0  0  0  0  0  0  0  0
   11.7856    6.8851   19.2401 C   0  0  0  0  0  0  0  0  0  0  0  0
   10.5281    7.4276   19.5649 C   0  0  0  0  0  0  0  0  0  0  0  0
   10.0256    7.2907   20.8484 C   0  0  0  0  0  0  0  0  0  0  0  0
    9.3113    5.3049   14.4911 C   0  0  0  0  0  0  0  0  0  0  0  0
    9.4607    7.5646   16.0139 C   0  0  0  0  0  0  0  0  0  0  0  0
   10.4192    7.3157   15.0955 C   0  0  0  0  0  0  0  0  0  0  0  0
   10.2489    6.4227   23.0218 N   0  0  0  0  0  0  0  0  0  0  0  0
    7.2472    8.0746   23.5050 C   0  0  0  0  0  0  0  0  0  0  0  0
    9.2051    6.9101   23.4604 C   0  0  0  0  0  0  0  0  0  0  0  0
   11.9646    6.0299   21.4251 C   0  0  0  0  0  0  0  0  0  0  0  0
  1  5  1  0
  1 13  1  0
  2 20  2  0
  2 28  1  0
  2 29  1  0
  3 19  4  0
  3 25  4  0
  4 23  4  0
  4 27  1  0
  4 30  4  0
  5 17  1  0
  6  8  1  0
  6 29  1  0
  7 24  4  0
  7 26  4  0
  8 28  1  0
  9 13  2  0
 10 18  1  0
 10 21  4  0
 10 30  4  0
 11 17  2  0
 12 18  1  0
 13 15  1  0
 14 24  1  0
 15 25  1  0
 16 28  2  0
 17 20  1  0
 19 24  4  0
 20 23  1  0
 21 22  4  0
 22 23  4  0
 25 26  4  0
 27 29  2  0
M  END
$$$$

 Created by Python create_sdf_string function

 30 33  0  0  0  0  0  0  0  0999 V2000
    8.3036    9.8571   18.4133 C   0  0  0  0  0  0  0  0  0  0  0  0
    8.3694    7.6612   22.6703 C   0  0  0  0  0  0  0  0  0  0  0  0
    8.4143    6.6863   16.2273 C   0  0  0  0  0  0  0  0  0  0  0  0
   10.7581    6.5674   21.7636 C   0  0  0  0  0  0  0  0  0  0  0  0
    8.4452    8.7960   19.2958 O   0  0  0  0  0  0  0  0  0  0  0  0
    8.7122    6.7842   24.8569 C   0  0  0  0  0  0  0  0  0  0  0  0
   10.3400    6.1726   14.3081 C   0  0  0  0  0  0  0  0  0  0  0  0
    7.4297    7.5873   24.8962 C   0  0  0  0  0  0  0  0  0  0  0  0
    8.1566   10.0536   16.0516 O   0  0  0  0  0  0  0  0  0  0  0  0
   12.4989    6.2074   20.1776 C   0  0  0  0  0  0  0  0  0  0  0  0
    6.9192    9.1053   20.9073 O   0  0  0  0  0  0  0  0  0  0  0  0
   14.3979    6.0729   18.7784 C   0  0  0  0  0  0  0  0  0  0  0  0
    8.6811    9.5354   16.9998 C   0  0  0  0  0  0  0  0  0  0  0  0
    9.2512    4.2713   13.7653 O   0  0  0  0  0  0  0  0  0  0  0  0
    9.6495    8.6317   16.8332 N   0  0  0  0  0  0  0  0  0  0  0  0
    6.2934    8.6988   23.1988 O   0  0  0  0  0  0  0  0  0  0  0  0
    7.9806    8.6543   20.5437 C   0  0  0  0  0  0  0  0  0  0  0  0
   13.7270    5.7144   19.8610 O   0  0  0  0  0  0  0  0  0  0  0  0
    8.3351    5.5235   15.4478 C   0  0  0  0  0  0  0  0  0  0  0  0
    8.7700    7.8434   21.3915 C   0  0  0  0  0  0  0  0  0  0  0  0
   11.7856    6.8851   19.2401 C   0  0  0  0  0  0  0  0  0  0  0  0
   10.5281    7.4276   19.5649 C   0  0  0  0  0  0  0  0  0  0  0  0
   10.0256    7.2907   20.8484 C   0  0  0  0  0  0  0  0  0  0  0  0
    9.3113    5.3049   14.4911 C   0  0  0  0  0  0  0  0  0  0  0  0
    9.4607    7.5646   16.0139 C   0  0  0  0  0  0  0  0  0  0  0  0
   10.4192    7.3157   15.0955 C   0  0  0  0  0  0  0  0  0  0  0  0
   10.2489    6.4227   23.0218 N   0  0  0  0  0  0  0  0  0  0  0  0
    7.2472    8.0746   23.5050 C   0  0  0  0  0  0  0  0  0  0  0  0
    9.2051    6.9101   23.4604 C   0  0  0  0  0  0  0  0  0  0  0  0
   11.9646    6.0299   21.4251 C   0  0  0  0  0  0  0  0  0  0  0  0
  1  5  1  0
  1 13  1  0
  2 20  2  0
  2 28  1  0
  2 29  1  0
  3 19  4  0
  3 25  4  0
  4 23  4  0
  4 27  1  0
  4 30  4  0
  5 17  1  0
  6  8  1  0
  6 29  1  0
  7 24  4  0
  7 26  4  0
  8 28  1  0
  9 13  2  0
 10 18  1  0
 10 21  4  0
 10 30  4  0
 11 17  2  0
 12 18  1  0
 13 15  1  0
 14 24  1  0
 15 25  1  0
 16 28  2  0
 17 20  1  0
 19 24  4  0
 20 23  1  0
 21 22  4  0
 22 23  4  0
 25 26  4  0
 27 29  2  0
M  END
$$$$

 Created by Python create_sdf_string function

 30 33  0  0  0  0  0  0  0  0999 V2000
    8.3036    9.8571   18.4133 C   0  0  0  0  0  0  0  0  0  0  0  0
    8.3694    7.6612   22.6703 C   0  0  0  0  0  0  0  0  0  0  0  0
    8.4143    6.6863   16.2273 C   0  0  0  0  0  0  0  0  0  0  0  0
   10.7581    6.5674   21.7636 C   0  0  0  0  0  0  0  0  0  0  0  0
    8.4452    8.7960   19.2958 O   0  0  0  0  0  0  0  0  0  0  0  0
    8.7122    6.7842   24.8569 C   0  0  0  0  0  0  0  0  0  0  0  0
   10.3400    6.1726   14.3081 C   0  0  0  0  0  0  0  0  0  0  0  0
    7.4297    7.5873   24.8962 C   0  0  0  0  0  0  0  0  0  0  0  0
    8.1566   10.0536   16.0516 O   0  0  0  0  0  0  0  0  0  0  0  0
   12.4989    6.2074   20.1776 C   0  0  0  0  0  0  0  0  0  0  0  0
    6.9192    9.1053   20.9073 O   0  0  0  0  0  0  0  0  0  0  0  0
   14.3979    6.0729   18.7784 C   0  0  0  0  0  0  0  0  0  0  0  0
    8.6811    9.5354   16.9998 C   0  0  0  0  0  0  0  0  0  0  0  0
    9.2512    4.2713   13.7653 O   0  0  0  0  0  0  0  0  0  0  0  0
    9.6495    8.6317   16.8332 N   0  0  0  0  0  0  0  0  0  0  0  0
    6.2934    8.6988   23.1988 O   0  0  0  0  0  0  0  0  0  0  0  0
    7.9806    8.6543   20.5437 C   0  0  0  0  0  0  0  0  0  0  0  0
   13.7270    5.7144   19.8610 O   0  0  0  0  0  0  0  0  0  0  0  0
    8.3351    5.5235   15.4478 C   0  0  0  0  0  0  0  0  0  0  0  0
    8.7700    7.8434   21.3915 C   0  0  0  0  0  0  0  0  0  0  0  0
   11.7856    6.8851   19.2401 C   0  0  0  0  0  0  0  0  0  0  0  0
   10.5281    7.4276   19.5649 C   0  0  0  0  0  0  0  0  0  0  0  0
   10.0256    7.2907   20.8484 C   0  0  0  0  0  0  0  0  0  0  0  0
    9.3113    5.3049   14.4911 C   0  0  0  0  0  0  0  0  0  0  0  0
    9.4607    7.5646   16.0139 C   0  0  0  0  0  0  0  0  0  0  0  0
   10.4192    7.3157   15.0955 C   0  0  0  0  0  0  0  0  0  0  0  0
   10.2489    6.4227   23.0218 N   0  0  0  0  0  0  0  0  0  0  0  0
    7.2472    8.0746   23.5050 C   0  0  0  0  0  0  0  0  0  0  0  0
    9.2051    6.9101   23.4604 C   0  0  0  0  0  0  0  0  0  0  0  0
   11.9646    6.0299   21.4251 C   0  0  0  0  0  0  0  0  0  0  0  0
  1  5  1  0
  1 13  1  0
  2 20  2  0
  2 28  1  0
  2 29  1  0
  3 19  4  0
  3 25  4  0
  4 23  4  0
  4 27  1  0
  4 30  4  0
  5 17  1  0
  6  8  1  0
  6 29  1  0
  7 24  4  0
  7 26  4  0
  8 28  1  0
  9 13  2  0
 10 18  1  0
 10 21  4  0
 10 30  4  0
 11 17  2  0
 12 18  1  0
 13 15  1  0
 14 24  1  0
 15 25  1  0
 16 28  2  0
 17 20  1  0
 19 24  4  0
 20 23  1  0
 21 22  4  0
 22 23  4  0
 25 26  4  0
 27 29  2  0
M  END
$$$$

 Created by Python create_sdf_string function

 30 33  0  0  0  0  0  0  0  0999 V2000
    8.3036    9.8571   18.4133 C   0  0  0  0  0  0  0  0  0  0  0  0
    8.3694    7.6612   22.6703 C   0  0  0  0  0  0  0  0  0  0  0  0
    8.4143    6.6863   16.2273 C   0  0  0  0  0  0  0  0  0  0  0  0
   10.7581    6.5674   21.7636 C   0  0  0  0  0  0  0  0  0  0  0  0
    8.4452    8.7960   19.2958 O   0  0  0  0  0  0  0  0  0  0  0  0
    8.7122    6.7842   24.8569 C   0  0  0  0  0  0  0  0  0  0  0  0
   10.3400    6.1726   14.3081 C   0  0  0  0  0  0  0  0  0  0  0  0
    7.4297    7.5873   24.8962 C   0  0  0  0  0  0  0  0  0  0  0  0
    8.1566   10.0536   16.0516 O   0  0  0  0  0  0  0  0  0  0  0  0
   12.4989    6.2074   20.1776 C   0  0  0  0  0  0  0  0  0  0  0  0
    6.9192    9.1053   20.9073 O   0  0  0  0  0  0  0  0  0  0  0  0
   14.3979    6.0729   18.7784 C   0  0  0  0  0  0  0  0  0  0  0  0
    8.6811    9.5354   16.9998 C   0  0  0  0  0  0  0  0  0  0  0  0
    9.2512    4.2713   13.7653 O   0  0  0  0  0  0  0  0  0  0  0  0
    9.6495    8.6317   16.8332 N   0  0  0  0  0  0  0  0  0  0  0  0
    6.2934    8.6988   23.1988 O   0  0  0  0  0  0  0  0  0  0  0  0
    7.9806    8.6543   20.5437 C   0  0  0  0  0  0  0  0  0  0  0  0
   13.7270    5.7144   19.8610 O   0  0  0  0  0  0  0  0  0  0  0  0
    8.3351    5.5235   15.4478 C   0  0  0  0  0  0  0  0  0  0  0  0
    8.7700    7.8434   21.3915 C   0  0  0  0  0  0  0  0  0  0  0  0
   11.7856    6.8851   19.2401 C   0  0  0  0  0  0  0  0  0  0  0  0
   10.5281    7.4276   19.5649 C   0  0  0  0  0  0  0  0  0  0  0  0
   10.0256    7.2907   20.8484 C   0  0  0  0  0  0  0  0  0  0  0  0
    9.3113    5.3049   14.4911 C   0  0  0  0  0  0  0  0  0  0  0  0
    9.4607    7.5646   16.0139 C   0  0  0  0  0  0  0  0  0  0  0  0
   10.4192    7.3157   15.0955 C   0  0  0  0  0  0  0  0  0  0  0  0
   10.2489    6.4227   23.0218 N   0  0  0  0  0  0  0  0  0  0  0  0
    7.2472    8.0746   23.5050 C   0  0  0  0  0  0  0  0  0  0  0  0
    9.2051    6.9101   23.4604 C   0  0  0  0  0  0  0  0  0  0  0  0
   11.9646    6.0299   21.4251 C   0  0  0  0  0  0  0  0  0  0  0  0
  1  5  1  0
  1 13  1  0
  2 20  2  0
  2 28  1  0
  2 29  1  0
  3 19  4  0
  3 25  4  0
  4 23  4  0
  4 27  1  0
  4 30  4  0
  5 17  1  0
  6  8  1  0
  6 29  1  0
  7 24  4  0
  7 26  4  0
  8 28  1  0
  9 13  2  0
 10 18  1  0
 10 21  4  0
 10 30  4  0
 11 17  2  0
 12 18  1  0
 13 15  1  0
 14 24  1  0
 15 25  1  0
 16 28  2  0
 17 20  1  0
 19 24  4  0
 20 23  1  0
 21 22  4  0
 22 23  4  0
 25 26  4  0
 27 29  2  0
M  END
$$$$

 Created by Python create_sdf_string function

 30 33  0  0  0  0  0  0  0  0999 V2000
    8.3036    9.8571   18.4133 C   0  0  0  0  0  0  0  0  0  0  0  0
    8.3694    7.6612   22.6703 C   0  0  0  0  0  0  0  0  0  0  0  0
    8.4143    6.6863   16.2273 C   0  0  0  0  0  0  0  0  0  0  0  0
   10.7581    6.5674   21.7636 C   0  0  0  0  0  0  0  0  0  0  0  0
    8.4452    8.7960   19.2958 O   0  0  0  0  0  0  0  0  0  0  0  0
    8.7122    6.7842   24.8569 C   0  0  0  0  0  0  0  0  0  0  0  0
   10.3400    6.1726   14.3081 C   0  0  0  0  0  0  0  0  0  0  0  0
    7.4297    7.5873   24.8962 C   0  0  0  0  0  0  0  0  0  0  0  0
    8.1566   10.0536   16.0516 O   0  0  0  0  0  0  0  0  0  0  0  0
   12.4989    6.2074   20.1776 C   0  0  0  0  0  0  0  0  0  0  0  0
    6.9192    9.1053   20.9073 O   0  0  0  0  0  0  0  0  0  0  0  0
   14.3979    6.0729   18.7784 C   0  0  0  0  0  0  0  0  0  0  0  0
    8.6811    9.5354   16.9998 C   0  0  0  0  0  0  0  0  0  0  0  0
    9.2512    4.2713   13.7653 O   0  0  0  0  0  0  0  0  0  0  0  0
    9.6495    8.6317   16.8332 N   0  0  0  0  0  0  0  0  0  0  0  0
    6.2934    8.6988   23.1988 O   0  0  0  0  0  0  0  0  0  0  0  0
    7.9806    8.6543   20.5437 C   0  0  0  0  0  0  0  0  0  0  0  0
   13.7270    5.7144   19.8610 O   0  0  0  0  0  0  0  0  0  0  0  0
    8.3351    5.5235   15.4478 C   0  0  0  0  0  0  0  0  0  0  0  0
    8.7700    7.8434   21.3915 C   0  0  0  0  0  0  0  0  0  0  0  0
   11.7856    6.8851   19.2401 C   0  0  0  0  0  0  0  0  0  0  0  0
   10.5281    7.4276   19.5649 C   0  0  0  0  0  0  0  0  0  0  0  0
   10.0256    7.2907   20.8484 C   0  0  0  0  0  0  0  0  0  0  0  0
    9.3113    5.3049   14.4911 C   0  0  0  0  0  0  0  0  0  0  0  0
    9.4607    7.5646   16.0139 C   0  0  0  0  0  0  0  0  0  0  0  0
   10.4192    7.3157   15.0955 C   0  0  0  0  0  0  0  0  0  0  0  0
   10.2489    6.4227   23.0218 N   0  0  0  0  0  0  0  0  0  0  0  0
    7.2472    8.0746   23.5050 C   0  0  0  0  0  0  0  0  0  0  0  0
    9.2051    6.9101   23.4604 C   0  0  0  0  0  0  0  0  0  0  0  0
   11.9646    6.0299   21.4251 C   0  0  0  0  0  0  0  0  0  0  0  0
  1  5  1  0
  1 13  1  0
  2 20  2  0
  2 28  1  0
  2 29  1  0
  3 19  4  0
  3 25  4  0
  4 23  4  0
  4 27  1  0
  4 30  4  0
  5 17  1  0
  6  8  1  0
  6 29  1  0
  7 24  4  0
  7 26  4  0
  8 28  1  0
  9 13  2  0
 10 18  1  0
 10 21  4  0
 10 30  4  0
 11 17  2  0
 12 18  1  0
 13 15  1  0
 14 24  1  0
 15 25  1  0
 16 28  2  0
 17 20  1  0
 19 24  4  0
 20 23  1  0
 21 22  4  0
 22 23  4  0
 25 26  4  0
 27 29  2  0
M  END
$$$$

 Created by Python create_sdf_string function

 30 33  0  0  0  0  0  0  0  0999 V2000
    8.3036    9.8571   18.4133 C   0  0  0  0  0  0  0  0  0  0  0  0
    8.3694    7.6612   22.6703 C   0  0  0  0  0  0  0  0  0  0  0  0
    8.4143    6.6863   16.2273 C   0  0  0  0  0  0  0  0  0  0  0  0
   10.7581    6.5674   21.7636 C   0  0  0  0  0  0  0  0  0  0  0  0
    8.4452    8.7960   19.2958 O   0  0  0  0  0  0  0  0  0  0  0  0
    8.7122    6.7842   24.8569 C   0  0  0  0  0  0  0  0  0  0  0  0
   10.3400    6.1726   14.3081 C   0  0  0  0  0  0  0  0  0  0  0  0
    7.4297    7.5873   24.8962 C   0  0  0  0  0  0  0  0  0  0  0  0
    8.1566   10.0536   16.0516 O   0  0  0  0  0  0  0  0  0  0  0  0
   12.4989    6.2074   20.1776 C   0  0  0  0  0  0  0  0  0  0  0  0
    6.9192    9.1053   20.9073 O   0  0  0  0  0  0  0  0  0  0  0  0
   14.3979    6.0729   18.7784 C   0  0  0  0  0  0  0  0  0  0  0  0
    8.6811    9.5354   16.9998 C   0  0  0  0  0  0  0  0  0  0  0  0
    9.2512    4.2713   13.7653 O   0  0  0  0  0  0  0  0  0  0  0  0
    9.6495    8.6317   16.8332 N   0  0  0  0  0  0  0  0  0  0  0  0
    6.2934    8.6988   23.1988 O   0  0  0  0  0  0  0  0  0  0  0  0
    7.9806    8.6543   20.5437 C   0  0  0  0  0  0  0  0  0  0  0  0
   13.7270    5.7144   19.8610 O   0  0  0  0  0  0  0  0  0  0  0  0
    8.3351    5.5235   15.4478 C   0  0  0  0  0  0  0  0  0  0  0  0
    8.7700    7.8434   21.3915 C   0  0  0  0  0  0  0  0  0  0  0  0
   11.7856    6.8851   19.2401 C   0  0  0  0  0  0  0  0  0  0  0  0
   10.5281    7.4276   19.5649 C   0  0  0  0  0  0  0  0  0  0  0  0
   10.0256    7.2907   20.8484 C   0  0  0  0  0  0  0  0  0  0  0  0
    9.3113    5.3049   14.4911 C   0  0  0  0  0  0  0  0  0  0  0  0
    9.4607    7.5646   16.0139 C   0  0  0  0  0  0  0  0  0  0  0  0
   10.4192    7.3157   15.0955 C   0  0  0  0  0  0  0  0  0  0  0  0
   10.2489    6.4227   23.0218 N   0  0  0  0  0  0  0  0  0  0  0  0
    7.2472    8.0746   23.5050 C   0  0  0  0  0  0  0  0  0  0  0  0
    9.2051    6.9101   23.4604 C   0  0  0  0  0  0  0  0  0  0  0  0
   11.9646    6.0299   21.4251 C   0  0  0  0  0  0  0  0  0  0  0  0
  1  5  1  0
  1 13  1  0
  2 20  2  0
  2 28  1  0
  2 29  1  0
  3 19  4  0
  3 25  4  0
  4 23  4  0
  4 27  1  0
  4 30  4  0
  5 17  1  0
  6  8  1  0
  6 29  1  0
  7 24  4  0
  7 26  4  0
  8 28  1  0
  9 13  2  0
 10 18  1  0
 10 21  4  0
 10 30  4  0
 11 17  2  0
 12 18  1  0
 13 15  1  0
 14 24  1  0
 15 25  1  0
 16 28  2  0
 17 20  1  0
 19 24  4  0
 20 23  1  0
 21 22  4  0
 22 23  4  0
 25 26  4  0
 27 29  2  0
M  END
$$$$

 Created by Python create_sdf_string function

 30 33  0  0  0  0  0  0  0  0999 V2000
    8.3036    9.8571   18.4133 C   0  0  0  0  0  0  0  0  0  0  0  0
    8.3694    7.6612   22.6703 C   0  0  0  0  0  0  0  0  0  0  0  0
    8.4143    6.6863   16.2273 C   0  0  0  0  0  0  0  0  0  0  0  0
   10.7581    6.5674   21.7636 C   0  0  0  0  0  0  0  0  0  0  0  0
    8.4452    8.7960   19.2958 O   0  0  0  0  0  0  0  0  0  0  0  0
    8.7122    6.7842   24.8569 C   0  0  0  0  0  0  0  0  0  0  0  0
   10.3400    6.1726   14.3081 C   0  0  0  0  0  0  0  0  0  0  0  0
    7.4297    7.5873   24.8962 C   0  0  0  0  0  0  0  0  0  0  0  0
    8.1566   10.0536   16.0516 O   0  0  0  0  0  0  0  0  0  0  0  0
   12.4989    6.2074   20.1776 C   0  0  0  0  0  0  0  0  0  0  0  0
    6.9192    9.1053   20.9073 O   0  0  0  0  0  0  0  0  0  0  0  0
   14.3979    6.0729   18.7784 C   0  0  0  0  0  0  0  0  0  0  0  0
    8.6811    9.5354   16.9998 C   0  0  0  0  0  0  0  0  0  0  0  0
    9.2512    4.2713   13.7653 O   0  0  0  0  0  0  0  0  0  0  0  0
    9.6495    8.6317   16.8332 N   0  0  0  0  0  0  0  0  0  0  0  0
    6.2934    8.6988   23.1988 O   0  0  0  0  0  0  0  0  0  0  0  0
    7.9806    8.6543   20.5437 C   0  0  0  0  0  0  0  0  0  0  0  0
   13.7270    5.7144   19.8610 O   0  0  0  0  0  0  0  0  0  0  0  0
    8.3351    5.5235   15.4478 C   0  0  0  0  0  0  0  0  0  0  0  0
    8.7700    7.8434   21.3915 C   0  0  0  0  0  0  0  0  0  0  0  0
   11.7856    6.8851   19.2401 C   0  0  0  0  0  0  0  0  0  0  0  0
   10.5281    7.4276   19.5649 C   0  0  0  0  0  0  0  0  0  0  0  0
   10.0256    7.2907   20.8484 C   0  0  0  0  0  0  0  0  0  0  0  0
    9.3113    5.3049   14.4911 C   0  0  0  0  0  0  0  0  0  0  0  0
    9.4607    7.5646   16.0139 C   0  0  0  0  0  0  0  0  0  0  0  0
   10.4192    7.3157   15.0955 C   0  0  0  0  0  0  0  0  0  0  0  0
   10.2489    6.4227   23.0218 N   0  0  0  0  0  0  0  0  0  0  0  0
    7.2472    8.0746   23.5050 C   0  0  0  0  0  0  0  0  0  0  0  0
    9.2051    6.9101   23.4604 C   0  0  0  0  0  0  0  0  0  0  0  0
   11.9646    6.0299   21.4251 C   0  0  0  0  0  0  0  0  0  0  0  0
  1  5  1  0
  1 13  1  0
  2 20  2  0
  2 28  1  0
  2 29  1  0
  3 19  4  0
  3 25  4  0
  4 23  4  0
  4 27  1  0
  4 30  4  0
  5 17  1  0
  6  8  1  0
  6 29  1  0
  7 24  4  0
  7 26  4  0
  8 28  1  0
  9 13  2  0
 10 18  1  0
 10 21  4  0
 10 30  4  0
 11 17  2  0
 12 18  1  0
 13 15  1  0
 14 24  1  0
 15 25  1  0
 16 28  2  0
 17 20  1  0
 19 24  4  0
 20 23  1  0
 21 22  4  0
 22 23  4  0
 25 26  4  0
 27 29  2  0
M  END
$$$$

 Created by Python create_sdf_string function

 30 33  0  0  0  0  0  0  0  0999 V2000
    8.3036    9.8571   18.4133 C   0  0  0  0  0  0  0  0  0  0  0  0
    8.3694    7.6612   22.6703 C   0  0  0  0  0  0  0  0  0  0  0  0
    8.4143    6.6863   16.2273 C   0  0  0  0  0  0  0  0  0  0  0  0
   10.7581    6.5674   21.7636 C   0  0  0  0  0  0  0  0  0  0  0  0
    8.4452    8.7960   19.2958 O   0  0  0  0  0  0  0  0  0  0  0  0
    8.7122    6.7842   24.8569 C   0  0  0  0  0  0  0  0  0  0  0  0
   10.3400    6.1726   14.3081 C   0  0  0  0  0  0  0  0  0  0  0  0
    7.4297    7.5873   24.8962 C   0  0  0  0  0  0  0  0  0  0  0  0
    8.1566   10.0536   16.0516 O   0  0  0  0  0  0  0  0  0  0  0  0
   12.4989    6.2074   20.1776 C   0  0  0  0  0  0  0  0  0  0  0  0
    6.9192    9.1053   20.9073 O   0  0  0  0  0  0  0  0  0  0  0  0
   14.3979    6.0729   18.7784 C   0  0  0  0  0  0  0  0  0  0  0  0
    8.6811    9.5354   16.9998 C   0  0  0  0  0  0  0  0  0  0  0  0
    9.2512    4.2713   13.7653 O   0  0  0  0  0  0  0  0  0  0  0  0
    9.6495    8.6317   16.8332 N   0  0  0  0  0  0  0  0  0  0  0  0
    6.2934    8.6988   23.1988 O   0  0  0  0  0  0  0  0  0  0  0  0
    7.9806    8.6543   20.5437 C   0  0  0  0  0  0  0  0  0  0  0  0
   13.7270    5.7144   19.8610 O   0  0  0  0  0  0  0  0  0  0  0  0
    8.3351    5.5235   15.4478 C   0  0  0  0  0  0  0  0  0  0  0  0
    8.7700    7.8434   21.3915 C   0  0  0  0  0  0  0  0  0  0  0  0
   11.7856    6.8851   19.2401 C   0  0  0  0  0  0  0  0  0  0  0  0
   10.5281    7.4276   19.5649 C   0  0  0  0  0  0  0  0  0  0  0  0
   10.0256    7.2907   20.8484 C   0  0  0  0  0  0  0  0  0  0  0  0
    9.3113    5.3049   14.4911 C   0  0  0  0  0  0  0  0  0  0  0  0
    9.4607    7.5646   16.0139 C   0  0  0  0  0  0  0  0  0  0  0  0
   10.4192    7.3157   15.0955 C   0  0  0  0  0  0  0  0  0  0  0  0
   10.2489    6.4227   23.0218 N   0  0  0  0  0  0  0  0  0  0  0  0
    7.2472    8.0746   23.5050 C   0  0  0  0  0  0  0  0  0  0  0  0
    9.2051    6.9101   23.4604 C   0  0  0  0  0  0  0  0  0  0  0  0
   11.9646    6.0299   21.4251 C   0  0  0  0  0  0  0  0  0  0  0  0
  1  5  1  0
  1 13  1  0
  2 20  2  0
  2 28  1  0
  2 29  1  0
  3 19  4  0
  3 25  4  0
  4 23  4  0
  4 27  1  0
  4 30  4  0
  5 17  1  0
  6  8  1  0
  6 29  1  0
  7 24  4  0
  7 26  4  0
  8 28  1  0
  9 13  2  0
 10 18  1  0
 10 21  4  0
 10 30  4  0
 11 17  2  0
 12 18  1  0
 13 15  1  0
 14 24  1  0
 15 25  1  0
 16 28  2  0
 17 20  1  0
 19 24  4  0
 20 23  1  0
 21 22  4  0
 22 23  4  0
 25 26  4  0
 27 29  2  0
M  END
$$$$

 Created by Python create_sdf_string function

 30 33  0  0  0  0  0  0  0  0999 V2000
    8.3036    9.8571   18.4133 C   0  0  0  0  0  0  0  0  0  0  0  0
    8.3694    7.6612   22.6703 C   0  0  0  0  0  0  0  0  0  0  0  0
    8.4143    6.6863   16.2273 C   0  0  0  0  0  0  0  0  0  0  0  0
   10.7581    6.5674   21.7636 C   0  0  0  0  0  0  0  0  0  0  0  0
    8.4452    8.7960   19.2958 O   0  0  0  0  0  0  0  0  0  0  0  0
    8.7122    6.7842   24.8569 C   0  0  0  0  0  0  0  0  0  0  0  0
   10.3400    6.1726   14.3081 C   0  0  0  0  0  0  0  0  0  0  0  0
    7.4297    7.5873   24.8962 C   0  0  0  0  0  0  0  0  0  0  0  0
    8.1566   10.0536   16.0516 O   0  0  0  0  0  0  0  0  0  0  0  0
   12.4989    6.2074   20.1776 C   0  0  0  0  0  0  0  0  0  0  0  0
    6.9192    9.1053   20.9073 O   0  0  0  0  0  0  0  0  0  0  0  0
   14.3979    6.0729   18.7784 C   0  0  0  0  0  0  0  0  0  0  0  0
    8.6811    9.5354   16.9998 C   0  0  0  0  0  0  0  0  0  0  0  0
    9.2512    4.2713   13.7653 O   0  0  0  0  0  0  0  0  0  0  0  0
    9.6495    8.6317   16.8332 N   0  0  0  0  0  0  0  0  0  0  0  0
    6.2934    8.6988   23.1988 O   0  0  0  0  0  0  0  0  0  0  0  0
    7.9806    8.6543   20.5437 C   0  0  0  0  0  0  0  0  0  0  0  0
   13.7270    5.7144   19.8610 O   0  0  0  0  0  0  0  0  0  0  0  0
    8.3351    5.5235   15.4478 C   0  0  0  0  0  0  0  0  0  0  0  0
    8.7700    7.8434   21.3915 C   0  0  0  0  0  0  0  0  0  0  0  0
   11.7856    6.8851   19.2401 C   0  0  0  0  0  0  0  0  0  0  0  0
   10.5281    7.4276   19.5649 C   0  0  0  0  0  0  0  0  0  0  0  0
   10.0256    7.2907   20.8484 C   0  0  0  0  0  0  0  0  0  0  0  0
    9.3113    5.3049   14.4911 C   0  0  0  0  0  0  0  0  0  0  0  0
    9.4607    7.5646   16.0139 C   0  0  0  0  0  0  0  0  0  0  0  0
   10.4192    7.3157   15.0955 C   0  0  0  0  0  0  0  0  0  0  0  0
   10.2489    6.4227   23.0218 N   0  0  0  0  0  0  0  0  0  0  0  0
    7.2472    8.0746   23.5050 C   0  0  0  0  0  0  0  0  0  0  0  0
    9.2051    6.9101   23.4604 C   0  0  0  0  0  0  0  0  0  0  0  0
   11.9646    6.0299   21.4251 C   0  0  0  0  0  0  0  0  0  0  0  0
  1  5  1  0
  1 13  1  0
  2 20  2  0
  2 28  1  0
  2 29  1  0
  3 19  4  0
  3 25  4  0
  4 23  4  0
  4 27  1  0
  4 30  4  0
  5 17  1  0
  6  8  1  0
  6 29  1  0
  7 24  4  0
  7 26  4  0
  8 28  1  0
  9 13  2  0
 10 18  1  0
 10 21  4  0
 10 30  4  0
 11 17  2  0
 12 18  1  0
 13 15  1  0
 14 24  1  0
 15 25  1  0
 16 28  2  0
 17 20  1  0
 19 24  4  0
 20 23  1  0
 21 22  4  0
 22 23  4  0
 25 26  4  0
 27 29  2  0
M  END
$$$$

 Created by Python create_sdf_string function

 30 33  0  0  0  0  0  0  0  0999 V2000
    8.3036    9.8571   18.4133 C   0  0  0  0  0  0  0  0  0  0  0  0
    8.3694    7.6612   22.6703 C   0  0  0  0  0  0  0  0  0  0  0  0
    8.4143    6.6863   16.2273 C   0  0  0  0  0  0  0  0  0  0  0  0
   10.7581    6.5674   21.7636 C   0  0  0  0  0  0  0  0  0  0  0  0
    8.4452    8.7960   19.2958 O   0  0  0  0  0  0  0  0  0  0  0  0
    8.7122    6.7842   24.8569 C   0  0  0  0  0  0  0  0  0  0  0  0
   10.3400    6.1726   14.3081 C   0  0  0  0  0  0  0  0  0  0  0  0
    7.4297    7.5873   24.8962 C   0  0  0  0  0  0  0  0  0  0  0  0
    8.1566   10.0536   16.0516 O   0  0  0  0  0  0  0  0  0  0  0  0
   12.4989    6.2074   20.1776 C   0  0  0  0  0  0  0  0  0  0  0  0
    6.9192    9.1053   20.9073 O   0  0  0  0  0  0  0  0  0  0  0  0
   14.3979    6.0729   18.7784 C   0  0  0  0  0  0  0  0  0  0  0  0
    8.6811    9.5354   16.9998 C   0  0  0  0  0  0  0  0  0  0  0  0
    9.2512    4.2713   13.7653 O   0  0  0  0  0  0  0  0  0  0  0  0
    9.6495    8.6317   16.8332 N   0  0  0  0  0  0  0  0  0  0  0  0
    6.2934    8.6988   23.1988 O   0  0  0  0  0  0  0  0  0  0  0  0
    7.9806    8.6543   20.5437 C   0  0  0  0  0  0  0  0  0  0  0  0
   13.7270    5.7144   19.8610 O   0  0  0  0  0  0  0  0  0  0  0  0
    8.3351    5.5235   15.4478 C   0  0  0  0  0  0  0  0  0  0  0  0
    8.7700    7.8434   21.3915 C   0  0  0  0  0  0  0  0  0  0  0  0
   11.7856    6.8851   19.2401 C   0  0  0  0  0  0  0  0  0  0  0  0
   10.5281    7.4276   19.5649 C   0  0  0  0  0  0  0  0  0  0  0  0
   10.0256    7.2907   20.8484 C   0  0  0  0  0  0  0  0  0  0  0  0
    9.3113    5.3049   14.4911 C   0  0  0  0  0  0  0  0  0  0  0  0
    9.4607    7.5646   16.0139 C   0  0  0  0  0  0  0  0  0  0  0  0
   10.4192    7.3157   15.0955 C   0  0  0  0  0  0  0  0  0  0  0  0
   10.2489    6.4227   23.0218 N   0  0  0  0  0  0  0  0  0  0  0  0
    7.2472    8.0746   23.5050 C   0  0  0  0  0  0  0  0  0  0  0  0
    9.2051    6.9101   23.4604 C   0  0  0  0  0  0  0  0  0  0  0  0
   11.9646    6.0299   21.4251 C   0  0  0  0  0  0  0  0  0  0  0  0
  1  5  1  0
  1 13  1  0
  2 20  2  0
  2 28  1  0
  2 29  1  0
  3 19  4  0
  3 25  4  0
  4 23  4  0
  4 27  1  0
  4 30  4  0
  5 17  1  0
  6  8  1  0
  6 29  1  0
  7 24  4  0
  7 26  4  0
  8 28  1  0
  9 13  2  0
 10 18  1  0
 10 21  4  0
 10 30  4  0
 11 17  2  0
 12 18  1  0
 13 15  1  0
 14 24  1  0
 15 25  1  0
 16 28  2  0
 17 20  1  0
 19 24  4  0
 20 23  1  0
 21 22  4  0
 22 23  4  0
 25 26  4  0
 27 29  2  0
M  END
$$$$

 Created by Python create_sdf_string function

 30 33  0  0  0  0  0  0  0  0999 V2000
    8.3036    9.8571   18.4133 C   0  0  0  0  0  0  0  0  0  0  0  0
    8.3694    7.6612   22.6703 C   0  0  0  0  0  0  0  0  0  0  0  0
    8.4143    6.6863   16.2273 C   0  0  0  0  0  0  0  0  0  0  0  0
   10.7581    6.5674   21.7636 C   0  0  0  0  0  0  0  0  0  0  0  0
    8.4452    8.7960   19.2958 O   0  0  0  0  0  0  0  0  0  0  0  0
    8.7122    6.7842   24.8569 C   0  0  0  0  0  0  0  0  0  0  0  0
   10.3400    6.1726   14.3081 C   0  0  0  0  0  0  0  0  0  0  0  0
    7.4297    7.5873   24.8962 C   0  0  0  0  0  0  0  0  0  0  0  0
    8.1566   10.0536   16.0516 O   0  0  0  0  0  0  0  0  0  0  0  0
   12.4989    6.2074   20.1776 C   0  0  0  0  0  0  0  0  0  0  0  0
    6.9192    9.1053   20.9073 O   0  0  0  0  0  0  0  0  0  0  0  0
   14.3979    6.0729   18.7784 C   0  0  0  0  0  0  0  0  0  0  0  0
    8.6811    9.5354   16.9998 C   0  0  0  0  0  0  0  0  0  0  0  0
    9.2512    4.2713   13.7653 O   0  0  0  0  0  0  0  0  0  0  0  0
    9.6495    8.6317   16.8332 N   0  0  0  0  0  0  0  0  0  0  0  0
    6.2934    8.6988   23.1988 O   0  0  0  0  0  0  0  0  0  0  0  0
    7.9806    8.6543   20.5437 C   0  0  0  0  0  0  0  0  0  0  0  0
   13.7270    5.7144   19.8610 O   0  0  0  0  0  0  0  0  0  0  0  0
    8.3351    5.5235   15.4478 C   0  0  0  0  0  0  0  0  0  0  0  0
    8.7700    7.8434   21.3915 C   0  0  0  0  0  0  0  0  0  0  0  0
   11.7856    6.8851   19.2401 C   0  0  0  0  0  0  0  0  0  0  0  0
   10.5281    7.4276   19.5649 C   0  0  0  0  0  0  0  0  0  0  0  0
   10.0256    7.2907   20.8484 C   0  0  0  0  0  0  0  0  0  0  0  0
    9.3113    5.3049   14.4911 C   0  0  0  0  0  0  0  0  0  0  0  0
    9.4607    7.5646   16.0139 C   0  0  0  0  0  0  0  0  0  0  0  0
   10.4192    7.3157   15.0955 C   0  0  0  0  0  0  0  0  0  0  0  0
   10.2489    6.4227   23.0218 N   0  0  0  0  0  0  0  0  0  0  0  0
    7.2472    8.0746   23.5050 C   0  0  0  0  0  0  0  0  0  0  0  0
    9.2051    6.9101   23.4604 C   0  0  0  0  0  0  0  0  0  0  0  0
   11.9646    6.0299   21.4251 C   0  0  0  0  0  0  0  0  0  0  0  0
  1  5  1  0
  1 13  1  0
  2 20  2  0
  2 28  1  0
  2 29  1  0
  3 19  4  0
  3 25  4  0
  4 23  4  0
  4 27  1  0
  4 30  4  0
  5 17  1  0
  6  8  1  0
  6 29  1  0
  7 24  4  0
  7 26  4  0
  8 28  1  0
  9 13  2  0
 10 18  1  0
 10 21  4  0
 10 30  4  0
 11 17  2  0
 12 18  1  0
 13 15  1  0
 14 24  1  0
 15 25  1  0
 16 28  2  0
 17 20  1  0
 19 24  4  0
 20 23  1  0
 21 22  4  0
 22 23  4  0
 25 26  4  0
 27 29  2  0
M  END
$$$$

 Created by Python create_sdf_string function

 30 33  0  0  0  0  0  0  0  0999 V2000
    8.3036    9.8571   18.4133 C   0  0  0  0  0  0  0  0  0  0  0  0
    8.3694    7.6612   22.6703 C   0  0  0  0  0  0  0  0  0  0  0  0
    8.4143    6.6863   16.2273 C   0  0  0  0  0  0  0  0  0  0  0  0
   10.7581    6.5674   21.7636 C   0  0  0  0  0  0  0  0  0  0  0  0
    8.4452    8.7960   19.2958 O   0  0  0  0  0  0  0  0  0  0  0  0
    8.7122    6.7842   24.8569 C   0  0  0  0  0  0  0  0  0  0  0  0
   10.3400    6.1726   14.3081 C   0  0  0  0  0  0  0  0  0  0  0  0
    7.4297    7.5873   24.8962 C   0  0  0  0  0  0  0  0  0  0  0  0
    8.1566   10.0536   16.0516 O   0  0  0  0  0  0  0  0  0  0  0  0
   12.4989    6.2074   20.1776 C   0  0  0  0  0  0  0  0  0  0  0  0
    6.9192    9.1053   20.9073 O   0  0  0  0  0  0  0  0  0  0  0  0
   14.3979    6.0729   18.7784 C   0  0  0  0  0  0  0  0  0  0  0  0
    8.6811    9.5354   16.9998 C   0  0  0  0  0  0  0  0  0  0  0  0
    9.2512    4.2713   13.7653 O   0  0  0  0  0  0  0  0  0  0  0  0
    9.6495    8.6317   16.8332 N   0  0  0  0  0  0  0  0  0  0  0  0
    6.2934    8.6988   23.1988 O   0  0  0  0  0  0  0  0  0  0  0  0
    7.9806    8.6543   20.5437 C   0  0  0  0  0  0  0  0  0  0  0  0
   13.7270    5.7144   19.8610 O   0  0  0  0  0  0  0  0  0  0  0  0
    8.3351    5.5235   15.4478 C   0  0  0  0  0  0  0  0  0  0  0  0
    8.7700    7.8434   21.3915 C   0  0  0  0  0  0  0  0  0  0  0  0
   11.7856    6.8851   19.2401 C   0  0  0  0  0  0  0  0  0  0  0  0
   10.5281    7.4276   19.5649 C   0  0  0  0  0  0  0  0  0  0  0  0
   10.0256    7.2907   20.8484 C   0  0  0  0  0  0  0  0  0  0  0  0
    9.3113    5.3049   14.4911 C   0  0  0  0  0  0  0  0  0  0  0  0
    9.4607    7.5646   16.0139 C   0  0  0  0  0  0  0  0  0  0  0  0
   10.4192    7.3157   15.0955 C   0  0  0  0  0  0  0  0  0  0  0  0
   10.2489    6.4227   23.0218 N   0  0  0  0  0  0  0  0  0  0  0  0
    7.2472    8.0746   23.5050 C   0  0  0  0  0  0  0  0  0  0  0  0
    9.2051    6.9101   23.4604 C   0  0  0  0  0  0  0  0  0  0  0  0
   11.9646    6.0299   21.4251 C   0  0  0  0  0  0  0  0  0  0  0  0
  1  5  1  0
  1 13  1  0
  2 20  2  0
  2 28  1  0
  2 29  1  0
  3 19  4  0
  3 25  4  0
  4 23  4  0
  4 27  1  0
  4 30  4  0
  5 17  1  0
  6  8  1  0
  6 29  1  0
  7 24  4  0
  7 26  4  0
  8 28  1  0
  9 13  2  0
 10 18  1  0
 10 21  4  0
 10 30  4  0
 11 17  2  0
 12 18  1  0
 13 15  1  0
 14 24  1  0
 15 25  1  0
 16 28  2  0
 17 20  1  0
 19 24  4  0
 20 23  1  0
 21 22  4  0
 22 23  4  0
 25 26  4  0
 27 29  2  0
M  END
$$$$

 Created by Python create_sdf_string function

 30 33  0  0  0  0  0  0  0  0999 V2000
    8.3036    9.8571   18.4133 C   0  0  0  0  0  0  0  0  0  0  0  0
    8.3694    7.6612   22.6703 C   0  0  0  0  0  0  0  0  0  0  0  0
    8.4143    6.6863   16.2273 C   0  0  0  0  0  0  0  0  0  0  0  0
   10.7581    6.5674   21.7636 C   0  0  0  0  0  0  0  0  0  0  0  0
    8.4452    8.7960   19.2958 O   0  0  0  0  0  0  0  0  0  0  0  0
    8.7122    6.7842   24.8569 C   0  0  0  0  0  0  0  0  0  0  0  0
   10.3400    6.1726   14.3081 C   0  0  0  0  0  0  0  0  0  0  0  0
    7.4297    7.5873   24.8962 C   0  0  0  0  0  0  0  0  0  0  0  0
    8.1566   10.0536   16.0516 O   0  0  0  0  0  0  0  0  0  0  0  0
   12.4989    6.2074   20.1776 C   0  0  0  0  0  0  0  0  0  0  0  0
    6.9192    9.1053   20.9073 O   0  0  0  0  0  0  0  0  0  0  0  0
   14.3979    6.0729   18.7784 C   0  0  0  0  0  0  0  0  0  0  0  0
    8.6811    9.5354   16.9998 C   0  0  0  0  0  0  0  0  0  0  0  0
    9.2512    4.2713   13.7653 O   0  0  0  0  0  0  0  0  0  0  0  0
    9.6495    8.6317   16.8332 N   0  0  0  0  0  0  0  0  0  0  0  0
    6.2934    8.6988   23.1988 O   0  0  0  0  0  0  0  0  0  0  0  0
    7.9806    8.6543   20.5437 C   0  0  0  0  0  0  0  0  0  0  0  0
   13.7270    5.7144   19.8610 O   0  0  0  0  0  0  0  0  0  0  0  0
    8.3351    5.5235   15.4478 C   0  0  0  0  0  0  0  0  0  0  0  0
    8.7700    7.8434   21.3915 C   0  0  0  0  0  0  0  0  0  0  0  0
   11.7856    6.8851   19.2401 C   0  0  0  0  0  0  0  0  0  0  0  0
   10.5281    7.4276   19.5649 C   0  0  0  0  0  0  0  0  0  0  0  0
   10.0256    7.2907   20.8484 C   0  0  0  0  0  0  0  0  0  0  0  0
    9.3113    5.3049   14.4911 C   0  0  0  0  0  0  0  0  0  0  0  0
    9.4607    7.5646   16.0139 C   0  0  0  0  0  0  0  0  0  0  0  0
   10.4192    7.3157   15.0955 C   0  0  0  0  0  0  0  0  0  0  0  0
   10.2489    6.4227   23.0218 N   0  0  0  0  0  0  0  0  0  0  0  0
    7.2472    8.0746   23.5050 C   0  0  0  0  0  0  0  0  0  0  0  0
    9.2051    6.9101   23.4604 C   0  0  0  0  0  0  0  0  0  0  0  0
   11.9646    6.0299   21.4251 C   0  0  0  0  0  0  0  0  0  0  0  0
  1  5  1  0
  1 13  1  0
  2 20  2  0
  2 28  1  0
  2 29  1  0
  3 19  4  0
  3 25  4  0
  4 23  4  0
  4 27  1  0
  4 30  4  0
  5 17  1  0
  6  8  1  0
  6 29  1  0
  7 24  4  0
  7 26  4  0
  8 28  1  0
  9 13  2  0
 10 18  1  0
 10 21  4  0
 10 30  4  0
 11 17  2  0
 12 18  1  0
 13 15  1  0
 14 24  1  0
 15 25  1  0
 16 28  2  0
 17 20  1  0
 19 24  4  0
 20 23  1  0
 21 22  4  0
 22 23  4  0
 25 26  4  0
 27 29  2  0
M  END
$$$$

 Created by Python create_sdf_string function

 30 33  0  0  0  0  0  0  0  0999 V2000
    8.3036    9.8571   18.4133 C   0  0  0  0  0  0  0  0  0  0  0  0
    8.3694    7.6612   22.6703 C   0  0  0  0  0  0  0  0  0  0  0  0
    8.4143    6.6863   16.2273 C   0  0  0  0  0  0  0  0  0  0  0  0
   10.7581    6.5674   21.7636 C   0  0  0  0  0  0  0  0  0  0  0  0
    8.4452    8.7960   19.2958 O   0  0  0  0  0  0  0  0  0  0  0  0
    8.7122    6.7842   24.8569 C   0  0  0  0  0  0  0  0  0  0  0  0
   10.3400    6.1726   14.3081 C   0  0  0  0  0  0  0  0  0  0  0  0
    7.4297    7.5873   24.8962 C   0  0  0  0  0  0  0  0  0  0  0  0
    8.1566   10.0536   16.0516 O   0  0  0  0  0  0  0  0  0  0  0  0
   12.4989    6.2074   20.1776 C   0  0  0  0  0  0  0  0  0  0  0  0
    6.9192    9.1053   20.9073 O   0  0  0  0  0  0  0  0  0  0  0  0
   14.3979    6.0729   18.7784 C   0  0  0  0  0  0  0  0  0  0  0  0
    8.6811    9.5354   16.9998 C   0  0  0  0  0  0  0  0  0  0  0  0
    9.2512    4.2713   13.7653 O   0  0  0  0  0  0  0  0  0  0  0  0
    9.6495    8.6317   16.8332 N   0  0  0  0  0  0  0  0  0  0  0  0
    6.2934    8.6988   23.1988 O   0  0  0  0  0  0  0  0  0  0  0  0
    7.9806    8.6543   20.5437 C   0  0  0  0  0  0  0  0  0  0  0  0
   13.7270    5.7144   19.8610 O   0  0  0  0  0  0  0  0  0  0  0  0
    8.3351    5.5235   15.4478 C   0  0  0  0  0  0  0  0  0  0  0  0
    8.7700    7.8434   21.3915 C   0  0  0  0  0  0  0  0  0  0  0  0
   11.7856    6.8851   19.2401 C   0  0  0  0  0  0  0  0  0  0  0  0
   10.5281    7.4276   19.5649 C   0  0  0  0  0  0  0  0  0  0  0  0
   10.0256    7.2907   20.8484 C   0  0  0  0  0  0  0  0  0  0  0  0
    9.3113    5.3049   14.4911 C   0  0  0  0  0  0  0  0  0  0  0  0
    9.4607    7.5646   16.0139 C   0  0  0  0  0  0  0  0  0  0  0  0
   10.4192    7.3157   15.0955 C   0  0  0  0  0  0  0  0  0  0  0  0
   10.2489    6.4227   23.0218 N   0  0  0  0  0  0  0  0  0  0  0  0
    7.2472    8.0746   23.5050 C   0  0  0  0  0  0  0  0  0  0  0  0
    9.2051    6.9101   23.4604 C   0  0  0  0  0  0  0  0  0  0  0  0
   11.9646    6.0299   21.4251 C   0  0  0  0  0  0  0  0  0  0  0  0
  1  5  1  0
  1 13  1  0
  2 20  2  0
  2 28  1  0
  2 29  1  0
  3 19  4  0
  3 25  4  0
  4 23  4  0
  4 27  1  0
  4 30  4  0
  5 17  1  0
  6  8  1  0
  6 29  1  0
  7 24  4  0
  7 26  4  0
  8 28  1  0
  9 13  2  0
 10 18  1  0
 10 21  4  0
 10 30  4  0
 11 17  2  0
 12 18  1  0
 13 15  1  0
 14 24  1  0
 15 25  1  0
 16 28  2  0
 17 20  1  0
 19 24  4  0
 20 23  1  0
 21 22  4  0
 22 23  4  0
 25 26  4  0
 27 29  2  0
M  END
$$$$

 Created by Python create_sdf_string function

 30 33  0  0  0  0  0  0  0  0999 V2000
    8.3036    9.8571   18.4133 C   0  0  0  0  0  0  0  0  0  0  0  0
    8.3694    7.6612   22.6703 C   0  0  0  0  0  0  0  0  0  0  0  0
    8.4143    6.6863   16.2273 C   0  0  0  0  0  0  0  0  0  0  0  0
   10.7581    6.5674   21.7636 C   0  0  0  0  0  0  0  0  0  0  0  0
    8.4452    8.7960   19.2958 O   0  0  0  0  0  0  0  0  0  0  0  0
    8.7122    6.7842   24.8569 C   0  0  0  0  0  0  0  0  0  0  0  0
   10.3400    6.1726   14.3081 C   0  0  0  0  0  0  0  0  0  0  0  0
    7.4297    7.5873   24.8962 C   0  0  0  0  0  0  0  0  0  0  0  0
    8.1566   10.0536   16.0516 O   0  0  0  0  0  0  0  0  0  0  0  0
   12.4989    6.2074   20.1776 C   0  0  0  0  0  0  0  0  0  0  0  0
    6.9192    9.1053   20.9073 O   0  0  0  0  0  0  0  0  0  0  0  0
   14.3979    6.0729   18.7784 C   0  0  0  0  0  0  0  0  0  0  0  0
    8.6811    9.5354   16.9998 C   0  0  0  0  0  0  0  0  0  0  0  0
    9.2512    4.2713   13.7653 O   0  0  0  0  0  0  0  0  0  0  0  0
    9.6495    8.6317   16.8332 N   0  0  0  0  0  0  0  0  0  0  0  0
    6.2934    8.6988   23.1988 O   0  0  0  0  0  0  0  0  0  0  0  0
    7.9806    8.6543   20.5437 C   0  0  0  0  0  0  0  0  0  0  0  0
   13.7270    5.7144   19.8610 O   0  0  0  0  0  0  0  0  0  0  0  0
    8.3351    5.5235   15.4478 C   0  0  0  0  0  0  0  0  0  0  0  0
    8.7700    7.8434   21.3915 C   0  0  0  0  0  0  0  0  0  0  0  0
   11.7856    6.8851   19.2401 C   0  0  0  0  0  0  0  0  0  0  0  0
   10.5281    7.4276   19.5649 C   0  0  0  0  0  0  0  0  0  0  0  0
   10.0256    7.2907   20.8484 C   0  0  0  0  0  0  0  0  0  0  0  0
    9.3113    5.3049   14.4911 C   0  0  0  0  0  0  0  0  0  0  0  0
    9.4607    7.5646   16.0139 C   0  0  0  0  0  0  0  0  0  0  0  0
   10.4192    7.3157   15.0955 C   0  0  0  0  0  0  0  0  0  0  0  0
   10.2489    6.4227   23.0218 N   0  0  0  0  0  0  0  0  0  0  0  0
    7.2472    8.0746   23.5050 C   0  0  0  0  0  0  0  0  0  0  0  0
    9.2051    6.9101   23.4604 C   0  0  0  0  0  0  0  0  0  0  0  0
   11.9646    6.0299   21.4251 C   0  0  0  0  0  0  0  0  0  0  0  0
  1  5  1  0
  1 13  1  0
  2 20  2  0
  2 28  1  0
  2 29  1  0
  3 19  4  0
  3 25  4  0
  4 23  4  0
  4 27  1  0
  4 30  4  0
  5 17  1  0
  6  8  1  0
  6 29  1  0
  7 24  4  0
  7 26  4  0
  8 28  1  0
  9 13  2  0
 10 18  1  0
 10 21  4  0
 10 30  4  0
 11 17  2  0
 12 18  1  0
 13 15  1  0
 14 24  1  0
 15 25  1  0
 16 28  2  0
 17 20  1  0
 19 24  4  0
 20 23  1  0
 21 22  4  0
 22 23  4  0
 25 26  4  0
 27 29  2  0
M  END
$$$$

 Created by Python create_sdf_string function

 30 33  0  0  0  0  0  0  0  0999 V2000
    8.3036    9.8571   18.4133 C   0  0  0  0  0  0  0  0  0  0  0  0
    8.3694    7.6612   22.6703 C   0  0  0  0  0  0  0  0  0  0  0  0
    8.4143    6.6863   16.2273 C   0  0  0  0  0  0  0  0  0  0  0  0
   10.7581    6.5674   21.7636 C   0  0  0  0  0  0  0  0  0  0  0  0
    8.4452    8.7960   19.2958 O   0  0  0  0  0  0  0  0  0  0  0  0
    8.7122    6.7842   24.8569 C   0  0  0  0  0  0  0  0  0  0  0  0
   10.3400    6.1726   14.3081 C   0  0  0  0  0  0  0  0  0  0  0  0
    7.4297    7.5873   24.8962 C   0  0  0  0  0  0  0  0  0  0  0  0
    8.1566   10.0536   16.0516 O   0  0  0  0  0  0  0  0  0  0  0  0
   12.4989    6.2074   20.1776 C   0  0  0  0  0  0  0  0  0  0  0  0
    6.9192    9.1053   20.9073 O   0  0  0  0  0  0  0  0  0  0  0  0
   14.3979    6.0729   18.7784 C   0  0  0  0  0  0  0  0  0  0  0  0
    8.6811    9.5354   16.9998 C   0  0  0  0  0  0  0  0  0  0  0  0
    9.2512    4.2713   13.7653 O   0  0  0  0  0  0  0  0  0  0  0  0
    9.6495    8.6317   16.8332 N   0  0  0  0  0  0  0  0  0  0  0  0
    6.2934    8.6988   23.1988 O   0  0  0  0  0  0  0  0  0  0  0  0
    7.9806    8.6543   20.5437 C   0  0  0  0  0  0  0  0  0  0  0  0
   13.7270    5.7144   19.8610 O   0  0  0  0  0  0  0  0  0  0  0  0
    8.3351    5.5235   15.4478 C   0  0  0  0  0  0  0  0  0  0  0  0
    8.7700    7.8434   21.3915 C   0  0  0  0  0  0  0  0  0  0  0  0
   11.7856    6.8851   19.2401 C   0  0  0  0  0  0  0  0  0  0  0  0
   10.5281    7.4276   19.5649 C   0  0  0  0  0  0  0  0  0  0  0  0
   10.0256    7.2907   20.8484 C   0  0  0  0  0  0  0  0  0  0  0  0
    9.3113    5.3049   14.4911 C   0  0  0  0  0  0  0  0  0  0  0  0
    9.4607    7.5646   16.0139 C   0  0  0  0  0  0  0  0  0  0  0  0
   10.4192    7.3157   15.0955 C   0  0  0  0  0  0  0  0  0  0  0  0
   10.2489    6.4227   23.0218 N   0  0  0  0  0  0  0  0  0  0  0  0
    7.2472    8.0746   23.5050 C   0  0  0  0  0  0  0  0  0  0  0  0
    9.2051    6.9101   23.4604 C   0  0  0  0  0  0  0  0  0  0  0  0
   11.9646    6.0299   21.4251 C   0  0  0  0  0  0  0  0  0  0  0  0
  1  5  1  0
  1 13  1  0
  2 20  2  0
  2 28  1  0
  2 29  1  0
  3 19  4  0
  3 25  4  0
  4 23  4  0
  4 27  1  0
  4 30  4  0
  5 17  1  0
  6  8  1  0
  6 29  1  0
  7 24  4  0
  7 26  4  0
  8 28  1  0
  9 13  2  0
 10 18  1  0
 10 21  4  0
 10 30  4  0
 11 17  2  0
 12 18  1  0
 13 15  1  0
 14 24  1  0
 15 25  1  0
 16 28  2  0
 17 20  1  0
 19 24  4  0
 20 23  1  0
 21 22  4  0
 22 23  4  0
 25 26  4  0
 27 29  2  0
M  END
$$$$

 Created by Python create_sdf_string function

 30 33  0  0  0  0  0  0  0  0999 V2000
    8.3036    9.8571   18.4133 C   0  0  0  0  0  0  0  0  0  0  0  0
    8.3694    7.6612   22.6703 C   0  0  0  0  0  0  0  0  0  0  0  0
    8.4143    6.6863   16.2273 C   0  0  0  0  0  0  0  0  0  0  0  0
   10.7581    6.5674   21.7636 C   0  0  0  0  0  0  0  0  0  0  0  0
    8.4452    8.7960   19.2958 O   0  0  0  0  0  0  0  0  0  0  0  0
    8.7122    6.7842   24.8569 C   0  0  0  0  0  0  0  0  0  0  0  0
   10.3400    6.1726   14.3081 C   0  0  0  0  0  0  0  0  0  0  0  0
    7.4297    7.5873   24.8962 C   0  0  0  0  0  0  0  0  0  0  0  0
    8.1566   10.0536   16.0516 O   0  0  0  0  0  0  0  0  0  0  0  0
   12.4989    6.2074   20.1776 C   0  0  0  0  0  0  0  0  0  0  0  0
    6.9192    9.1053   20.9073 O   0  0  0  0  0  0  0  0  0  0  0  0
   14.3979    6.0729   18.7784 C   0  0  0  0  0  0  0  0  0  0  0  0
    8.6811    9.5354   16.9998 C   0  0  0  0  0  0  0  0  0  0  0  0
    9.2512    4.2713   13.7653 O   0  0  0  0  0  0  0  0  0  0  0  0
    9.6495    8.6317   16.8332 N   0  0  0  0  0  0  0  0  0  0  0  0
    6.2934    8.6988   23.1988 O   0  0  0  0  0  0  0  0  0  0  0  0
    7.9806    8.6543   20.5437 C   0  0  0  0  0  0  0  0  0  0  0  0
   13.7270    5.7144   19.8610 O   0  0  0  0  0  0  0  0  0  0  0  0
    8.3351    5.5235   15.4478 C   0  0  0  0  0  0  0  0  0  0  0  0
    8.7700    7.8434   21.3915 C   0  0  0  0  0  0  0  0  0  0  0  0
   11.7856    6.8851   19.2401 C   0  0  0  0  0  0  0  0  0  0  0  0
   10.5281    7.4276   19.5649 C   0  0  0  0  0  0  0  0  0  0  0  0
   10.0256    7.2907   20.8484 C   0  0  0  0  0  0  0  0  0  0  0  0
    9.3113    5.3049   14.4911 C   0  0  0  0  0  0  0  0  0  0  0  0
    9.4607    7.5646   16.0139 C   0  0  0  0  0  0  0  0  0  0  0  0
   10.4192    7.3157   15.0955 C   0  0  0  0  0  0  0  0  0  0  0  0
   10.2489    6.4227   23.0218 N   0  0  0  0  0  0  0  0  0  0  0  0
    7.2472    8.0746   23.5050 C   0  0  0  0  0  0  0  0  0  0  0  0
    9.2051    6.9101   23.4604 C   0  0  0  0  0  0  0  0  0  0  0  0
   11.9646    6.0299   21.4251 C   0  0  0  0  0  0  0  0  0  0  0  0
  1  5  1  0
  1 13  1  0
  2 20  2  0
  2 28  1  0
  2 29  1  0
  3 19  4  0
  3 25  4  0
  4 23  4  0
  4 27  1  0
  4 30  4  0
  5 17  1  0
  6  8  1  0
  6 29  1  0
  7 24  4  0
  7 26  4  0
  8 28  1  0
  9 13  2  0
 10 18  1  0
 10 21  4  0
 10 30  4  0
 11 17  2  0
 12 18  1  0
 13 15  1  0
 14 24  1  0
 15 25  1  0
 16 28  2  0
 17 20  1  0
 19 24  4  0
 20 23  1  0
 21 22  4  0
 22 23  4  0
 25 26  4  0
 27 29  2  0
M  END
$$$$

 Created by Python create_sdf_string function

 30 33  0  0  0  0  0  0  0  0999 V2000
    8.3036    9.8571   18.4133 C   0  0  0  0  0  0  0  0  0  0  0  0
    8.3694    7.6612   22.6703 C   0  0  0  0  0  0  0  0  0  0  0  0
    8.4143    6.6863   16.2273 C   0  0  0  0  0  0  0  0  0  0  0  0
   10.7581    6.5674   21.7636 C   0  0  0  0  0  0  0  0  0  0  0  0
    8.4452    8.7960   19.2958 O   0  0  0  0  0  0  0  0  0  0  0  0
    8.7122    6.7842   24.8569 C   0  0  0  0  0  0  0  0  0  0  0  0
   10.3400    6.1726   14.3081 C   0  0  0  0  0  0  0  0  0  0  0  0
    7.4297    7.5873   24.8962 C   0  0  0  0  0  0  0  0  0  0  0  0
    8.1566   10.0536   16.0516 O   0  0  0  0  0  0  0  0  0  0  0  0
   12.4989    6.2074   20.1776 C   0  0  0  0  0  0  0  0  0  0  0  0
    6.9192    9.1053   20.9073 O   0  0  0  0  0  0  0  0  0  0  0  0
   14.3979    6.0729   18.7784 C   0  0  0  0  0  0  0  0  0  0  0  0
    8.6811    9.5354   16.9998 C   0  0  0  0  0  0  0  0  0  0  0  0
    9.2512    4.2713   13.7653 O   0  0  0  0  0  0  0  0  0  0  0  0
    9.6495    8.6317   16.8332 N   0  0  0  0  0  0  0  0  0  0  0  0
    6.2934    8.6988   23.1988 O   0  0  0  0  0  0  0  0  0  0  0  0
    7.9806    8.6543   20.5437 C   0  0  0  0  0  0  0  0  0  0  0  0
   13.7270    5.7144   19.8610 O   0  0  0  0  0  0  0  0  0  0  0  0
    8.3351    5.5235   15.4478 C   0  0  0  0  0  0  0  0  0  0  0  0
    8.7700    7.8434   21.3915 C   0  0  0  0  0  0  0  0  0  0  0  0
   11.7856    6.8851   19.2401 C   0  0  0  0  0  0  0  0  0  0  0  0
   10.5281    7.4276   19.5649 C   0  0  0  0  0  0  0  0  0  0  0  0
   10.0256    7.2907   20.8484 C   0  0  0  0  0  0  0  0  0  0  0  0
    9.3113    5.3049   14.4911 C   0  0  0  0  0  0  0  0  0  0  0  0
    9.4607    7.5646   16.0139 C   0  0  0  0  0  0  0  0  0  0  0  0
   10.4192    7.3157   15.0955 C   0  0  0  0  0  0  0  0  0  0  0  0
   10.2489    6.4227   23.0218 N   0  0  0  0  0  0  0  0  0  0  0  0
    7.2472    8.0746   23.5050 C   0  0  0  0  0  0  0  0  0  0  0  0
    9.2051    6.9101   23.4604 C   0  0  0  0  0  0  0  0  0  0  0  0
   11.9646    6.0299   21.4251 C   0  0  0  0  0  0  0  0  0  0  0  0
  1  5  1  0
  1 13  1  0
  2 20  2  0
  2 28  1  0
  2 29  1  0
  3 19  4  0
  3 25  4  0
  4 23  4  0
  4 27  1  0
  4 30  4  0
  5 17  1  0
  6  8  1  0
  6 29  1  0
  7 24  4  0
  7 26  4  0
  8 28  1  0
  9 13  2  0
 10 18  1  0
 10 21  4  0
 10 30  4  0
 11 17  2  0
 12 18  1  0
 13 15  1  0
 14 24  1  0
 15 25  1  0
 16 28  2  0
 17 20  1  0
 19 24  4  0
 20 23  1  0
 21 22  4  0
 22 23  4  0
 25 26  4  0
 27 29  2  0
M  END
$$$$

 Created by Python create_sdf_string function

 30 33  0  0  0  0  0  0  0  0999 V2000
    8.3036    9.8571   18.4133 C   0  0  0  0  0  0  0  0  0  0  0  0
    8.3694    7.6612   22.6703 C   0  0  0  0  0  0  0  0  0  0  0  0
    8.4143    6.6863   16.2273 C   0  0  0  0  0  0  0  0  0  0  0  0
   10.7581    6.5674   21.7636 C   0  0  0  0  0  0  0  0  0  0  0  0
    8.4452    8.7960   19.2958 O   0  0  0  0  0  0  0  0  0  0  0  0
    8.7122    6.7842   24.8569 C   0  0  0  0  0  0  0  0  0  0  0  0
   10.3400    6.1726   14.3081 C   0  0  0  0  0  0  0  0  0  0  0  0
    7.4297    7.5873   24.8962 C   0  0  0  0  0  0  0  0  0  0  0  0
    8.1566   10.0536   16.0516 O   0  0  0  0  0  0  0  0  0  0  0  0
   12.4989    6.2074   20.1776 C   0  0  0  0  0  0  0  0  0  0  0  0
    6.9192    9.1053   20.9073 O   0  0  0  0  0  0  0  0  0  0  0  0
   14.3979    6.0729   18.7784 C   0  0  0  0  0  0  0  0  0  0  0  0
    8.6811    9.5354   16.9998 C   0  0  0  0  0  0  0  0  0  0  0  0
    9.2512    4.2713   13.7653 O   0  0  0  0  0  0  0  0  0  0  0  0
    9.6495    8.6317   16.8332 N   0  0  0  0  0  0  0  0  0  0  0  0
    6.2934    8.6988   23.1988 O   0  0  0  0  0  0  0  0  0  0  0  0
    7.9806    8.6543   20.5437 C   0  0  0  0  0  0  0  0  0  0  0  0
   13.7270    5.7144   19.8610 O   0  0  0  0  0  0  0  0  0  0  0  0
    8.3351    5.5235   15.4478 C   0  0  0  0  0  0  0  0  0  0  0  0
    8.7700    7.8434   21.3915 C   0  0  0  0  0  0  0  0  0  0  0  0
   11.7856    6.8851   19.2401 C   0  0  0  0  0  0  0  0  0  0  0  0
   10.5281    7.4276   19.5649 C   0  0  0  0  0  0  0  0  0  0  0  0
   10.0256    7.2907   20.8484 C   0  0  0  0  0  0  0  0  0  0  0  0
    9.3113    5.3049   14.4911 C   0  0  0  0  0  0  0  0  0  0  0  0
    9.4607    7.5646   16.0139 C   0  0  0  0  0  0  0  0  0  0  0  0
   10.4192    7.3157   15.0955 C   0  0  0  0  0  0  0  0  0  0  0  0
   10.2489    6.4227   23.0218 N   0  0  0  0  0  0  0  0  0  0  0  0
    7.2472    8.0746   23.5050 C   0  0  0  0  0  0  0  0  0  0  0  0
    9.2051    6.9101   23.4604 C   0  0  0  0  0  0  0  0  0  0  0  0
   11.9646    6.0299   21.4251 C   0  0  0  0  0  0  0  0  0  0  0  0
  1  5  1  0
  1 13  1  0
  2 20  2  0
  2 28  1  0
  2 29  1  0
  3 19  4  0
  3 25  4  0
  4 23  4  0
  4 27  1  0
  4 30  4  0
  5 17  1  0
  6  8  1  0
  6 29  1  0
  7 24  4  0
  7 26  4  0
  8 28  1  0
  9 13  2  0
 10 18  1  0
 10 21  4  0
 10 30  4  0
 11 17  2  0
 12 18  1  0
 13 15  1  0
 14 24  1  0
 15 25  1  0
 16 28  2  0
 17 20  1  0
 19 24  4  0
 20 23  1  0
 21 22  4  0
 22 23  4  0
 25 26  4  0
 27 29  2  0
M  END
$$$$

 Created by Python create_sdf_string function

 30 33  0  0  0  0  0  0  0  0999 V2000
    8.3036    9.8571   18.4133 C   0  0  0  0  0  0  0  0  0  0  0  0
    8.3694    7.6612   22.6703 C   0  0  0  0  0  0  0  0  0  0  0  0
    8.4143    6.6863   16.2273 C   0  0  0  0  0  0  0  0  0  0  0  0
   10.7581    6.5674   21.7636 C   0  0  0  0  0  0  0  0  0  0  0  0
    8.4452    8.7960   19.2958 O   0  0  0  0  0  0  0  0  0  0  0  0
    8.7122    6.7842   24.8569 C   0  0  0  0  0  0  0  0  0  0  0  0
   10.3400    6.1726   14.3081 C   0  0  0  0  0  0  0  0  0  0  0  0
    7.4297    7.5873   24.8962 C   0  0  0  0  0  0  0  0  0  0  0  0
    8.1566   10.0536   16.0516 O   0  0  0  0  0  0  0  0  0  0  0  0
   12.4989    6.2074   20.1776 C   0  0  0  0  0  0  0  0  0  0  0  0
    6.9192    9.1053   20.9073 O   0  0  0  0  0  0  0  0  0  0  0  0
   14.3979    6.0729   18.7784 C   0  0  0  0  0  0  0  0  0  0  0  0
    8.6811    9.5354   16.9998 C   0  0  0  0  0  0  0  0  0  0  0  0
    9.2512    4.2713   13.7653 O   0  0  0  0  0  0  0  0  0  0  0  0
    9.6495    8.6317   16.8332 N   0  0  0  0  0  0  0  0  0  0  0  0
    6.2934    8.6988   23.1988 O   0  0  0  0  0  0  0  0  0  0  0  0
    7.9806    8.6543   20.5437 C   0  0  0  0  0  0  0  0  0  0  0  0
   13.7270    5.7144   19.8610 O   0  0  0  0  0  0  0  0  0  0  0  0
    8.3351    5.5235   15.4478 C   0  0  0  0  0  0  0  0  0  0  0  0
    8.7700    7.8434   21.3915 C   0  0  0  0  0  0  0  0  0  0  0  0
   11.7856    6.8851   19.2401 C   0  0  0  0  0  0  0  0  0  0  0  0
   10.5281    7.4276   19.5649 C   0  0  0  0  0  0  0  0  0  0  0  0
   10.0256    7.2907   20.8484 C   0  0  0  0  0  0  0  0  0  0  0  0
    9.3113    5.3049   14.4911 C   0  0  0  0  0  0  0  0  0  0  0  0
    9.4607    7.5646   16.0139 C   0  0  0  0  0  0  0  0  0  0  0  0
   10.4192    7.3157   15.0955 C   0  0  0  0  0  0  0  0  0  0  0  0
   10.2489    6.4227   23.0218 N   0  0  0  0  0  0  0  0  0  0  0  0
    7.2472    8.0746   23.5050 C   0  0  0  0  0  0  0  0  0  0  0  0
    9.2051    6.9101   23.4604 C   0  0  0  0  0  0  0  0  0  0  0  0
   11.9646    6.0299   21.4251 C   0  0  0  0  0  0  0  0  0  0  0  0
  1  5  1  0
  1 13  1  0
  2 20  2  0
  2 28  1  0
  2 29  1  0
  3 19  4  0
  3 25  4  0
  4 23  4  0
  4 27  1  0
  4 30  4  0
  5 17  1  0
  6  8  1  0
  6 29  1  0
  7 24  4  0
  7 26  4  0
  8 28  1  0
  9 13  2  0
 10 18  1  0
 10 21  4  0
 10 30  4  0
 11 17  2  0
 12 18  1  0
 13 15  1  0
 14 24  1  0
 15 25  1  0
 16 28  2  0
 17 20  1  0
 19 24  4  0
 20 23  1  0
 21 22  4  0
 22 23  4  0
 25 26  4  0
 27 29  2  0
M  END
$$$$

 Created by Python create_sdf_string function

 30 33  0  0  0  0  0  0  0  0999 V2000
    8.3036    9.8571   18.4133 C   0  0  0  0  0  0  0  0  0  0  0  0
    8.3694    7.6612   22.6703 C   0  0  0  0  0  0  0  0  0  0  0  0
    8.4143    6.6863   16.2273 C   0  0  0  0  0  0  0  0  0  0  0  0
   10.7581    6.5674   21.7636 C   0  0  0  0  0  0  0  0  0  0  0  0
    8.4452    8.7960   19.2958 O   0  0  0  0  0  0  0  0  0  0  0  0
    8.7122    6.7842   24.8569 C   0  0  0  0  0  0  0  0  0  0  0  0
   10.3400    6.1726   14.3081 C   0  0  0  0  0  0  0  0  0  0  0  0
    7.4297    7.5873   24.8962 C   0  0  0  0  0  0  0  0  0  0  0  0
    8.1566   10.0536   16.0516 O   0  0  0  0  0  0  0  0  0  0  0  0
   12.4989    6.2074   20.1776 C   0  0  0  0  0  0  0  0  0  0  0  0
    6.9192    9.1053   20.9073 O   0  0  0  0  0  0  0  0  0  0  0  0
   14.3979    6.0729   18.7784 C   0  0  0  0  0  0  0  0  0  0  0  0
    8.6811    9.5354   16.9998 C   0  0  0  0  0  0  0  0  0  0  0  0
    9.2512    4.2713   13.7653 O   0  0  0  0  0  0  0  0  0  0  0  0
    9.6495    8.6317   16.8332 N   0  0  0  0  0  0  0  0  0  0  0  0
    6.2934    8.6988   23.1988 O   0  0  0  0  0  0  0  0  0  0  0  0
    7.9806    8.6543   20.5437 C   0  0  0  0  0  0  0  0  0  0  0  0
   13.7270    5.7144   19.8610 O   0  0  0  0  0  0  0  0  0  0  0  0
    8.3351    5.5235   15.4478 C   0  0  0  0  0  0  0  0  0  0  0  0
    8.7700    7.8434   21.3915 C   0  0  0  0  0  0  0  0  0  0  0  0
   11.7856    6.8851   19.2401 C   0  0  0  0  0  0  0  0  0  0  0  0
   10.5281    7.4276   19.5649 C   0  0  0  0  0  0  0  0  0  0  0  0
   10.0256    7.2907   20.8484 C   0  0  0  0  0  0  0  0  0  0  0  0
    9.3113    5.3049   14.4911 C   0  0  0  0  0  0  0  0  0  0  0  0
    9.4607    7.5646   16.0139 C   0  0  0  0  0  0  0  0  0  0  0  0
   10.4192    7.3157   15.0955 C   0  0  0  0  0  0  0  0  0  0  0  0
   10.2489    6.4227   23.0218 N   0  0  0  0  0  0  0  0  0  0  0  0
    7.2472    8.0746   23.5050 C   0  0  0  0  0  0  0  0  0  0  0  0
    9.2051    6.9101   23.4604 C   0  0  0  0  0  0  0  0  0  0  0  0
   11.9646    6.0299   21.4251 C   0  0  0  0  0  0  0  0  0  0  0  0
  1  5  1  0
  1 13  1  0
  2 20  2  0
  2 28  1  0
  2 29  1  0
  3 19  4  0
  3 25  4  0
  4 23  4  0
  4 27  1  0
  4 30  4  0
  5 17  1  0
  6  8  1  0
  6 29  1  0
  7 24  4  0
  7 26  4  0
  8 28  1  0
  9 13  2  0
 10 18  1  0
 10 21  4  0
 10 30  4  0
 11 17  2  0
 12 18  1  0
 13 15  1  0
 14 24  1  0
 15 25  1  0
 16 28  2  0
 17 20  1  0
 19 24  4  0
 20 23  1  0
 21 22  4  0
 22 23  4  0
 25 26  4  0
 27 29  2  0
M  END
$$$$

 Created by Python create_sdf_string function

 30 33  0  0  0  0  0  0  0  0999 V2000
    8.3036    9.8571   18.4133 C   0  0  0  0  0  0  0  0  0  0  0  0
    8.3694    7.6612   22.6703 C   0  0  0  0  0  0  0  0  0  0  0  0
    8.4143    6.6863   16.2273 C   0  0  0  0  0  0  0  0  0  0  0  0
   10.7581    6.5674   21.7636 C   0  0  0  0  0  0  0  0  0  0  0  0
    8.4452    8.7960   19.2958 O   0  0  0  0  0  0  0  0  0  0  0  0
    8.7122    6.7842   24.8569 C   0  0  0  0  0  0  0  0  0  0  0  0
   10.3400    6.1726   14.3081 C   0  0  0  0  0  0  0  0  0  0  0  0
    7.4297    7.5873   24.8962 C   0  0  0  0  0  0  0  0  0  0  0  0
    8.1566   10.0536   16.0516 O   0  0  0  0  0  0  0  0  0  0  0  0
   12.4989    6.2074   20.1776 C   0  0  0  0  0  0  0  0  0  0  0  0
    6.9192    9.1053   20.9073 O   0  0  0  0  0  0  0  0  0  0  0  0
   14.3979    6.0729   18.7784 C   0  0  0  0  0  0  0  0  0  0  0  0
    8.6811    9.5354   16.9998 C   0  0  0  0  0  0  0  0  0  0  0  0
    9.2512    4.2713   13.7653 O   0  0  0  0  0  0  0  0  0  0  0  0
    9.6495    8.6317   16.8332 N   0  0  0  0  0  0  0  0  0  0  0  0
    6.2934    8.6988   23.1988 O   0  0  0  0  0  0  0  0  0  0  0  0
    7.9806    8.6543   20.5437 C   0  0  0  0  0  0  0  0  0  0  0  0
   13.7270    5.7144   19.8610 O   0  0  0  0  0  0  0  0  0  0  0  0
    8.3351    5.5235   15.4478 C   0  0  0  0  0  0  0  0  0  0  0  0
    8.7700    7.8434   21.3915 C   0  0  0  0  0  0  0  0  0  0  0  0
   11.7856    6.8851   19.2401 C   0  0  0  0  0  0  0  0  0  0  0  0
   10.5281    7.4276   19.5649 C   0  0  0  0  0  0  0  0  0  0  0  0
   10.0256    7.2907   20.8484 C   0  0  0  0  0  0  0  0  0  0  0  0
    9.3113    5.3049   14.4911 C   0  0  0  0  0  0  0  0  0  0  0  0
    9.4607    7.5646   16.0139 C   0  0  0  0  0  0  0  0  0  0  0  0
   10.4192    7.3157   15.0955 C   0  0  0  0  0  0  0  0  0  0  0  0
   10.2489    6.4227   23.0218 N   0  0  0  0  0  0  0  0  0  0  0  0
    7.2472    8.0746   23.5050 C   0  0  0  0  0  0  0  0  0  0  0  0
    9.2051    6.9101   23.4604 C   0  0  0  0  0  0  0  0  0  0  0  0
   11.9646    6.0299   21.4251 C   0  0  0  0  0  0  0  0  0  0  0  0
  1  5  1  0
  1 13  1  0
  2 20  2  0
  2 28  1  0
  2 29  1  0
  3 19  4  0
  3 25  4  0
  4 23  4  0
  4 27  1  0
  4 30  4  0
  5 17  1  0
  6  8  1  0
  6 29  1  0
  7 24  4  0
  7 26  4  0
  8 28  1  0
  9 13  2  0
 10 18  1  0
 10 21  4  0
 10 30  4  0
 11 17  2  0
 12 18  1  0
 13 15  1  0
 14 24  1  0
 15 25  1  0
 16 28  2  0
 17 20  1  0
 19 24  4  0
 20 23  1  0
 21 22  4  0
 22 23  4  0
 25 26  4  0
 27 29  2  0
M  END
$$$$

 Created by Python create_sdf_string function

 30 33  0  0  0  0  0  0  0  0999 V2000
    8.3036    9.8571   18.4133 C   0  0  0  0  0  0  0  0  0  0  0  0
    8.3694    7.6612   22.6703 C   0  0  0  0  0  0  0  0  0  0  0  0
    8.4143    6.6863   16.2273 C   0  0  0  0  0  0  0  0  0  0  0  0
   10.7581    6.5674   21.7636 C   0  0  0  0  0  0  0  0  0  0  0  0
    8.4452    8.7960   19.2958 O   0  0  0  0  0  0  0  0  0  0  0  0
    8.7122    6.7842   24.8569 C   0  0  0  0  0  0  0  0  0  0  0  0
   10.3400    6.1726   14.3081 C   0  0  0  0  0  0  0  0  0  0  0  0
    7.4297    7.5873   24.8962 C   0  0  0  0  0  0  0  0  0  0  0  0
    8.1566   10.0536   16.0516 O   0  0  0  0  0  0  0  0  0  0  0  0
   12.4989    6.2074   20.1776 C   0  0  0  0  0  0  0  0  0  0  0  0
    6.9192    9.1053   20.9073 O   0  0  0  0  0  0  0  0  0  0  0  0
   14.3979    6.0729   18.7784 C   0  0  0  0  0  0  0  0  0  0  0  0
    8.6811    9.5354   16.9998 C   0  0  0  0  0  0  0  0  0  0  0  0
    9.2512    4.2713   13.7653 O   0  0  0  0  0  0  0  0  0  0  0  0
    9.6495    8.6317   16.8332 N   0  0  0  0  0  0  0  0  0  0  0  0
    6.2934    8.6988   23.1988 O   0  0  0  0  0  0  0  0  0  0  0  0
    7.9806    8.6543   20.5437 C   0  0  0  0  0  0  0  0  0  0  0  0
   13.7270    5.7144   19.8610 O   0  0  0  0  0  0  0  0  0  0  0  0
    8.3351    5.5235   15.4478 C   0  0  0  0  0  0  0  0  0  0  0  0
    8.7700    7.8434   21.3915 C   0  0  0  0  0  0  0  0  0  0  0  0
   11.7856    6.8851   19.2401 C   0  0  0  0  0  0  0  0  0  0  0  0
   10.5281    7.4276   19.5649 C   0  0  0  0  0  0  0  0  0  0  0  0
   10.0256    7.2907   20.8484 C   0  0  0  0  0  0  0  0  0  0  0  0
    9.3113    5.3049   14.4911 C   0  0  0  0  0  0  0  0  0  0  0  0
    9.4607    7.5646   16.0139 C   0  0  0  0  0  0  0  0  0  0  0  0
   10.4192    7.3157   15.0955 C   0  0  0  0  0  0  0  0  0  0  0  0
   10.2489    6.4227   23.0218 N   0  0  0  0  0  0  0  0  0  0  0  0
    7.2472    8.0746   23.5050 C   0  0  0  0  0  0  0  0  0  0  0  0
    9.2051    6.9101   23.4604 C   0  0  0  0  0  0  0  0  0  0  0  0
   11.9646    6.0299   21.4251 C   0  0  0  0  0  0  0  0  0  0  0  0
  1  5  1  0
  1 13  1  0
  2 20  2  0
  2 28  1  0
  2 29  1  0
  3 19  4  0
  3 25  4  0
  4 23  4  0
  4 27  1  0
  4 30  4  0
  5 17  1  0
  6  8  1  0
  6 29  1  0
  7 24  4  0
  7 26  4  0
  8 28  1  0
  9 13  2  0
 10 18  1  0
 10 21  4  0
 10 30  4  0
 11 17  2  0
 12 18  1  0
 13 15  1  0
 14 24  1  0
 15 25  1  0
 16 28  2  0
 17 20  1  0
 19 24  4  0
 20 23  1  0
 21 22  4  0
 22 23  4  0
 25 26  4  0
 27 29  2  0
M  END
$$$$

 Created by Python create_sdf_string function

 30 33  0  0  0  0  0  0  0  0999 V2000
    8.3036    9.8571   18.4133 C   0  0  0  0  0  0  0  0  0  0  0  0
    8.3694    7.6612   22.6703 C   0  0  0  0  0  0  0  0  0  0  0  0
    8.4143    6.6863   16.2273 C   0  0  0  0  0  0  0  0  0  0  0  0
   10.7581    6.5674   21.7636 C   0  0  0  0  0  0  0  0  0  0  0  0
    8.4452    8.7960   19.2958 O   0  0  0  0  0  0  0  0  0  0  0  0
    8.7122    6.7842   24.8569 C   0  0  0  0  0  0  0  0  0  0  0  0
   10.3400    6.1726   14.3081 C   0  0  0  0  0  0  0  0  0  0  0  0
    7.4297    7.5873   24.8962 C   0  0  0  0  0  0  0  0  0  0  0  0
    8.1566   10.0536   16.0516 O   0  0  0  0  0  0  0  0  0  0  0  0
   12.4989    6.2074   20.1776 C   0  0  0  0  0  0  0  0  0  0  0  0
    6.9192    9.1053   20.9073 O   0  0  0  0  0  0  0  0  0  0  0  0
   14.3979    6.0729   18.7784 C   0  0  0  0  0  0  0  0  0  0  0  0
    8.6811    9.5354   16.9998 C   0  0  0  0  0  0  0  0  0  0  0  0
    9.2512    4.2713   13.7653 O   0  0  0  0  0  0  0  0  0  0  0  0
    9.6495    8.6317   16.8332 N   0  0  0  0  0  0  0  0  0  0  0  0
    6.2934    8.6988   23.1988 O   0  0  0  0  0  0  0  0  0  0  0  0
    7.9806    8.6543   20.5437 C   0  0  0  0  0  0  0  0  0  0  0  0
   13.7270    5.7144   19.8610 O   0  0  0  0  0  0  0  0  0  0  0  0
    8.3351    5.5235   15.4478 C   0  0  0  0  0  0  0  0  0  0  0  0
    8.7700    7.8434   21.3915 C   0  0  0  0  0  0  0  0  0  0  0  0
   11.7856    6.8851   19.2401 C   0  0  0  0  0  0  0  0  0  0  0  0
   10.5281    7.4276   19.5649 C   0  0  0  0  0  0  0  0  0  0  0  0
   10.0256    7.2907   20.8484 C   0  0  0  0  0  0  0  0  0  0  0  0
    9.3113    5.3049   14.4911 C   0  0  0  0  0  0  0  0  0  0  0  0
    9.4607    7.5646   16.0139 C   0  0  0  0  0  0  0  0  0  0  0  0
   10.4192    7.3157   15.0955 C   0  0  0  0  0  0  0  0  0  0  0  0
   10.2489    6.4227   23.0218 N   0  0  0  0  0  0  0  0  0  0  0  0
    7.2472    8.0746   23.5050 C   0  0  0  0  0  0  0  0  0  0  0  0
    9.2051    6.9101   23.4604 C   0  0  0  0  0  0  0  0  0  0  0  0
   11.9646    6.0299   21.4251 C   0  0  0  0  0  0  0  0  0  0  0  0
  1  5  1  0
  1 13  1  0
  2 20  2  0
  2 28  1  0
  2 29  1  0
  3 19  4  0
  3 25  4  0
  4 23  4  0
  4 27  1  0
  4 30  4  0
  5 17  1  0
  6  8  1  0
  6 29  1  0
  7 24  4  0
  7 26  4  0
  8 28  1  0
  9 13  2  0
 10 18  1  0
 10 21  4  0
 10 30  4  0
 11 17  2  0
 12 18  1  0
 13 15  1  0
 14 24  1  0
 15 25  1  0
 16 28  2  0
 17 20  1  0
 19 24  4  0
 20 23  1  0
 21 22  4  0
 22 23  4  0
 25 26  4  0
 27 29  2  0
M  END
$$$$

 Created by Python create_sdf_string function

 30 33  0  0  0  0  0  0  0  0999 V2000
    8.3036    9.8571   18.4133 C   0  0  0  0  0  0  0  0  0  0  0  0
    8.3694    7.6612   22.6703 C   0  0  0  0  0  0  0  0  0  0  0  0
    8.4143    6.6863   16.2273 C   0  0  0  0  0  0  0  0  0  0  0  0
   10.7581    6.5674   21.7636 C   0  0  0  0  0  0  0  0  0  0  0  0
    8.4452    8.7960   19.2958 O   0  0  0  0  0  0  0  0  0  0  0  0
    8.7122    6.7842   24.8569 C   0  0  0  0  0  0  0  0  0  0  0  0
   10.3400    6.1726   14.3081 C   0  0  0  0  0  0  0  0  0  0  0  0
    7.4297    7.5873   24.8962 C   0  0  0  0  0  0  0  0  0  0  0  0
    8.1566   10.0536   16.0516 O   0  0  0  0  0  0  0  0  0  0  0  0
   12.4989    6.2074   20.1776 C   0  0  0  0  0  0  0  0  0  0  0  0
    6.9192    9.1053   20.9073 O   0  0  0  0  0  0  0  0  0  0  0  0
   14.3979    6.0729   18.7784 C   0  0  0  0  0  0  0  0  0  0  0  0
    8.6811    9.5354   16.9998 C   0  0  0  0  0  0  0  0  0  0  0  0
    9.2512    4.2713   13.7653 O   0  0  0  0  0  0  0  0  0  0  0  0
    9.6495    8.6317   16.8332 N   0  0  0  0  0  0  0  0  0  0  0  0
    6.2934    8.6988   23.1988 O   0  0  0  0  0  0  0  0  0  0  0  0
    7.9806    8.6543   20.5437 C   0  0  0  0  0  0  0  0  0  0  0  0
   13.7270    5.7144   19.8610 O   0  0  0  0  0  0  0  0  0  0  0  0
    8.3351    5.5235   15.4478 C   0  0  0  0  0  0  0  0  0  0  0  0
    8.7700    7.8434   21.3915 C   0  0  0  0  0  0  0  0  0  0  0  0
   11.7856    6.8851   19.2401 C   0  0  0  0  0  0  0  0  0  0  0  0
   10.5281    7.4276   19.5649 C   0  0  0  0  0  0  0  0  0  0  0  0
   10.0256    7.2907   20.8484 C   0  0  0  0  0  0  0  0  0  0  0  0
    9.3113    5.3049   14.4911 C   0  0  0  0  0  0  0  0  0  0  0  0
    9.4607    7.5646   16.0139 C   0  0  0  0  0  0  0  0  0  0  0  0
   10.4192    7.3157   15.0955 C   0  0  0  0  0  0  0  0  0  0  0  0
   10.2489    6.4227   23.0218 N   0  0  0  0  0  0  0  0  0  0  0  0
    7.2472    8.0746   23.5050 C   0  0  0  0  0  0  0  0  0  0  0  0
    9.2051    6.9101   23.4604 C   0  0  0  0  0  0  0  0  0  0  0  0
   11.9646    6.0299   21.4251 C   0  0  0  0  0  0  0  0  0  0  0  0
  1  5  1  0
  1 13  1  0
  2 20  2  0
  2 28  1  0
  2 29  1  0
  3 19  4  0
  3 25  4  0
  4 23  4  0
  4 27  1  0
  4 30  4  0
  5 17  1  0
  6  8  1  0
  6 29  1  0
  7 24  4  0
  7 26  4  0
  8 28  1  0
  9 13  2  0
 10 18  1  0
 10 21  4  0
 10 30  4  0
 11 17  2  0
 12 18  1  0
 13 15  1  0
 14 24  1  0
 15 25  1  0
 16 28  2  0
 17 20  1  0
 19 24  4  0
 20 23  1  0
 21 22  4  0
 22 23  4  0
 25 26  4  0
 27 29  2  0
M  END
$$$$

 Created by Python create_sdf_string function

 30 33  0  0  0  0  0  0  0  0999 V2000
    8.3036    9.8571   18.4133 C   0  0  0  0  0  0  0  0  0  0  0  0
    8.3694    7.6612   22.6703 C   0  0  0  0  0  0  0  0  0  0  0  0
    8.4143    6.6863   16.2273 C   0  0  0  0  0  0  0  0  0  0  0  0
   10.7581    6.5674   21.7636 C   0  0  0  0  0  0  0  0  0  0  0  0
    8.4452    8.7960   19.2958 O   0  0  0  0  0  0  0  0  0  0  0  0
    8.7122    6.7842   24.8569 C   0  0  0  0  0  0  0  0  0  0  0  0
   10.3400    6.1726   14.3081 C   0  0  0  0  0  0  0  0  0  0  0  0
    7.4297    7.5873   24.8962 C   0  0  0  0  0  0  0  0  0  0  0  0
    8.1566   10.0536   16.0516 O   0  0  0  0  0  0  0  0  0  0  0  0
   12.4989    6.2074   20.1776 C   0  0  0  0  0  0  0  0  0  0  0  0
    6.9192    9.1053   20.9073 O   0  0  0  0  0  0  0  0  0  0  0  0
   14.3979    6.0729   18.7784 C   0  0  0  0  0  0  0  0  0  0  0  0
    8.6811    9.5354   16.9998 C   0  0  0  0  0  0  0  0  0  0  0  0
    9.2512    4.2713   13.7653 O   0  0  0  0  0  0  0  0  0  0  0  0
    9.6495    8.6317   16.8332 N   0  0  0  0  0  0  0  0  0  0  0  0
    6.2934    8.6988   23.1988 O   0  0  0  0  0  0  0  0  0  0  0  0
    7.9806    8.6543   20.5437 C   0  0  0  0  0  0  0  0  0  0  0  0
   13.7270    5.7144   19.8610 O   0  0  0  0  0  0  0  0  0  0  0  0
    8.3351    5.5235   15.4478 C   0  0  0  0  0  0  0  0  0  0  0  0
    8.7700    7.8434   21.3915 C   0  0  0  0  0  0  0  0  0  0  0  0
   11.7856    6.8851   19.2401 C   0  0  0  0  0  0  0  0  0  0  0  0
   10.5281    7.4276   19.5649 C   0  0  0  0  0  0  0  0  0  0  0  0
   10.0256    7.2907   20.8484 C   0  0  0  0  0  0  0  0  0  0  0  0
    9.3113    5.3049   14.4911 C   0  0  0  0  0  0  0  0  0  0  0  0
    9.4607    7.5646   16.0139 C   0  0  0  0  0  0  0  0  0  0  0  0
   10.4192    7.3157   15.0955 C   0  0  0  0  0  0  0  0  0  0  0  0
   10.2489    6.4227   23.0218 N   0  0  0  0  0  0  0  0  0  0  0  0
    7.2472    8.0746   23.5050 C   0  0  0  0  0  0  0  0  0  0  0  0
    9.2051    6.9101   23.4604 C   0  0  0  0  0  0  0  0  0  0  0  0
   11.9646    6.0299   21.4251 C   0  0  0  0  0  0  0  0  0  0  0  0
  1  5  1  0
  1 13  1  0
  2 20  2  0
  2 28  1  0
  2 29  1  0
  3 19  4  0
  3 25  4  0
  4 23  4  0
  4 27  1  0
  4 30  4  0
  5 17  1  0
  6  8  1  0
  6 29  1  0
  7 24  4  0
  7 26  4  0
  8 28  1  0
  9 13  2  0
 10 18  1  0
 10 21  4  0
 10 30  4  0
 11 17  2  0
 12 18  1  0
 13 15  1  0
 14 24  1  0
 15 25  1  0
 16 28  2  0
 17 20  1  0
 19 24  4  0
 20 23  1  0
 21 22  4  0
 22 23  4  0
 25 26  4  0
 27 29  2  0
M  END
$$$$

 Created by Python create_sdf_string function

 30 33  0  0  0  0  0  0  0  0999 V2000
    8.3036    9.8571   18.4133 C   0  0  0  0  0  0  0  0  0  0  0  0
    8.3694    7.6612   22.6703 C   0  0  0  0  0  0  0  0  0  0  0  0
    8.4143    6.6863   16.2273 C   0  0  0  0  0  0  0  0  0  0  0  0
   10.7581    6.5674   21.7636 C   0  0  0  0  0  0  0  0  0  0  0  0
    8.4452    8.7960   19.2958 O   0  0  0  0  0  0  0  0  0  0  0  0
    8.7122    6.7842   24.8569 C   0  0  0  0  0  0  0  0  0  0  0  0
   10.3400    6.1726   14.3081 C   0  0  0  0  0  0  0  0  0  0  0  0
    7.4297    7.5873   24.8962 C   0  0  0  0  0  0  0  0  0  0  0  0
    8.1566   10.0536   16.0516 O   0  0  0  0  0  0  0  0  0  0  0  0
   12.4989    6.2074   20.1776 C   0  0  0  0  0  0  0  0  0  0  0  0
    6.9192    9.1053   20.9073 O   0  0  0  0  0  0  0  0  0  0  0  0
   14.3979    6.0729   18.7784 C   0  0  0  0  0  0  0  0  0  0  0  0
    8.6811    9.5354   16.9998 C   0  0  0  0  0  0  0  0  0  0  0  0
    9.2512    4.2713   13.7653 O   0  0  0  0  0  0  0  0  0  0  0  0
    9.6495    8.6317   16.8332 N   0  0  0  0  0  0  0  0  0  0  0  0
    6.2934    8.6988   23.1988 O   0  0  0  0  0  0  0  0  0  0  0  0
    7.9806    8.6543   20.5437 C   0  0  0  0  0  0  0  0  0  0  0  0
   13.7270    5.7144   19.8610 O   0  0  0  0  0  0  0  0  0  0  0  0
    8.3351    5.5235   15.4478 C   0  0  0  0  0  0  0  0  0  0  0  0
    8.7700    7.8434   21.3915 C   0  0  0  0  0  0  0  0  0  0  0  0
   11.7856    6.8851   19.2401 C   0  0  0  0  0  0  0  0  0  0  0  0
   10.5281    7.4276   19.5649 C   0  0  0  0  0  0  0  0  0  0  0  0
   10.0256    7.2907   20.8484 C   0  0  0  0  0  0  0  0  0  0  0  0
    9.3113    5.3049   14.4911 C   0  0  0  0  0  0  0  0  0  0  0  0
    9.4607    7.5646   16.0139 C   0  0  0  0  0  0  0  0  0  0  0  0
   10.4192    7.3157   15.0955 C   0  0  0  0  0  0  0  0  0  0  0  0
   10.2489    6.4227   23.0218 N   0  0  0  0  0  0  0  0  0  0  0  0
    7.2472    8.0746   23.5050 C   0  0  0  0  0  0  0  0  0  0  0  0
    9.2051    6.9101   23.4604 C   0  0  0  0  0  0  0  0  0  0  0  0
   11.9646    6.0299   21.4251 C   0  0  0  0  0  0  0  0  0  0  0  0
  1  5  1  0
  1 13  1  0
  2 20  2  0
  2 28  1  0
  2 29  1  0
  3 19  4  0
  3 25  4  0
  4 23  4  0
  4 27  1  0
  4 30  4  0
  5 17  1  0
  6  8  1  0
  6 29  1  0
  7 24  4  0
  7 26  4  0
  8 28  1  0
  9 13  2  0
 10 18  1  0
 10 21  4  0
 10 30  4  0
 11 17  2  0
 12 18  1  0
 13 15  1  0
 14 24  1  0
 15 25  1  0
 16 28  2  0
 17 20  1  0
 19 24  4  0
 20 23  1  0
 21 22  4  0
 22 23  4  0
 25 26  4  0
 27 29  2  0
M  END
$$$$

 Created by Python create_sdf_string function

 30 33  0  0  0  0  0  0  0  0999 V2000
    8.3036    9.8571   18.4133 C   0  0  0  0  0  0  0  0  0  0  0  0
    8.3694    7.6612   22.6703 C   0  0  0  0  0  0  0  0  0  0  0  0
    8.4143    6.6863   16.2273 C   0  0  0  0  0  0  0  0  0  0  0  0
   10.7581    6.5674   21.7636 C   0  0  0  0  0  0  0  0  0  0  0  0
    8.4452    8.7960   19.2958 O   0  0  0  0  0  0  0  0  0  0  0  0
    8.7122    6.7842   24.8569 C   0  0  0  0  0  0  0  0  0  0  0  0
   10.3400    6.1726   14.3081 C   0  0  0  0  0  0  0  0  0  0  0  0
    7.4297    7.5873   24.8962 C   0  0  0  0  0  0  0  0  0  0  0  0
    8.1566   10.0536   16.0516 O   0  0  0  0  0  0  0  0  0  0  0  0
   12.4989    6.2074   20.1776 C   0  0  0  0  0  0  0  0  0  0  0  0
    6.9192    9.1053   20.9073 O   0  0  0  0  0  0  0  0  0  0  0  0
   14.3979    6.0729   18.7784 C   0  0  0  0  0  0  0  0  0  0  0  0
    8.6811    9.5354   16.9998 C   0  0  0  0  0  0  0  0  0  0  0  0
    9.2512    4.2713   13.7653 O   0  0  0  0  0  0  0  0  0  0  0  0
    9.6495    8.6317   16.8332 N   0  0  0  0  0  0  0  0  0  0  0  0
    6.2934    8.6988   23.1988 O   0  0  0  0  0  0  0  0  0  0  0  0
    7.9806    8.6543   20.5437 C   0  0  0  0  0  0  0  0  0  0  0  0
   13.7270    5.7144   19.8610 O   0  0  0  0  0  0  0  0  0  0  0  0
    8.3351    5.5235   15.4478 C   0  0  0  0  0  0  0  0  0  0  0  0
    8.7700    7.8434   21.3915 C   0  0  0  0  0  0  0  0  0  0  0  0
   11.7856    6.8851   19.2401 C   0  0  0  0  0  0  0  0  0  0  0  0
   10.5281    7.4276   19.5649 C   0  0  0  0  0  0  0  0  0  0  0  0
   10.0256    7.2907   20.8484 C   0  0  0  0  0  0  0  0  0  0  0  0
    9.3113    5.3049   14.4911 C   0  0  0  0  0  0  0  0  0  0  0  0
    9.4607    7.5646   16.0139 C   0  0  0  0  0  0  0  0  0  0  0  0
   10.4192    7.3157   15.0955 C   0  0  0  0  0  0  0  0  0  0  0  0
   10.2489    6.4227   23.0218 N   0  0  0  0  0  0  0  0  0  0  0  0
    7.2472    8.0746   23.5050 C   0  0  0  0  0  0  0  0  0  0  0  0
    9.2051    6.9101   23.4604 C   0  0  0  0  0  0  0  0  0  0  0  0
   11.9646    6.0299   21.4251 C   0  0  0  0  0  0  0  0  0  0  0  0
  1  5  1  0
  1 13  1  0
  2 20  2  0
  2 28  1  0
  2 29  1  0
  3 19  4  0
  3 25  4  0
  4 23  4  0
  4 27  1  0
  4 30  4  0
  5 17  1  0
  6  8  1  0
  6 29  1  0
  7 24  4  0
  7 26  4  0
  8 28  1  0
  9 13  2  0
 10 18  1  0
 10 21  4  0
 10 30  4  0
 11 17  2  0
 12 18  1  0
 13 15  1  0
 14 24  1  0
 15 25  1  0
 16 28  2  0
 17 20  1  0
 19 24  4  0
 20 23  1  0
 21 22  4  0
 22 23  4  0
 25 26  4  0
 27 29  2  0
M  END
$$$$

 Created by Python create_sdf_string function

 30 33  0  0  0  0  0  0  0  0999 V2000
    8.3036    9.8571   18.4133 C   0  0  0  0  0  0  0  0  0  0  0  0
    8.3694    7.6612   22.6703 C   0  0  0  0  0  0  0  0  0  0  0  0
    8.4143    6.6863   16.2273 C   0  0  0  0  0  0  0  0  0  0  0  0
   10.7581    6.5674   21.7636 C   0  0  0  0  0  0  0  0  0  0  0  0
    8.4452    8.7960   19.2958 O   0  0  0  0  0  0  0  0  0  0  0  0
    8.7122    6.7842   24.8569 C   0  0  0  0  0  0  0  0  0  0  0  0
   10.3400    6.1726   14.3081 C   0  0  0  0  0  0  0  0  0  0  0  0
    7.4297    7.5873   24.8962 C   0  0  0  0  0  0  0  0  0  0  0  0
    8.1566   10.0536   16.0516 O   0  0  0  0  0  0  0  0  0  0  0  0
   12.4989    6.2074   20.1776 C   0  0  0  0  0  0  0  0  0  0  0  0
    6.9192    9.1053   20.9073 O   0  0  0  0  0  0  0  0  0  0  0  0
   14.3979    6.0729   18.7784 C   0  0  0  0  0  0  0  0  0  0  0  0
    8.6811    9.5354   16.9998 C   0  0  0  0  0  0  0  0  0  0  0  0
    9.2512    4.2713   13.7653 O   0  0  0  0  0  0  0  0  0  0  0  0
    9.6495    8.6317   16.8332 N   0  0  0  0  0  0  0  0  0  0  0  0
    6.2934    8.6988   23.1988 O   0  0  0  0  0  0  0  0  0  0  0  0
    7.9806    8.6543   20.5437 C   0  0  0  0  0  0  0  0  0  0  0  0
   13.7270    5.7144   19.8610 O   0  0  0  0  0  0  0  0  0  0  0  0
    8.3351    5.5235   15.4478 C   0  0  0  0  0  0  0  0  0  0  0  0
    8.7700    7.8434   21.3915 C   0  0  0  0  0  0  0  0  0  0  0  0
   11.7856    6.8851   19.2401 C   0  0  0  0  0  0  0  0  0  0  0  0
   10.5281    7.4276   19.5649 C   0  0  0  0  0  0  0  0  0  0  0  0
   10.0256    7.2907   20.8484 C   0  0  0  0  0  0  0  0  0  0  0  0
    9.3113    5.3049   14.4911 C   0  0  0  0  0  0  0  0  0  0  0  0
    9.4607    7.5646   16.0139 C   0  0  0  0  0  0  0  0  0  0  0  0
   10.4192    7.3157   15.0955 C   0  0  0  0  0  0  0  0  0  0  0  0
   10.2489    6.4227   23.0218 N   0  0  0  0  0  0  0  0  0  0  0  0
    7.2472    8.0746   23.5050 C   0  0  0  0  0  0  0  0  0  0  0  0
    9.2051    6.9101   23.4604 C   0  0  0  0  0  0  0  0  0  0  0  0
   11.9646    6.0299   21.4251 C   0  0  0  0  0  0  0  0  0  0  0  0
  1  5  1  0
  1 13  1  0
  2 20  2  0
  2 28  1  0
  2 29  1  0
  3 19  4  0
  3 25  4  0
  4 23  4  0
  4 27  1  0
  4 30  4  0
  5 17  1  0
  6  8  1  0
  6 29  1  0
  7 24  4  0
  7 26  4  0
  8 28  1  0
  9 13  2  0
 10 18  1  0
 10 21  4  0
 10 30  4  0
 11 17  2  0
 12 18  1  0
 13 15  1  0
 14 24  1  0
 15 25  1  0
 16 28  2  0
 17 20  1  0
 19 24  4  0
 20 23  1  0
 21 22  4  0
 22 23  4  0
 25 26  4  0
 27 29  2  0
M  END
$$$$

 Created by Python create_sdf_string function

 30 33  0  0  0  0  0  0  0  0999 V2000
    8.3036    9.8571   18.4133 C   0  0  0  0  0  0  0  0  0  0  0  0
    8.3694    7.6612   22.6703 C   0  0  0  0  0  0  0  0  0  0  0  0
    8.4143    6.6863   16.2273 C   0  0  0  0  0  0  0  0  0  0  0  0
   10.7581    6.5674   21.7636 C   0  0  0  0  0  0  0  0  0  0  0  0
    8.4452    8.7960   19.2958 O   0  0  0  0  0  0  0  0  0  0  0  0
    8.7122    6.7842   24.8569 C   0  0  0  0  0  0  0  0  0  0  0  0
   10.3400    6.1726   14.3081 C   0  0  0  0  0  0  0  0  0  0  0  0
    7.4297    7.5873   24.8962 C   0  0  0  0  0  0  0  0  0  0  0  0
    8.1566   10.0536   16.0516 O   0  0  0  0  0  0  0  0  0  0  0  0
   12.4989    6.2074   20.1776 C   0  0  0  0  0  0  0  0  0  0  0  0
    6.9192    9.1053   20.9073 O   0  0  0  0  0  0  0  0  0  0  0  0
   14.3979    6.0729   18.7784 C   0  0  0  0  0  0  0  0  0  0  0  0
    8.6811    9.5354   16.9998 C   0  0  0  0  0  0  0  0  0  0  0  0
    9.2512    4.2713   13.7653 O   0  0  0  0  0  0  0  0  0  0  0  0
    9.6495    8.6317   16.8332 N   0  0  0  0  0  0  0  0  0  0  0  0
    6.2934    8.6988   23.1988 O   0  0  0  0  0  0  0  0  0  0  0  0
    7.9806    8.6543   20.5437 C   0  0  0  0  0  0  0  0  0  0  0  0
   13.7270    5.7144   19.8610 O   0  0  0  0  0  0  0  0  0  0  0  0
    8.3351    5.5235   15.4478 C   0  0  0  0  0  0  0  0  0  0  0  0
    8.7700    7.8434   21.3915 C   0  0  0  0  0  0  0  0  0  0  0  0
   11.7856    6.8851   19.2401 C   0  0  0  0  0  0  0  0  0  0  0  0
   10.5281    7.4276   19.5649 C   0  0  0  0  0  0  0  0  0  0  0  0
   10.0256    7.2907   20.8484 C   0  0  0  0  0  0  0  0  0  0  0  0
    9.3113    5.3049   14.4911 C   0  0  0  0  0  0  0  0  0  0  0  0
    9.4607    7.5646   16.0139 C   0  0  0  0  0  0  0  0  0  0  0  0
   10.4192    7.3157   15.0955 C   0  0  0  0  0  0  0  0  0  0  0  0
   10.2489    6.4227   23.0218 N   0  0  0  0  0  0  0  0  0  0  0  0
    7.2472    8.0746   23.5050 C   0  0  0  0  0  0  0  0  0  0  0  0
    9.2051    6.9101   23.4604 C   0  0  0  0  0  0  0  0  0  0  0  0
   11.9646    6.0299   21.4251 C   0  0  0  0  0  0  0  0  0  0  0  0
  1  5  1  0
  1 13  1  0
  2 20  2  0
  2 28  1  0
  2 29  1  0
  3 19  4  0
  3 25  4  0
  4 23  4  0
  4 27  1  0
  4 30  4  0
  5 17  1  0
  6  8  1  0
  6 29  1  0
  7 24  4  0
  7 26  4  0
  8 28  1  0
  9 13  2  0
 10 18  1  0
 10 21  4  0
 10 30  4  0
 11 17  2  0
 12 18  1  0
 13 15  1  0
 14 24  1  0
 15 25  1  0
 16 28  2  0
 17 20  1  0
 19 24  4  0
 20 23  1  0
 21 22  4  0
 22 23  4  0
 25 26  4  0
 27 29  2  0
M  END
$$$$

 Created by Python create_sdf_string function

 30 33  0  0  0  0  0  0  0  0999 V2000
    8.3036    9.8571   18.4133 C   0  0  0  0  0  0  0  0  0  0  0  0
    8.3694    7.6612   22.6703 C   0  0  0  0  0  0  0  0  0  0  0  0
    8.4143    6.6863   16.2273 C   0  0  0  0  0  0  0  0  0  0  0  0
   10.7581    6.5674   21.7636 C   0  0  0  0  0  0  0  0  0  0  0  0
    8.4452    8.7960   19.2958 O   0  0  0  0  0  0  0  0  0  0  0  0
    8.7122    6.7842   24.8569 C   0  0  0  0  0  0  0  0  0  0  0  0
   10.3400    6.1726   14.3081 C   0  0  0  0  0  0  0  0  0  0  0  0
    7.4297    7.5873   24.8962 C   0  0  0  0  0  0  0  0  0  0  0  0
    8.1566   10.0536   16.0516 O   0  0  0  0  0  0  0  0  0  0  0  0
   12.4989    6.2074   20.1776 C   0  0  0  0  0  0  0  0  0  0  0  0
    6.9192    9.1053   20.9073 O   0  0  0  0  0  0  0  0  0  0  0  0
   14.3979    6.0729   18.7784 C   0  0  0  0  0  0  0  0  0  0  0  0
    8.6811    9.5354   16.9998 C   0  0  0  0  0  0  0  0  0  0  0  0
    9.2512    4.2713   13.7653 O   0  0  0  0  0  0  0  0  0  0  0  0
    9.6495    8.6317   16.8332 N   0  0  0  0  0  0  0  0  0  0  0  0
    6.2934    8.6988   23.1988 O   0  0  0  0  0  0  0  0  0  0  0  0
    7.9806    8.6543   20.5437 C   0  0  0  0  0  0  0  0  0  0  0  0
   13.7270    5.7144   19.8610 O   0  0  0  0  0  0  0  0  0  0  0  0
    8.3351    5.5235   15.4478 C   0  0  0  0  0  0  0  0  0  0  0  0
    8.7700    7.8434   21.3915 C   0  0  0  0  0  0  0  0  0  0  0  0
   11.7856    6.8851   19.2401 C   0  0  0  0  0  0  0  0  0  0  0  0
   10.5281    7.4276   19.5649 C   0  0  0  0  0  0  0  0  0  0  0  0
   10.0256    7.2907   20.8484 C   0  0  0  0  0  0  0  0  0  0  0  0
    9.3113    5.3049   14.4911 C   0  0  0  0  0  0  0  0  0  0  0  0
    9.4607    7.5646   16.0139 C   0  0  0  0  0  0  0  0  0  0  0  0
   10.4192    7.3157   15.0955 C   0  0  0  0  0  0  0  0  0  0  0  0
   10.2489    6.4227   23.0218 N   0  0  0  0  0  0  0  0  0  0  0  0
    7.2472    8.0746   23.5050 C   0  0  0  0  0  0  0  0  0  0  0  0
    9.2051    6.9101   23.4604 C   0  0  0  0  0  0  0  0  0  0  0  0
   11.9646    6.0299   21.4251 C   0  0  0  0  0  0  0  0  0  0  0  0
  1  5  1  0
  1 13  1  0
  2 20  2  0
  2 28  1  0
  2 29  1  0
  3 19  4  0
  3 25  4  0
  4 23  4  0
  4 27  1  0
  4 30  4  0
  5 17  1  0
  6  8  1  0
  6 29  1  0
  7 24  4  0
  7 26  4  0
  8 28  1  0
  9 13  2  0
 10 18  1  0
 10 21  4  0
 10 30  4  0
 11 17  2  0
 12 18  1  0
 13 15  1  0
 14 24  1  0
 15 25  1  0
 16 28  2  0
 17 20  1  0
 19 24  4  0
 20 23  1  0
 21 22  4  0
 22 23  4  0
 25 26  4  0
 27 29  2  0
M  END
$$$$

 Created by Python create_sdf_string function

 30 33  0  0  0  0  0  0  0  0999 V2000
    8.3036    9.8571   18.4133 C   0  0  0  0  0  0  0  0  0  0  0  0
    8.3694    7.6612   22.6703 C   0  0  0  0  0  0  0  0  0  0  0  0
    8.4143    6.6863   16.2273 C   0  0  0  0  0  0  0  0  0  0  0  0
   10.7581    6.5674   21.7636 C   0  0  0  0  0  0  0  0  0  0  0  0
    8.4452    8.7960   19.2958 O   0  0  0  0  0  0  0  0  0  0  0  0
    8.7122    6.7842   24.8569 C   0  0  0  0  0  0  0  0  0  0  0  0
   10.3400    6.1726   14.3081 C   0  0  0  0  0  0  0  0  0  0  0  0
    7.4297    7.5873   24.8962 C   0  0  0  0  0  0  0  0  0  0  0  0
    8.1566   10.0536   16.0516 O   0  0  0  0  0  0  0  0  0  0  0  0
   12.4989    6.2074   20.1776 C   0  0  0  0  0  0  0  0  0  0  0  0
    6.9192    9.1053   20.9073 O   0  0  0  0  0  0  0  0  0  0  0  0
   14.3979    6.0729   18.7784 C   0  0  0  0  0  0  0  0  0  0  0  0
    8.6811    9.5354   16.9998 C   0  0  0  0  0  0  0  0  0  0  0  0
    9.2512    4.2713   13.7653 O   0  0  0  0  0  0  0  0  0  0  0  0
    9.6495    8.6317   16.8332 N   0  0  0  0  0  0  0  0  0  0  0  0
    6.2934    8.6988   23.1988 O   0  0  0  0  0  0  0  0  0  0  0  0
    7.9806    8.6543   20.5437 C   0  0  0  0  0  0  0  0  0  0  0  0
   13.7270    5.7144   19.8610 O   0  0  0  0  0  0  0  0  0  0  0  0
    8.3351    5.5235   15.4478 C   0  0  0  0  0  0  0  0  0  0  0  0
    8.7700    7.8434   21.3915 C   0  0  0  0  0  0  0  0  0  0  0  0
   11.7856    6.8851   19.2401 C   0  0  0  0  0  0  0  0  0  0  0  0
   10.5281    7.4276   19.5649 C   0  0  0  0  0  0  0  0  0  0  0  0
   10.0256    7.2907   20.8484 C   0  0  0  0  0  0  0  0  0  0  0  0
    9.3113    5.3049   14.4911 C   0  0  0  0  0  0  0  0  0  0  0  0
    9.4607    7.5646   16.0139 C   0  0  0  0  0  0  0  0  0  0  0  0
   10.4192    7.3157   15.0955 C   0  0  0  0  0  0  0  0  0  0  0  0
   10.2489    6.4227   23.0218 N   0  0  0  0  0  0  0  0  0  0  0  0
    7.2472    8.0746   23.5050 C   0  0  0  0  0  0  0  0  0  0  0  0
    9.2051    6.9101   23.4604 C   0  0  0  0  0  0  0  0  0  0  0  0
   11.9646    6.0299   21.4251 C   0  0  0  0  0  0  0  0  0  0  0  0
  1  5  1  0
  1 13  1  0
  2 20  2  0
  2 28  1  0
  2 29  1  0
  3 19  4  0
  3 25  4  0
  4 23  4  0
  4 27  1  0
  4 30  4  0
  5 17  1  0
  6  8  1  0
  6 29  1  0
  7 24  4  0
  7 26  4  0
  8 28  1  0
  9 13  2  0
 10 18  1  0
 10 21  4  0
 10 30  4  0
 11 17  2  0
 12 18  1  0
 13 15  1  0
 14 24  1  0
 15 25  1  0
 16 28  2  0
 17 20  1  0
 19 24  4  0
 20 23  1  0
 21 22  4  0
 22 23  4  0
 25 26  4  0
 27 29  2  0
M  END
$$$$

 Created by Python create_sdf_string function

 30 33  0  0  0  0  0  0  0  0999 V2000
    8.3036    9.8571   18.4133 C   0  0  0  0  0  0  0  0  0  0  0  0
    8.3694    7.6612   22.6703 C   0  0  0  0  0  0  0  0  0  0  0  0
    8.4143    6.6863   16.2273 C   0  0  0  0  0  0  0  0  0  0  0  0
   10.7581    6.5674   21.7636 C   0  0  0  0  0  0  0  0  0  0  0  0
    8.4452    8.7960   19.2958 O   0  0  0  0  0  0  0  0  0  0  0  0
    8.7122    6.7842   24.8569 C   0  0  0  0  0  0  0  0  0  0  0  0
   10.3400    6.1726   14.3081 C   0  0  0  0  0  0  0  0  0  0  0  0
    7.4297    7.5873   24.8962 C   0  0  0  0  0  0  0  0  0  0  0  0
    8.1566   10.0536   16.0516 O   0  0  0  0  0  0  0  0  0  0  0  0
   12.4989    6.2074   20.1776 C   0  0  0  0  0  0  0  0  0  0  0  0
    6.9192    9.1053   20.9073 O   0  0  0  0  0  0  0  0  0  0  0  0
   14.3979    6.0729   18.7784 C   0  0  0  0  0  0  0  0  0  0  0  0
    8.6811    9.5354   16.9998 C   0  0  0  0  0  0  0  0  0  0  0  0
    9.2512    4.2713   13.7653 O   0  0  0  0  0  0  0  0  0  0  0  0
    9.6495    8.6317   16.8332 N   0  0  0  0  0  0  0  0  0  0  0  0
    6.2934    8.6988   23.1988 O   0  0  0  0  0  0  0  0  0  0  0  0
    7.9806    8.6543   20.5437 C   0  0  0  0  0  0  0  0  0  0  0  0
   13.7270    5.7144   19.8610 O   0  0  0  0  0  0  0  0  0  0  0  0
    8.3351    5.5235   15.4478 C   0  0  0  0  0  0  0  0  0  0  0  0
    8.7700    7.8434   21.3915 C   0  0  0  0  0  0  0  0  0  0  0  0
   11.7856    6.8851   19.2401 C   0  0  0  0  0  0  0  0  0  0  0  0
   10.5281    7.4276   19.5649 C   0  0  0  0  0  0  0  0  0  0  0  0
   10.0256    7.2907   20.8484 C   0  0  0  0  0  0  0  0  0  0  0  0
    9.3113    5.3049   14.4911 C   0  0  0  0  0  0  0  0  0  0  0  0
    9.4607    7.5646   16.0139 C   0  0  0  0  0  0  0  0  0  0  0  0
   10.4192    7.3157   15.0955 C   0  0  0  0  0  0  0  0  0  0  0  0
   10.2489    6.4227   23.0218 N   0  0  0  0  0  0  0  0  0  0  0  0
    7.2472    8.0746   23.5050 C   0  0  0  0  0  0  0  0  0  0  0  0
    9.2051    6.9101   23.4604 C   0  0  0  0  0  0  0  0  0  0  0  0
   11.9646    6.0299   21.4251 C   0  0  0  0  0  0  0  0  0  0  0  0
  1  5  1  0
  1 13  1  0
  2 20  2  0
  2 28  1  0
  2 29  1  0
  3 19  4  0
  3 25  4  0
  4 23  4  0
  4 27  1  0
  4 30  4  0
  5 17  1  0
  6  8  1  0
  6 29  1  0
  7 24  4  0
  7 26  4  0
  8 28  1  0
  9 13  2  0
 10 18  1  0
 10 21  4  0
 10 30  4  0
 11 17  2  0
 12 18  1  0
 13 15  1  0
 14 24  1  0
 15 25  1  0
 16 28  2  0
 17 20  1  0
 19 24  4  0
 20 23  1  0
 21 22  4  0
 22 23  4  0
 25 26  4  0
 27 29  2  0
M  END
$$$$

 Created by Python create_sdf_string function

 30 33  0  0  0  0  0  0  0  0999 V2000
    8.3036    9.8571   18.4133 C   0  0  0  0  0  0  0  0  0  0  0  0
    8.3694    7.6612   22.6703 C   0  0  0  0  0  0  0  0  0  0  0  0
    8.4143    6.6863   16.2273 C   0  0  0  0  0  0  0  0  0  0  0  0
   10.7581    6.5674   21.7636 C   0  0  0  0  0  0  0  0  0  0  0  0
    8.4452    8.7960   19.2958 O   0  0  0  0  0  0  0  0  0  0  0  0
    8.7122    6.7842   24.8569 C   0  0  0  0  0  0  0  0  0  0  0  0
   10.3400    6.1726   14.3081 C   0  0  0  0  0  0  0  0  0  0  0  0
    7.4297    7.5873   24.8962 C   0  0  0  0  0  0  0  0  0  0  0  0
    8.1566   10.0536   16.0516 O   0  0  0  0  0  0  0  0  0  0  0  0
   12.4989    6.2074   20.1776 C   0  0  0  0  0  0  0  0  0  0  0  0
    6.9192    9.1053   20.9073 O   0  0  0  0  0  0  0  0  0  0  0  0
   14.3979    6.0729   18.7784 C   0  0  0  0  0  0  0  0  0  0  0  0
    8.6811    9.5354   16.9998 C   0  0  0  0  0  0  0  0  0  0  0  0
    9.2512    4.2713   13.7653 O   0  0  0  0  0  0  0  0  0  0  0  0
    9.6495    8.6317   16.8332 N   0  0  0  0  0  0  0  0  0  0  0  0
    6.2934    8.6988   23.1988 O   0  0  0  0  0  0  0  0  0  0  0  0
    7.9806    8.6543   20.5437 C   0  0  0  0  0  0  0  0  0  0  0  0
   13.7270    5.7144   19.8610 O   0  0  0  0  0  0  0  0  0  0  0  0
    8.3351    5.5235   15.4478 C   0  0  0  0  0  0  0  0  0  0  0  0
    8.7700    7.8434   21.3915 C   0  0  0  0  0  0  0  0  0  0  0  0
   11.7856    6.8851   19.2401 C   0  0  0  0  0  0  0  0  0  0  0  0
   10.5281    7.4276   19.5649 C   0  0  0  0  0  0  0  0  0  0  0  0
   10.0256    7.2907   20.8484 C   0  0  0  0  0  0  0  0  0  0  0  0
    9.3113    5.3049   14.4911 C   0  0  0  0  0  0  0  0  0  0  0  0
    9.4607    7.5646   16.0139 C   0  0  0  0  0  0  0  0  0  0  0  0
   10.4192    7.3157   15.0955 C   0  0  0  0  0  0  0  0  0  0  0  0
   10.2489    6.4227   23.0218 N   0  0  0  0  0  0  0  0  0  0  0  0
    7.2472    8.0746   23.5050 C   0  0  0  0  0  0  0  0  0  0  0  0
    9.2051    6.9101   23.4604 C   0  0  0  0  0  0  0  0  0  0  0  0
   11.9646    6.0299   21.4251 C   0  0  0  0  0  0  0  0  0  0  0  0
  1  5  1  0
  1 13  1  0
  2 20  2  0
  2 28  1  0
  2 29  1  0
  3 19  4  0
  3 25  4  0
  4 23  4  0
  4 27  1  0
  4 30  4  0
  5 17  1  0
  6  8  1  0
  6 29  1  0
  7 24  4  0
  7 26  4  0
  8 28  1  0
  9 13  2  0
 10 18  1  0
 10 21  4  0
 10 30  4  0
 11 17  2  0
 12 18  1  0
 13 15  1  0
 14 24  1  0
 15 25  1  0
 16 28  2  0
 17 20  1  0
 19 24  4  0
 20 23  1  0
 21 22  4  0
 22 23  4  0
 25 26  4  0
 27 29  2  0
M  END
$$$$

 Created by Python create_sdf_string function

 30 33  0  0  0  0  0  0  0  0999 V2000
    8.3036    9.8571   18.4133 C   0  0  0  0  0  0  0  0  0  0  0  0
    8.3694    7.6612   22.6703 C   0  0  0  0  0  0  0  0  0  0  0  0
    8.4143    6.6863   16.2273 C   0  0  0  0  0  0  0  0  0  0  0  0
   10.7581    6.5674   21.7636 C   0  0  0  0  0  0  0  0  0  0  0  0
    8.4452    8.7960   19.2958 O   0  0  0  0  0  0  0  0  0  0  0  0
    8.7122    6.7842   24.8569 C   0  0  0  0  0  0  0  0  0  0  0  0
   10.3400    6.1726   14.3081 C   0  0  0  0  0  0  0  0  0  0  0  0
    7.4297    7.5873   24.8962 C   0  0  0  0  0  0  0  0  0  0  0  0
    8.1566   10.0536   16.0516 O   0  0  0  0  0  0  0  0  0  0  0  0
   12.4989    6.2074   20.1776 C   0  0  0  0  0  0  0  0  0  0  0  0
    6.9192    9.1053   20.9073 O   0  0  0  0  0  0  0  0  0  0  0  0
   14.3979    6.0729   18.7784 C   0  0  0  0  0  0  0  0  0  0  0  0
    8.6811    9.5354   16.9998 C   0  0  0  0  0  0  0  0  0  0  0  0
    9.2512    4.2713   13.7653 O   0  0  0  0  0  0  0  0  0  0  0  0
    9.6495    8.6317   16.8332 N   0  0  0  0  0  0  0  0  0  0  0  0
    6.2934    8.6988   23.1988 O   0  0  0  0  0  0  0  0  0  0  0  0
    7.9806    8.6543   20.5437 C   0  0  0  0  0  0  0  0  0  0  0  0
   13.7270    5.7144   19.8610 O   0  0  0  0  0  0  0  0  0  0  0  0
    8.3351    5.5235   15.4478 C   0  0  0  0  0  0  0  0  0  0  0  0
    8.7700    7.8434   21.3915 C   0  0  0  0  0  0  0  0  0  0  0  0
   11.7856    6.8851   19.2401 C   0  0  0  0  0  0  0  0  0  0  0  0
   10.5281    7.4276   19.5649 C   0  0  0  0  0  0  0  0  0  0  0  0
   10.0256    7.2907   20.8484 C   0  0  0  0  0  0  0  0  0  0  0  0
    9.3113    5.3049   14.4911 C   0  0  0  0  0  0  0  0  0  0  0  0
    9.4607    7.5646   16.0139 C   0  0  0  0  0  0  0  0  0  0  0  0
   10.4192    7.3157   15.0955 C   0  0  0  0  0  0  0  0  0  0  0  0
   10.2489    6.4227   23.0218 N   0  0  0  0  0  0  0  0  0  0  0  0
    7.2472    8.0746   23.5050 C   0  0  0  0  0  0  0  0  0  0  0  0
    9.2051    6.9101   23.4604 C   0  0  0  0  0  0  0  0  0  0  0  0
   11.9646    6.0299   21.4251 C   0  0  0  0  0  0  0  0  0  0  0  0
  1  5  1  0
  1 13  1  0
  2 20  2  0
  2 28  1  0
  2 29  1  0
  3 19  4  0
  3 25  4  0
  4 23  4  0
  4 27  1  0
  4 30  4  0
  5 17  1  0
  6  8  1  0
  6 29  1  0
  7 24  4  0
  7 26  4  0
  8 28  1  0
  9 13  2  0
 10 18  1  0
 10 21  4  0
 10 30  4  0
 11 17  2  0
 12 18  1  0
 13 15  1  0
 14 24  1  0
 15 25  1  0
 16 28  2  0
 17 20  1  0
 19 24  4  0
 20 23  1  0
 21 22  4  0
 22 23  4  0
 25 26  4  0
 27 29  2  0
M  END
$$$$

 Created by Python create_sdf_string function

 30 33  0  0  0  0  0  0  0  0999 V2000
    8.3036    9.8571   18.4133 C   0  0  0  0  0  0  0  0  0  0  0  0
    8.3694    7.6612   22.6703 C   0  0  0  0  0  0  0  0  0  0  0  0
    8.4143    6.6863   16.2273 C   0  0  0  0  0  0  0  0  0  0  0  0
   10.7581    6.5674   21.7636 C   0  0  0  0  0  0  0  0  0  0  0  0
    8.4452    8.7960   19.2958 O   0  0  0  0  0  0  0  0  0  0  0  0
    8.7122    6.7842   24.8569 C   0  0  0  0  0  0  0  0  0  0  0  0
   10.3400    6.1726   14.3081 C   0  0  0  0  0  0  0  0  0  0  0  0
    7.4297    7.5873   24.8962 C   0  0  0  0  0  0  0  0  0  0  0  0
    8.1566   10.0536   16.0516 O   0  0  0  0  0  0  0  0  0  0  0  0
   12.4989    6.2074   20.1776 C   0  0  0  0  0  0  0  0  0  0  0  0
    6.9192    9.1053   20.9073 O   0  0  0  0  0  0  0  0  0  0  0  0
   14.3979    6.0729   18.7784 C   0  0  0  0  0  0  0  0  0  0  0  0
    8.6811    9.5354   16.9998 C   0  0  0  0  0  0  0  0  0  0  0  0
    9.2512    4.2713   13.7653 O   0  0  0  0  0  0  0  0  0  0  0  0
    9.6495    8.6317   16.8332 N   0  0  0  0  0  0  0  0  0  0  0  0
    6.2934    8.6988   23.1988 O   0  0  0  0  0  0  0  0  0  0  0  0
    7.9806    8.6543   20.5437 C   0  0  0  0  0  0  0  0  0  0  0  0
   13.7270    5.7144   19.8610 O   0  0  0  0  0  0  0  0  0  0  0  0
    8.3351    5.5235   15.4478 C   0  0  0  0  0  0  0  0  0  0  0  0
    8.7700    7.8434   21.3915 C   0  0  0  0  0  0  0  0  0  0  0  0
   11.7856    6.8851   19.2401 C   0  0  0  0  0  0  0  0  0  0  0  0
   10.5281    7.4276   19.5649 C   0  0  0  0  0  0  0  0  0  0  0  0
   10.0256    7.2907   20.8484 C   0  0  0  0  0  0  0  0  0  0  0  0
    9.3113    5.3049   14.4911 C   0  0  0  0  0  0  0  0  0  0  0  0
    9.4607    7.5646   16.0139 C   0  0  0  0  0  0  0  0  0  0  0  0
   10.4192    7.3157   15.0955 C   0  0  0  0  0  0  0  0  0  0  0  0
   10.2489    6.4227   23.0218 N   0  0  0  0  0  0  0  0  0  0  0  0
    7.2472    8.0746   23.5050 C   0  0  0  0  0  0  0  0  0  0  0  0
    9.2051    6.9101   23.4604 C   0  0  0  0  0  0  0  0  0  0  0  0
   11.9646    6.0299   21.4251 C   0  0  0  0  0  0  0  0  0  0  0  0
  1  5  1  0
  1 13  1  0
  2 20  2  0
  2 28  1  0
  2 29  1  0
  3 19  4  0
  3 25  4  0
  4 23  4  0
  4 27  1  0
  4 30  4  0
  5 17  1  0
  6  8  1  0
  6 29  1  0
  7 24  4  0
  7 26  4  0
  8 28  1  0
  9 13  2  0
 10 18  1  0
 10 21  4  0
 10 30  4  0
 11 17  2  0
 12 18  1  0
 13 15  1  0
 14 24  1  0
 15 25  1  0
 16 28  2  0
 17 20  1  0
 19 24  4  0
 20 23  1  0
 21 22  4  0
 22 23  4  0
 25 26  4  0
 27 29  2  0
M  END
$$$$

 Created by Python create_sdf_string function

 30 33  0  0  0  0  0  0  0  0999 V2000
    8.3036    9.8571   18.4133 C   0  0  0  0  0  0  0  0  0  0  0  0
    8.3694    7.6612   22.6703 C   0  0  0  0  0  0  0  0  0  0  0  0
    8.4143    6.6863   16.2273 C   0  0  0  0  0  0  0  0  0  0  0  0
   10.7581    6.5674   21.7636 C   0  0  0  0  0  0  0  0  0  0  0  0
    8.4452    8.7960   19.2958 O   0  0  0  0  0  0  0  0  0  0  0  0
    8.7122    6.7842   24.8569 C   0  0  0  0  0  0  0  0  0  0  0  0
   10.3400    6.1726   14.3081 C   0  0  0  0  0  0  0  0  0  0  0  0
    7.4297    7.5873   24.8962 C   0  0  0  0  0  0  0  0  0  0  0  0
    8.1566   10.0536   16.0516 O   0  0  0  0  0  0  0  0  0  0  0  0
   12.4989    6.2074   20.1776 C   0  0  0  0  0  0  0  0  0  0  0  0
    6.9192    9.1053   20.9073 O   0  0  0  0  0  0  0  0  0  0  0  0
   14.3979    6.0729   18.7784 C   0  0  0  0  0  0  0  0  0  0  0  0
    8.6811    9.5354   16.9998 C   0  0  0  0  0  0  0  0  0  0  0  0
    9.2512    4.2713   13.7653 O   0  0  0  0  0  0  0  0  0  0  0  0
    9.6495    8.6317   16.8332 N   0  0  0  0  0  0  0  0  0  0  0  0
    6.2934    8.6988   23.1988 O   0  0  0  0  0  0  0  0  0  0  0  0
    7.9806    8.6543   20.5437 C   0  0  0  0  0  0  0  0  0  0  0  0
   13.7270    5.7144   19.8610 O   0  0  0  0  0  0  0  0  0  0  0  0
    8.3351    5.5235   15.4478 C   0  0  0  0  0  0  0  0  0  0  0  0
    8.7700    7.8434   21.3915 C   0  0  0  0  0  0  0  0  0  0  0  0
   11.7856    6.8851   19.2401 C   0  0  0  0  0  0  0  0  0  0  0  0
   10.5281    7.4276   19.5649 C   0  0  0  0  0  0  0  0  0  0  0  0
   10.0256    7.2907   20.8484 C   0  0  0  0  0  0  0  0  0  0  0  0
    9.3113    5.3049   14.4911 C   0  0  0  0  0  0  0  0  0  0  0  0
    9.4607    7.5646   16.0139 C   0  0  0  0  0  0  0  0  0  0  0  0
   10.4192    7.3157   15.0955 C   0  0  0  0  0  0  0  0  0  0  0  0
   10.2489    6.4227   23.0218 N   0  0  0  0  0  0  0  0  0  0  0  0
    7.2472    8.0746   23.5050 C   0  0  0  0  0  0  0  0  0  0  0  0
    9.2051    6.9101   23.4604 C   0  0  0  0  0  0  0  0  0  0  0  0
   11.9646    6.0299   21.4251 C   0  0  0  0  0  0  0  0  0  0  0  0
  1  5  1  0
  1 13  1  0
  2 20  2  0
  2 28  1  0
  2 29  1  0
  3 19  4  0
  3 25  4  0
  4 23  4  0
  4 27  1  0
  4 30  4  0
  5 17  1  0
  6  8  1  0
  6 29  1  0
  7 24  4  0
  7 26  4  0
  8 28  1  0
  9 13  2  0
 10 18  1  0
 10 21  4  0
 10 30  4  0
 11 17  2  0
 12 18  1  0
 13 15  1  0
 14 24  1  0
 15 25  1  0
 16 28  2  0
 17 20  1  0
 19 24  4  0
 20 23  1  0
 21 22  4  0
 22 23  4  0
 25 26  4  0
 27 29  2  0
M  END
$$$$

 Created by Python create_sdf_string function

 30 33  0  0  0  0  0  0  0  0999 V2000
    8.3036    9.8571   18.4133 C   0  0  0  0  0  0  0  0  0  0  0  0
    8.3694    7.6612   22.6703 C   0  0  0  0  0  0  0  0  0  0  0  0
    8.4143    6.6863   16.2273 C   0  0  0  0  0  0  0  0  0  0  0  0
   10.7581    6.5674   21.7636 C   0  0  0  0  0  0  0  0  0  0  0  0
    8.4452    8.7960   19.2958 O   0  0  0  0  0  0  0  0  0  0  0  0
    8.7122    6.7842   24.8569 C   0  0  0  0  0  0  0  0  0  0  0  0
   10.3400    6.1726   14.3081 C   0  0  0  0  0  0  0  0  0  0  0  0
    7.4297    7.5873   24.8962 C   0  0  0  0  0  0  0  0  0  0  0  0
    8.1566   10.0536   16.0516 O   0  0  0  0  0  0  0  0  0  0  0  0
   12.4989    6.2074   20.1776 C   0  0  0  0  0  0  0  0  0  0  0  0
    6.9192    9.1053   20.9073 O   0  0  0  0  0  0  0  0  0  0  0  0
   14.3979    6.0729   18.7784 C   0  0  0  0  0  0  0  0  0  0  0  0
    8.6811    9.5354   16.9998 C   0  0  0  0  0  0  0  0  0  0  0  0
    9.2512    4.2713   13.7653 O   0  0  0  0  0  0  0  0  0  0  0  0
    9.6495    8.6317   16.8332 N   0  0  0  0  0  0  0  0  0  0  0  0
    6.2934    8.6988   23.1988 O   0  0  0  0  0  0  0  0  0  0  0  0
    7.9806    8.6543   20.5437 C   0  0  0  0  0  0  0  0  0  0  0  0
   13.7270    5.7144   19.8610 O   0  0  0  0  0  0  0  0  0  0  0  0
    8.3351    5.5235   15.4478 C   0  0  0  0  0  0  0  0  0  0  0  0
    8.7700    7.8434   21.3915 C   0  0  0  0  0  0  0  0  0  0  0  0
   11.7856    6.8851   19.2401 C   0  0  0  0  0  0  0  0  0  0  0  0
   10.5281    7.4276   19.5649 C   0  0  0  0  0  0  0  0  0  0  0  0
   10.0256    7.2907   20.8484 C   0  0  0  0  0  0  0  0  0  0  0  0
    9.3113    5.3049   14.4911 C   0  0  0  0  0  0  0  0  0  0  0  0
    9.4607    7.5646   16.0139 C   0  0  0  0  0  0  0  0  0  0  0  0
   10.4192    7.3157   15.0955 C   0  0  0  0  0  0  0  0  0  0  0  0
   10.2489    6.4227   23.0218 N   0  0  0  0  0  0  0  0  0  0  0  0
    7.2472    8.0746   23.5050 C   0  0  0  0  0  0  0  0  0  0  0  0
    9.2051    6.9101   23.4604 C   0  0  0  0  0  0  0  0  0  0  0  0
   11.9646    6.0299   21.4251 C   0  0  0  0  0  0  0  0  0  0  0  0
  1  5  1  0
  1 13  1  0
  2 20  2  0
  2 28  1  0
  2 29  1  0
  3 19  4  0
  3 25  4  0
  4 23  4  0
  4 27  1  0
  4 30  4  0
  5 17  1  0
  6  8  1  0
  6 29  1  0
  7 24  4  0
  7 26  4  0
  8 28  1  0
  9 13  2  0
 10 18  1  0
 10 21  4  0
 10 30  4  0
 11 17  2  0
 12 18  1  0
 13 15  1  0
 14 24  1  0
 15 25  1  0
 16 28  2  0
 17 20  1  0
 19 24  4  0
 20 23  1  0
 21 22  4  0
 22 23  4  0
 25 26  4  0
 27 29  2  0
M  END
$$$$

 Created by Python create_sdf_string function

 30 33  0  0  0  0  0  0  0  0999 V2000
    8.3036    9.8571   18.4133 C   0  0  0  0  0  0  0  0  0  0  0  0
    8.3694    7.6612   22.6703 C   0  0  0  0  0  0  0  0  0  0  0  0
    8.4143    6.6863   16.2273 C   0  0  0  0  0  0  0  0  0  0  0  0
   10.7581    6.5674   21.7636 C   0  0  0  0  0  0  0  0  0  0  0  0
    8.4452    8.7960   19.2958 O   0  0  0  0  0  0  0  0  0  0  0  0
    8.7122    6.7842   24.8569 C   0  0  0  0  0  0  0  0  0  0  0  0
   10.3400    6.1726   14.3081 C   0  0  0  0  0  0  0  0  0  0  0  0
    7.4297    7.5873   24.8962 C   0  0  0  0  0  0  0  0  0  0  0  0
    8.1566   10.0536   16.0516 O   0  0  0  0  0  0  0  0  0  0  0  0
   12.4989    6.2074   20.1776 C   0  0  0  0  0  0  0  0  0  0  0  0
    6.9192    9.1053   20.9073 O   0  0  0  0  0  0  0  0  0  0  0  0
   14.3979    6.0729   18.7784 C   0  0  0  0  0  0  0  0  0  0  0  0
    8.6811    9.5354   16.9998 C   0  0  0  0  0  0  0  0  0  0  0  0
    9.2512    4.2713   13.7653 O   0  0  0  0  0  0  0  0  0  0  0  0
    9.6495    8.6317   16.8332 N   0  0  0  0  0  0  0  0  0  0  0  0
    6.2934    8.6988   23.1988 O   0  0  0  0  0  0  0  0  0  0  0  0
    7.9806    8.6543   20.5437 C   0  0  0  0  0  0  0  0  0  0  0  0
   13.7270    5.7144   19.8610 O   0  0  0  0  0  0  0  0  0  0  0  0
    8.3351    5.5235   15.4478 C   0  0  0  0  0  0  0  0  0  0  0  0
    8.7700    7.8434   21.3915 C   0  0  0  0  0  0  0  0  0  0  0  0
   11.7856    6.8851   19.2401 C   0  0  0  0  0  0  0  0  0  0  0  0
   10.5281    7.4276   19.5649 C   0  0  0  0  0  0  0  0  0  0  0  0
   10.0256    7.2907   20.8484 C   0  0  0  0  0  0  0  0  0  0  0  0
    9.3113    5.3049   14.4911 C   0  0  0  0  0  0  0  0  0  0  0  0
    9.4607    7.5646   16.0139 C   0  0  0  0  0  0  0  0  0  0  0  0
   10.4192    7.3157   15.0955 C   0  0  0  0  0  0  0  0  0  0  0  0
   10.2489    6.4227   23.0218 N   0  0  0  0  0  0  0  0  0  0  0  0
    7.2472    8.0746   23.5050 C   0  0  0  0  0  0  0  0  0  0  0  0
    9.2051    6.9101   23.4604 C   0  0  0  0  0  0  0  0  0  0  0  0
   11.9646    6.0299   21.4251 C   0  0  0  0  0  0  0  0  0  0  0  0
  1  5  1  0
  1 13  1  0
  2 20  2  0
  2 28  1  0
  2 29  1  0
  3 19  4  0
  3 25  4  0
  4 23  4  0
  4 27  1  0
  4 30  4  0
  5 17  1  0
  6  8  1  0
  6 29  1  0
  7 24  4  0
  7 26  4  0
  8 28  1  0
  9 13  2  0
 10 18  1  0
 10 21  4  0
 10 30  4  0
 11 17  2  0
 12 18  1  0
 13 15  1  0
 14 24  1  0
 15 25  1  0
 16 28  2  0
 17 20  1  0
 19 24  4  0
 20 23  1  0
 21 22  4  0
 22 23  4  0
 25 26  4  0
 27 29  2  0
M  END
$$$$

 Created by Python create_sdf_string function

 30 33  0  0  0  0  0  0  0  0999 V2000
    8.3036    9.8571   18.4133 C   0  0  0  0  0  0  0  0  0  0  0  0
    8.3694    7.6612   22.6703 C   0  0  0  0  0  0  0  0  0  0  0  0
    8.4143    6.6863   16.2273 C   0  0  0  0  0  0  0  0  0  0  0  0
   10.7581    6.5674   21.7636 C   0  0  0  0  0  0  0  0  0  0  0  0
    8.4452    8.7960   19.2958 O   0  0  0  0  0  0  0  0  0  0  0  0
    8.7122    6.7842   24.8569 C   0  0  0  0  0  0  0  0  0  0  0  0
   10.3400    6.1726   14.3081 C   0  0  0  0  0  0  0  0  0  0  0  0
    7.4297    7.5873   24.8962 C   0  0  0  0  0  0  0  0  0  0  0  0
    8.1566   10.0536   16.0516 O   0  0  0  0  0  0  0  0  0  0  0  0
   12.4989    6.2074   20.1776 C   0  0  0  0  0  0  0  0  0  0  0  0
    6.9192    9.1053   20.9073 O   0  0  0  0  0  0  0  0  0  0  0  0
   14.3979    6.0729   18.7784 C   0  0  0  0  0  0  0  0  0  0  0  0
    8.6811    9.5354   16.9998 C   0  0  0  0  0  0  0  0  0  0  0  0
    9.2512    4.2713   13.7653 O   0  0  0  0  0  0  0  0  0  0  0  0
    9.6495    8.6317   16.8332 N   0  0  0  0  0  0  0  0  0  0  0  0
    6.2934    8.6988   23.1988 O   0  0  0  0  0  0  0  0  0  0  0  0
    7.9806    8.6543   20.5437 C   0  0  0  0  0  0  0  0  0  0  0  0
   13.7270    5.7144   19.8610 O   0  0  0  0  0  0  0  0  0  0  0  0
    8.3351    5.5235   15.4478 C   0  0  0  0  0  0  0  0  0  0  0  0
    8.7700    7.8434   21.3915 C   0  0  0  0  0  0  0  0  0  0  0  0
   11.7856    6.8851   19.2401 C   0  0  0  0  0  0  0  0  0  0  0  0
   10.5281    7.4276   19.5649 C   0  0  0  0  0  0  0  0  0  0  0  0
   10.0256    7.2907   20.8484 C   0  0  0  0  0  0  0  0  0  0  0  0
    9.3113    5.3049   14.4911 C   0  0  0  0  0  0  0  0  0  0  0  0
    9.4607    7.5646   16.0139 C   0  0  0  0  0  0  0  0  0  0  0  0
   10.4192    7.3157   15.0955 C   0  0  0  0  0  0  0  0  0  0  0  0
   10.2489    6.4227   23.0218 N   0  0  0  0  0  0  0  0  0  0  0  0
    7.2472    8.0746   23.5050 C   0  0  0  0  0  0  0  0  0  0  0  0
    9.2051    6.9101   23.4604 C   0  0  0  0  0  0  0  0  0  0  0  0
   11.9646    6.0299   21.4251 C   0  0  0  0  0  0  0  0  0  0  0  0
  1  5  1  0
  1 13  1  0
  2 20  2  0
  2 28  1  0
  2 29  1  0
  3 19  4  0
  3 25  4  0
  4 23  4  0
  4 27  1  0
  4 30  4  0
  5 17  1  0
  6  8  1  0
  6 29  1  0
  7 24  4  0
  7 26  4  0
  8 28  1  0
  9 13  2  0
 10 18  1  0
 10 21  4  0
 10 30  4  0
 11 17  2  0
 12 18  1  0
 13 15  1  0
 14 24  1  0
 15 25  1  0
 16 28  2  0
 17 20  1  0
 19 24  4  0
 20 23  1  0
 21 22  4  0
 22 23  4  0
 25 26  4  0
 27 29  2  0
M  END
$$$$

 Created by Python create_sdf_string function

 30 33  0  0  0  0  0  0  0  0999 V2000
    8.3036    9.8571   18.4133 C   0  0  0  0  0  0  0  0  0  0  0  0
    8.3694    7.6612   22.6703 C   0  0  0  0  0  0  0  0  0  0  0  0
    8.4143    6.6863   16.2273 C   0  0  0  0  0  0  0  0  0  0  0  0
   10.7581    6.5674   21.7636 C   0  0  0  0  0  0  0  0  0  0  0  0
    8.4452    8.7960   19.2958 O   0  0  0  0  0  0  0  0  0  0  0  0
    8.7122    6.7842   24.8569 C   0  0  0  0  0  0  0  0  0  0  0  0
   10.3400    6.1726   14.3081 C   0  0  0  0  0  0  0  0  0  0  0  0
    7.4297    7.5873   24.8962 C   0  0  0  0  0  0  0  0  0  0  0  0
    8.1566   10.0536   16.0516 O   0  0  0  0  0  0  0  0  0  0  0  0
   12.4989    6.2074   20.1776 C   0  0  0  0  0  0  0  0  0  0  0  0
    6.9192    9.1053   20.9073 O   0  0  0  0  0  0  0  0  0  0  0  0
   14.3979    6.0729   18.7784 C   0  0  0  0  0  0  0  0  0  0  0  0
    8.6811    9.5354   16.9998 C   0  0  0  0  0  0  0  0  0  0  0  0
    9.2512    4.2713   13.7653 O   0  0  0  0  0  0  0  0  0  0  0  0
    9.6495    8.6317   16.8332 N   0  0  0  0  0  0  0  0  0  0  0  0
    6.2934    8.6988   23.1988 O   0  0  0  0  0  0  0  0  0  0  0  0
    7.9806    8.6543   20.5437 C   0  0  0  0  0  0  0  0  0  0  0  0
   13.7270    5.7144   19.8610 O   0  0  0  0  0  0  0  0  0  0  0  0
    8.3351    5.5235   15.4478 C   0  0  0  0  0  0  0  0  0  0  0  0
    8.7700    7.8434   21.3915 C   0  0  0  0  0  0  0  0  0  0  0  0
   11.7856    6.8851   19.2401 C   0  0  0  0  0  0  0  0  0  0  0  0
   10.5281    7.4276   19.5649 C   0  0  0  0  0  0  0  0  0  0  0  0
   10.0256    7.2907   20.8484 C   0  0  0  0  0  0  0  0  0  0  0  0
    9.3113    5.3049   14.4911 C   0  0  0  0  0  0  0  0  0  0  0  0
    9.4607    7.5646   16.0139 C   0  0  0  0  0  0  0  0  0  0  0  0
   10.4192    7.3157   15.0955 C   0  0  0  0  0  0  0  0  0  0  0  0
   10.2489    6.4227   23.0218 N   0  0  0  0  0  0  0  0  0  0  0  0
    7.2472    8.0746   23.5050 C   0  0  0  0  0  0  0  0  0  0  0  0
    9.2051    6.9101   23.4604 C   0  0  0  0  0  0  0  0  0  0  0  0
   11.9646    6.0299   21.4251 C   0  0  0  0  0  0  0  0  0  0  0  0
  1  5  1  0
  1 13  1  0
  2 20  2  0
  2 28  1  0
  2 29  1  0
  3 19  4  0
  3 25  4  0
  4 23  4  0
  4 27  1  0
  4 30  4  0
  5 17  1  0
  6  8  1  0
  6 29  1  0
  7 24  4  0
  7 26  4  0
  8 28  1  0
  9 13  2  0
 10 18  1  0
 10 21  4  0
 10 30  4  0
 11 17  2  0
 12 18  1  0
 13 15  1  0
 14 24  1  0
 15 25  1  0
 16 28  2  0
 17 20  1  0
 19 24  4  0
 20 23  1  0
 21 22  4  0
 22 23  4  0
 25 26  4  0
 27 29  2  0
M  END
$$$$

 Created by Python create_sdf_string function

 30 33  0  0  0  0  0  0  0  0999 V2000
    8.3036    9.8571   18.4133 C   0  0  0  0  0  0  0  0  0  0  0  0
    8.3694    7.6612   22.6703 C   0  0  0  0  0  0  0  0  0  0  0  0
    8.4143    6.6863   16.2273 C   0  0  0  0  0  0  0  0  0  0  0  0
   10.7581    6.5674   21.7636 C   0  0  0  0  0  0  0  0  0  0  0  0
    8.4452    8.7960   19.2958 O   0  0  0  0  0  0  0  0  0  0  0  0
    8.7122    6.7842   24.8569 C   0  0  0  0  0  0  0  0  0  0  0  0
   10.3400    6.1726   14.3081 C   0  0  0  0  0  0  0  0  0  0  0  0
    7.4297    7.5873   24.8962 C   0  0  0  0  0  0  0  0  0  0  0  0
    8.1566   10.0536   16.0516 O   0  0  0  0  0  0  0  0  0  0  0  0
   12.4989    6.2074   20.1776 C   0  0  0  0  0  0  0  0  0  0  0  0
    6.9192    9.1053   20.9073 O   0  0  0  0  0  0  0  0  0  0  0  0
   14.3979    6.0729   18.7784 C   0  0  0  0  0  0  0  0  0  0  0  0
    8.6811    9.5354   16.9998 C   0  0  0  0  0  0  0  0  0  0  0  0
    9.2512    4.2713   13.7653 O   0  0  0  0  0  0  0  0  0  0  0  0
    9.6495    8.6317   16.8332 N   0  0  0  0  0  0  0  0  0  0  0  0
    6.2934    8.6988   23.1988 O   0  0  0  0  0  0  0  0  0  0  0  0
    7.9806    8.6543   20.5437 C   0  0  0  0  0  0  0  0  0  0  0  0
   13.7270    5.7144   19.8610 O   0  0  0  0  0  0  0  0  0  0  0  0
    8.3351    5.5235   15.4478 C   0  0  0  0  0  0  0  0  0  0  0  0
    8.7700    7.8434   21.3915 C   0  0  0  0  0  0  0  0  0  0  0  0
   11.7856    6.8851   19.2401 C   0  0  0  0  0  0  0  0  0  0  0  0
   10.5281    7.4276   19.5649 C   0  0  0  0  0  0  0  0  0  0  0  0
   10.0256    7.2907   20.8484 C   0  0  0  0  0  0  0  0  0  0  0  0
    9.3113    5.3049   14.4911 C   0  0  0  0  0  0  0  0  0  0  0  0
    9.4607    7.5646   16.0139 C   0  0  0  0  0  0  0  0  0  0  0  0
   10.4192    7.3157   15.0955 C   0  0  0  0  0  0  0  0  0  0  0  0
   10.2489    6.4227   23.0218 N   0  0  0  0  0  0  0  0  0  0  0  0
    7.2472    8.0746   23.5050 C   0  0  0  0  0  0  0  0  0  0  0  0
    9.2051    6.9101   23.4604 C   0  0  0  0  0  0  0  0  0  0  0  0
   11.9646    6.0299   21.4251 C   0  0  0  0  0  0  0  0  0  0  0  0
  1  5  1  0
  1 13  1  0
  2 20  2  0
  2 28  1  0
  2 29  1  0
  3 19  4  0
  3 25  4  0
  4 23  4  0
  4 27  1  0
  4 30  4  0
  5 17  1  0
  6  8  1  0
  6 29  1  0
  7 24  4  0
  7 26  4  0
  8 28  1  0
  9 13  2  0
 10 18  1  0
 10 21  4  0
 10 30  4  0
 11 17  2  0
 12 18  1  0
 13 15  1  0
 14 24  1  0
 15 25  1  0
 16 28  2  0
 17 20  1  0
 19 24  4  0
 20 23  1  0
 21 22  4  0
 22 23  4  0
 25 26  4  0
 27 29  2  0
M  END
$$$$

 Created by Python create_sdf_string function

 30 33  0  0  0  0  0  0  0  0999 V2000
    8.3036    9.8571   18.4133 C   0  0  0  0  0  0  0  0  0  0  0  0
    8.3694    7.6612   22.6703 C   0  0  0  0  0  0  0  0  0  0  0  0
    8.4143    6.6863   16.2273 C   0  0  0  0  0  0  0  0  0  0  0  0
   10.7581    6.5674   21.7636 C   0  0  0  0  0  0  0  0  0  0  0  0
    8.4452    8.7960   19.2958 O   0  0  0  0  0  0  0  0  0  0  0  0
    8.7122    6.7842   24.8569 C   0  0  0  0  0  0  0  0  0  0  0  0
   10.3400    6.1726   14.3081 C   0  0  0  0  0  0  0  0  0  0  0  0
    7.4297    7.5873   24.8962 C   0  0  0  0  0  0  0  0  0  0  0  0
    8.1566   10.0536   16.0516 O   0  0  0  0  0  0  0  0  0  0  0  0
   12.4989    6.2074   20.1776 C   0  0  0  0  0  0  0  0  0  0  0  0
    6.9192    9.1053   20.9073 O   0  0  0  0  0  0  0  0  0  0  0  0
   14.3979    6.0729   18.7784 C   0  0  0  0  0  0  0  0  0  0  0  0
    8.6811    9.5354   16.9998 C   0  0  0  0  0  0  0  0  0  0  0  0
    9.2512    4.2713   13.7653 O   0  0  0  0  0  0  0  0  0  0  0  0
    9.6495    8.6317   16.8332 N   0  0  0  0  0  0  0  0  0  0  0  0
    6.2934    8.6988   23.1988 O   0  0  0  0  0  0  0  0  0  0  0  0
    7.9806    8.6543   20.5437 C   0  0  0  0  0  0  0  0  0  0  0  0
   13.7270    5.7144   19.8610 O   0  0  0  0  0  0  0  0  0  0  0  0
    8.3351    5.5235   15.4478 C   0  0  0  0  0  0  0  0  0  0  0  0
    8.7700    7.8434   21.3915 C   0  0  0  0  0  0  0  0  0  0  0  0
   11.7856    6.8851   19.2401 C   0  0  0  0  0  0  0  0  0  0  0  0
   10.5281    7.4276   19.5649 C   0  0  0  0  0  0  0  0  0  0  0  0
   10.0256    7.2907   20.8484 C   0  0  0  0  0  0  0  0  0  0  0  0
    9.3113    5.3049   14.4911 C   0  0  0  0  0  0  0  0  0  0  0  0
    9.4607    7.5646   16.0139 C   0  0  0  0  0  0  0  0  0  0  0  0
   10.4192    7.3157   15.0955 C   0  0  0  0  0  0  0  0  0  0  0  0
   10.2489    6.4227   23.0218 N   0  0  0  0  0  0  0  0  0  0  0  0
    7.2472    8.0746   23.5050 C   0  0  0  0  0  0  0  0  0  0  0  0
    9.2051    6.9101   23.4604 C   0  0  0  0  0  0  0  0  0  0  0  0
   11.9646    6.0299   21.4251 C   0  0  0  0  0  0  0  0  0  0  0  0
  1  5  1  0
  1 13  1  0
  2 20  2  0
  2 28  1  0
  2 29  1  0
  3 19  4  0
  3 25  4  0
  4 23  4  0
  4 27  1  0
  4 30  4  0
  5 17  1  0
  6  8  1  0
  6 29  1  0
  7 24  4  0
  7 26  4  0
  8 28  1  0
  9 13  2  0
 10 18  1  0
 10 21  4  0
 10 30  4  0
 11 17  2  0
 12 18  1  0
 13 15  1  0
 14 24  1  0
 15 25  1  0
 16 28  2  0
 17 20  1  0
 19 24  4  0
 20 23  1  0
 21 22  4  0
 22 23  4  0
 25 26  4  0
 27 29  2  0
M  END
$$$$

 Created by Python create_sdf_string function

 30 33  0  0  0  0  0  0  0  0999 V2000
    8.3036    9.8571   18.4133 C   0  0  0  0  0  0  0  0  0  0  0  0
    8.3694    7.6612   22.6703 C   0  0  0  0  0  0  0  0  0  0  0  0
    8.4143    6.6863   16.2273 C   0  0  0  0  0  0  0  0  0  0  0  0
   10.7581    6.5674   21.7636 C   0  0  0  0  0  0  0  0  0  0  0  0
    8.4452    8.7960   19.2958 O   0  0  0  0  0  0  0  0  0  0  0  0
    8.7122    6.7842   24.8569 C   0  0  0  0  0  0  0  0  0  0  0  0
   10.3400    6.1726   14.3081 C   0  0  0  0  0  0  0  0  0  0  0  0
    7.4297    7.5873   24.8962 C   0  0  0  0  0  0  0  0  0  0  0  0
    8.1566   10.0536   16.0516 O   0  0  0  0  0  0  0  0  0  0  0  0
   12.4989    6.2074   20.1776 C   0  0  0  0  0  0  0  0  0  0  0  0
    6.9192    9.1053   20.9073 O   0  0  0  0  0  0  0  0  0  0  0  0
   14.3979    6.0729   18.7784 C   0  0  0  0  0  0  0  0  0  0  0  0
    8.6811    9.5354   16.9998 C   0  0  0  0  0  0  0  0  0  0  0  0
    9.2512    4.2713   13.7653 O   0  0  0  0  0  0  0  0  0  0  0  0
    9.6495    8.6317   16.8332 N   0  0  0  0  0  0  0  0  0  0  0  0
    6.2934    8.6988   23.1988 O   0  0  0  0  0  0  0  0  0  0  0  0
    7.9806    8.6543   20.5437 C   0  0  0  0  0  0  0  0  0  0  0  0
   13.7270    5.7144   19.8610 O   0  0  0  0  0  0  0  0  0  0  0  0
    8.3351    5.5235   15.4478 C   0  0  0  0  0  0  0  0  0  0  0  0
    8.7700    7.8434   21.3915 C   0  0  0  0  0  0  0  0  0  0  0  0
   11.7856    6.8851   19.2401 C   0  0  0  0  0  0  0  0  0  0  0  0
   10.5281    7.4276   19.5649 C   0  0  0  0  0  0  0  0  0  0  0  0
   10.0256    7.2907   20.8484 C   0  0  0  0  0  0  0  0  0  0  0  0
    9.3113    5.3049   14.4911 C   0  0  0  0  0  0  0  0  0  0  0  0
    9.4607    7.5646   16.0139 C   0  0  0  0  0  0  0  0  0  0  0  0
   10.4192    7.3157   15.0955 C   0  0  0  0  0  0  0  0  0  0  0  0
   10.2489    6.4227   23.0218 N   0  0  0  0  0  0  0  0  0  0  0  0
    7.2472    8.0746   23.5050 C   0  0  0  0  0  0  0  0  0  0  0  0
    9.2051    6.9101   23.4604 C   0  0  0  0  0  0  0  0  0  0  0  0
   11.9646    6.0299   21.4251 C   0  0  0  0  0  0  0  0  0  0  0  0
  1  5  1  0
  1 13  1  0
  2 20  2  0
  2 28  1  0
  2 29  1  0
  3 19  4  0
  3 25  4  0
  4 23  4  0
  4 27  1  0
  4 30  4  0
  5 17  1  0
  6  8  1  0
  6 29  1  0
  7 24  4  0
  7 26  4  0
  8 28  1  0
  9 13  2  0
 10 18  1  0
 10 21  4  0
 10 30  4  0
 11 17  2  0
 12 18  1  0
 13 15  1  0
 14 24  1  0
 15 25  1  0
 16 28  2  0
 17 20  1  0
 19 24  4  0
 20 23  1  0
 21 22  4  0
 22 23  4  0
 25 26  4  0
 27 29  2  0
M  END
$$$$

 Created by Python create_sdf_string function

 30 33  0  0  0  0  0  0  0  0999 V2000
    8.3036    9.8571   18.4133 C   0  0  0  0  0  0  0  0  0  0  0  0
    8.3694    7.6612   22.6703 C   0  0  0  0  0  0  0  0  0  0  0  0
    8.4143    6.6863   16.2273 C   0  0  0  0  0  0  0  0  0  0  0  0
   10.7581    6.5674   21.7636 C   0  0  0  0  0  0  0  0  0  0  0  0
    8.4452    8.7960   19.2958 O   0  0  0  0  0  0  0  0  0  0  0  0
    8.7122    6.7842   24.8569 C   0  0  0  0  0  0  0  0  0  0  0  0
   10.3400    6.1726   14.3081 C   0  0  0  0  0  0  0  0  0  0  0  0
    7.4297    7.5873   24.8962 C   0  0  0  0  0  0  0  0  0  0  0  0
    8.1566   10.0536   16.0516 O   0  0  0  0  0  0  0  0  0  0  0  0
   12.4989    6.2074   20.1776 C   0  0  0  0  0  0  0  0  0  0  0  0
    6.9192    9.1053   20.9073 O   0  0  0  0  0  0  0  0  0  0  0  0
   14.3979    6.0729   18.7784 C   0  0  0  0  0  0  0  0  0  0  0  0
    8.6811    9.5354   16.9998 C   0  0  0  0  0  0  0  0  0  0  0  0
    9.2512    4.2713   13.7653 O   0  0  0  0  0  0  0  0  0  0  0  0
    9.6495    8.6317   16.8332 N   0  0  0  0  0  0  0  0  0  0  0  0
    6.2934    8.6988   23.1988 O   0  0  0  0  0  0  0  0  0  0  0  0
    7.9806    8.6543   20.5437 C   0  0  0  0  0  0  0  0  0  0  0  0
   13.7270    5.7144   19.8610 O   0  0  0  0  0  0  0  0  0  0  0  0
    8.3351    5.5235   15.4478 C   0  0  0  0  0  0  0  0  0  0  0  0
    8.7700    7.8434   21.3915 C   0  0  0  0  0  0  0  0  0  0  0  0
   11.7856    6.8851   19.2401 C   0  0  0  0  0  0  0  0  0  0  0  0
   10.5281    7.4276   19.5649 C   0  0  0  0  0  0  0  0  0  0  0  0
   10.0256    7.2907   20.8484 C   0  0  0  0  0  0  0  0  0  0  0  0
    9.3113    5.3049   14.4911 C   0  0  0  0  0  0  0  0  0  0  0  0
    9.4607    7.5646   16.0139 C   0  0  0  0  0  0  0  0  0  0  0  0
   10.4192    7.3157   15.0955 C   0  0  0  0  0  0  0  0  0  0  0  0
   10.2489    6.4227   23.0218 N   0  0  0  0  0  0  0  0  0  0  0  0
    7.2472    8.0746   23.5050 C   0  0  0  0  0  0  0  0  0  0  0  0
    9.2051    6.9101   23.4604 C   0  0  0  0  0  0  0  0  0  0  0  0
   11.9646    6.0299   21.4251 C   0  0  0  0  0  0  0  0  0  0  0  0
  1  5  1  0
  1 13  1  0
  2 20  2  0
  2 28  1  0
  2 29  1  0
  3 19  4  0
  3 25  4  0
  4 23  4  0
  4 27  1  0
  4 30  4  0
  5 17  1  0
  6  8  1  0
  6 29  1  0
  7 24  4  0
  7 26  4  0
  8 28  1  0
  9 13  2  0
 10 18  1  0
 10 21  4  0
 10 30  4  0
 11 17  2  0
 12 18  1  0
 13 15  1  0
 14 24  1  0
 15 25  1  0
 16 28  2  0
 17 20  1  0
 19 24  4  0
 20 23  1  0
 21 22  4  0
 22 23  4  0
 25 26  4  0
 27 29  2  0
M  END
$$$$

 Created by Python create_sdf_string function

 30 33  0  0  0  0  0  0  0  0999 V2000
    8.3036    9.8571   18.4133 C   0  0  0  0  0  0  0  0  0  0  0  0
    8.3694    7.6612   22.6703 C   0  0  0  0  0  0  0  0  0  0  0  0
    8.4143    6.6863   16.2273 C   0  0  0  0  0  0  0  0  0  0  0  0
   10.7581    6.5674   21.7636 C   0  0  0  0  0  0  0  0  0  0  0  0
    8.4452    8.7960   19.2958 O   0  0  0  0  0  0  0  0  0  0  0  0
    8.7122    6.7842   24.8569 C   0  0  0  0  0  0  0  0  0  0  0  0
   10.3400    6.1726   14.3081 C   0  0  0  0  0  0  0  0  0  0  0  0
    7.4297    7.5873   24.8962 C   0  0  0  0  0  0  0  0  0  0  0  0
    8.1566   10.0536   16.0516 O   0  0  0  0  0  0  0  0  0  0  0  0
   12.4989    6.2074   20.1776 C   0  0  0  0  0  0  0  0  0  0  0  0
    6.9192    9.1053   20.9073 O   0  0  0  0  0  0  0  0  0  0  0  0
   14.3979    6.0729   18.7784 C   0  0  0  0  0  0  0  0  0  0  0  0
    8.6811    9.5354   16.9998 C   0  0  0  0  0  0  0  0  0  0  0  0
    9.2512    4.2713   13.7653 O   0  0  0  0  0  0  0  0  0  0  0  0
    9.6495    8.6317   16.8332 N   0  0  0  0  0  0  0  0  0  0  0  0
    6.2934    8.6988   23.1988 O   0  0  0  0  0  0  0  0  0  0  0  0
    7.9806    8.6543   20.5437 C   0  0  0  0  0  0  0  0  0  0  0  0
   13.7270    5.7144   19.8610 O   0  0  0  0  0  0  0  0  0  0  0  0
    8.3351    5.5235   15.4478 C   0  0  0  0  0  0  0  0  0  0  0  0
    8.7700    7.8434   21.3915 C   0  0  0  0  0  0  0  0  0  0  0  0
   11.7856    6.8851   19.2401 C   0  0  0  0  0  0  0  0  0  0  0  0
   10.5281    7.4276   19.5649 C   0  0  0  0  0  0  0  0  0  0  0  0
   10.0256    7.2907   20.8484 C   0  0  0  0  0  0  0  0  0  0  0  0
    9.3113    5.3049   14.4911 C   0  0  0  0  0  0  0  0  0  0  0  0
    9.4607    7.5646   16.0139 C   0  0  0  0  0  0  0  0  0  0  0  0
   10.4192    7.3157   15.0955 C   0  0  0  0  0  0  0  0  0  0  0  0
   10.2489    6.4227   23.0218 N   0  0  0  0  0  0  0  0  0  0  0  0
    7.2472    8.0746   23.5050 C   0  0  0  0  0  0  0  0  0  0  0  0
    9.2051    6.9101   23.4604 C   0  0  0  0  0  0  0  0  0  0  0  0
   11.9646    6.0299   21.4251 C   0  0  0  0  0  0  0  0  0  0  0  0
  1  5  1  0
  1 13  1  0
  2 20  2  0
  2 28  1  0
  2 29  1  0
  3 19  4  0
  3 25  4  0
  4 23  4  0
  4 27  1  0
  4 30  4  0
  5 17  1  0
  6  8  1  0
  6 29  1  0
  7 24  4  0
  7 26  4  0
  8 28  1  0
  9 13  2  0
 10 18  1  0
 10 21  4  0
 10 30  4  0
 11 17  2  0
 12 18  1  0
 13 15  1  0
 14 24  1  0
 15 25  1  0
 16 28  2  0
 17 20  1  0
 19 24  4  0
 20 23  1  0
 21 22  4  0
 22 23  4  0
 25 26  4  0
 27 29  2  0
M  END
$$$$

 Created by Python create_sdf_string function

 30 33  0  0  0  0  0  0  0  0999 V2000
    8.3036    9.8571   18.4133 C   0  0  0  0  0  0  0  0  0  0  0  0
    8.3694    7.6612   22.6703 C   0  0  0  0  0  0  0  0  0  0  0  0
    8.4143    6.6863   16.2273 C   0  0  0  0  0  0  0  0  0  0  0  0
   10.7581    6.5674   21.7636 C   0  0  0  0  0  0  0  0  0  0  0  0
    8.4452    8.7960   19.2958 O   0  0  0  0  0  0  0  0  0  0  0  0
    8.7122    6.7842   24.8569 C   0  0  0  0  0  0  0  0  0  0  0  0
   10.3400    6.1726   14.3081 C   0  0  0  0  0  0  0  0  0  0  0  0
    7.4297    7.5873   24.8962 C   0  0  0  0  0  0  0  0  0  0  0  0
    8.1566   10.0536   16.0516 O   0  0  0  0  0  0  0  0  0  0  0  0
   12.4989    6.2074   20.1776 C   0  0  0  0  0  0  0  0  0  0  0  0
    6.9192    9.1053   20.9073 O   0  0  0  0  0  0  0  0  0  0  0  0
   14.3979    6.0729   18.7784 C   0  0  0  0  0  0  0  0  0  0  0  0
    8.6811    9.5354   16.9998 C   0  0  0  0  0  0  0  0  0  0  0  0
    9.2512    4.2713   13.7653 O   0  0  0  0  0  0  0  0  0  0  0  0
    9.6495    8.6317   16.8332 N   0  0  0  0  0  0  0  0  0  0  0  0
    6.2934    8.6988   23.1988 O   0  0  0  0  0  0  0  0  0  0  0  0
    7.9806    8.6543   20.5437 C   0  0  0  0  0  0  0  0  0  0  0  0
   13.7270    5.7144   19.8610 O   0  0  0  0  0  0  0  0  0  0  0  0
    8.3351    5.5235   15.4478 C   0  0  0  0  0  0  0  0  0  0  0  0
    8.7700    7.8434   21.3915 C   0  0  0  0  0  0  0  0  0  0  0  0
   11.7856    6.8851   19.2401 C   0  0  0  0  0  0  0  0  0  0  0  0
   10.5281    7.4276   19.5649 C   0  0  0  0  0  0  0  0  0  0  0  0
   10.0256    7.2907   20.8484 C   0  0  0  0  0  0  0  0  0  0  0  0
    9.3113    5.3049   14.4911 C   0  0  0  0  0  0  0  0  0  0  0  0
    9.4607    7.5646   16.0139 C   0  0  0  0  0  0  0  0  0  0  0  0
   10.4192    7.3157   15.0955 C   0  0  0  0  0  0  0  0  0  0  0  0
   10.2489    6.4227   23.0218 N   0  0  0  0  0  0  0  0  0  0  0  0
    7.2472    8.0746   23.5050 C   0  0  0  0  0  0  0  0  0  0  0  0
    9.2051    6.9101   23.4604 C   0  0  0  0  0  0  0  0  0  0  0  0
   11.9646    6.0299   21.4251 C   0  0  0  0  0  0  0  0  0  0  0  0
  1  5  1  0
  1 13  1  0
  2 20  2  0
  2 28  1  0
  2 29  1  0
  3 19  4  0
  3 25  4  0
  4 23  4  0
  4 27  1  0
  4 30  4  0
  5 17  1  0
  6  8  1  0
  6 29  1  0
  7 24  4  0
  7 26  4  0
  8 28  1  0
  9 13  2  0
 10 18  1  0
 10 21  4  0
 10 30  4  0
 11 17  2  0
 12 18  1  0
 13 15  1  0
 14 24  1  0
 15 25  1  0
 16 28  2  0
 17 20  1  0
 19 24  4  0
 20 23  1  0
 21 22  4  0
 22 23  4  0
 25 26  4  0
 27 29  2  0
M  END
$$$$

 Created by Python create_sdf_string function

 30 33  0  0  0  0  0  0  0  0999 V2000
    8.3036    9.8571   18.4133 C   0  0  0  0  0  0  0  0  0  0  0  0
    8.3694    7.6612   22.6703 C   0  0  0  0  0  0  0  0  0  0  0  0
    8.4143    6.6863   16.2273 C   0  0  0  0  0  0  0  0  0  0  0  0
   10.7581    6.5674   21.7636 C   0  0  0  0  0  0  0  0  0  0  0  0
    8.4452    8.7960   19.2958 O   0  0  0  0  0  0  0  0  0  0  0  0
    8.7122    6.7842   24.8569 C   0  0  0  0  0  0  0  0  0  0  0  0
   10.3400    6.1726   14.3081 C   0  0  0  0  0  0  0  0  0  0  0  0
    7.4297    7.5873   24.8962 C   0  0  0  0  0  0  0  0  0  0  0  0
    8.1566   10.0536   16.0516 O   0  0  0  0  0  0  0  0  0  0  0  0
   12.4989    6.2074   20.1776 C   0  0  0  0  0  0  0  0  0  0  0  0
    6.9192    9.1053   20.9073 O   0  0  0  0  0  0  0  0  0  0  0  0
   14.3979    6.0729   18.7784 C   0  0  0  0  0  0  0  0  0  0  0  0
    8.6811    9.5354   16.9998 C   0  0  0  0  0  0  0  0  0  0  0  0
    9.2512    4.2713   13.7653 O   0  0  0  0  0  0  0  0  0  0  0  0
    9.6495    8.6317   16.8332 N   0  0  0  0  0  0  0  0  0  0  0  0
    6.2934    8.6988   23.1988 O   0  0  0  0  0  0  0  0  0  0  0  0
    7.9806    8.6543   20.5437 C   0  0  0  0  0  0  0  0  0  0  0  0
   13.7270    5.7144   19.8610 O   0  0  0  0  0  0  0  0  0  0  0  0
    8.3351    5.5235   15.4478 C   0  0  0  0  0  0  0  0  0  0  0  0
    8.7700    7.8434   21.3915 C   0  0  0  0  0  0  0  0  0  0  0  0
   11.7856    6.8851   19.2401 C   0  0  0  0  0  0  0  0  0  0  0  0
   10.5281    7.4276   19.5649 C   0  0  0  0  0  0  0  0  0  0  0  0
   10.0256    7.2907   20.8484 C   0  0  0  0  0  0  0  0  0  0  0  0
    9.3113    5.3049   14.4911 C   0  0  0  0  0  0  0  0  0  0  0  0
    9.4607    7.5646   16.0139 C   0  0  0  0  0  0  0  0  0  0  0  0
   10.4192    7.3157   15.0955 C   0  0  0  0  0  0  0  0  0  0  0  0
   10.2489    6.4227   23.0218 N   0  0  0  0  0  0  0  0  0  0  0  0
    7.2472    8.0746   23.5050 C   0  0  0  0  0  0  0  0  0  0  0  0
    9.2051    6.9101   23.4604 C   0  0  0  0  0  0  0  0  0  0  0  0
   11.9646    6.0299   21.4251 C   0  0  0  0  0  0  0  0  0  0  0  0
  1  5  1  0
  1 13  1  0
  2 20  2  0
  2 28  1  0
  2 29  1  0
  3 19  4  0
  3 25  4  0
  4 23  4  0
  4 27  1  0
  4 30  4  0
  5 17  1  0
  6  8  1  0
  6 29  1  0
  7 24  4  0
  7 26  4  0
  8 28  1  0
  9 13  2  0
 10 18  1  0
 10 21  4  0
 10 30  4  0
 11 17  2  0
 12 18  1  0
 13 15  1  0
 14 24  1  0
 15 25  1  0
 16 28  2  0
 17 20  1  0
 19 24  4  0
 20 23  1  0
 21 22  4  0
 22 23  4  0
 25 26  4  0
 27 29  2  0
M  END
$$$$

 Created by Python create_sdf_string function

 30 33  0  0  0  0  0  0  0  0999 V2000
    8.3036    9.8571   18.4133 C   0  0  0  0  0  0  0  0  0  0  0  0
    8.3694    7.6612   22.6703 C   0  0  0  0  0  0  0  0  0  0  0  0
    8.4143    6.6863   16.2273 C   0  0  0  0  0  0  0  0  0  0  0  0
   10.7581    6.5674   21.7636 C   0  0  0  0  0  0  0  0  0  0  0  0
    8.4452    8.7960   19.2958 O   0  0  0  0  0  0  0  0  0  0  0  0
    8.7122    6.7842   24.8569 C   0  0  0  0  0  0  0  0  0  0  0  0
   10.3400    6.1726   14.3081 C   0  0  0  0  0  0  0  0  0  0  0  0
    7.4297    7.5873   24.8962 C   0  0  0  0  0  0  0  0  0  0  0  0
    8.1566   10.0536   16.0516 O   0  0  0  0  0  0  0  0  0  0  0  0
   12.4989    6.2074   20.1776 C   0  0  0  0  0  0  0  0  0  0  0  0
    6.9192    9.1053   20.9073 O   0  0  0  0  0  0  0  0  0  0  0  0
   14.3979    6.0729   18.7784 C   0  0  0  0  0  0  0  0  0  0  0  0
    8.6811    9.5354   16.9998 C   0  0  0  0  0  0  0  0  0  0  0  0
    9.2512    4.2713   13.7653 O   0  0  0  0  0  0  0  0  0  0  0  0
    9.6495    8.6317   16.8332 N   0  0  0  0  0  0  0  0  0  0  0  0
    6.2934    8.6988   23.1988 O   0  0  0  0  0  0  0  0  0  0  0  0
    7.9806    8.6543   20.5437 C   0  0  0  0  0  0  0  0  0  0  0  0
   13.7270    5.7144   19.8610 O   0  0  0  0  0  0  0  0  0  0  0  0
    8.3351    5.5235   15.4478 C   0  0  0  0  0  0  0  0  0  0  0  0
    8.7700    7.8434   21.3915 C   0  0  0  0  0  0  0  0  0  0  0  0
   11.7856    6.8851   19.2401 C   0  0  0  0  0  0  0  0  0  0  0  0
   10.5281    7.4276   19.5649 C   0  0  0  0  0  0  0  0  0  0  0  0
   10.0256    7.2907   20.8484 C   0  0  0  0  0  0  0  0  0  0  0  0
    9.3113    5.3049   14.4911 C   0  0  0  0  0  0  0  0  0  0  0  0
    9.4607    7.5646   16.0139 C   0  0  0  0  0  0  0  0  0  0  0  0
   10.4192    7.3157   15.0955 C   0  0  0  0  0  0  0  0  0  0  0  0
   10.2489    6.4227   23.0218 N   0  0  0  0  0  0  0  0  0  0  0  0
    7.2472    8.0746   23.5050 C   0  0  0  0  0  0  0  0  0  0  0  0
    9.2051    6.9101   23.4604 C   0  0  0  0  0  0  0  0  0  0  0  0
   11.9646    6.0299   21.4251 C   0  0  0  0  0  0  0  0  0  0  0  0
  1  5  1  0
  1 13  1  0
  2 20  2  0
  2 28  1  0
  2 29  1  0
  3 19  4  0
  3 25  4  0
  4 23  4  0
  4 27  1  0
  4 30  4  0
  5 17  1  0
  6  8  1  0
  6 29  1  0
  7 24  4  0
  7 26  4  0
  8 28  1  0
  9 13  2  0
 10 18  1  0
 10 21  4  0
 10 30  4  0
 11 17  2  0
 12 18  1  0
 13 15  1  0
 14 24  1  0
 15 25  1  0
 16 28  2  0
 17 20  1  0
 19 24  4  0
 20 23  1  0
 21 22  4  0
 22 23  4  0
 25 26  4  0
 27 29  2  0
M  END
$$$$

 Created by Python create_sdf_string function

 30 33  0  0  0  0  0  0  0  0999 V2000
    8.3036    9.8571   18.4133 C   0  0  0  0  0  0  0  0  0  0  0  0
    8.3694    7.6612   22.6703 C   0  0  0  0  0  0  0  0  0  0  0  0
    8.4143    6.6863   16.2273 C   0  0  0  0  0  0  0  0  0  0  0  0
   10.7581    6.5674   21.7636 C   0  0  0  0  0  0  0  0  0  0  0  0
    8.4452    8.7960   19.2958 O   0  0  0  0  0  0  0  0  0  0  0  0
    8.7122    6.7842   24.8569 C   0  0  0  0  0  0  0  0  0  0  0  0
   10.3400    6.1726   14.3081 C   0  0  0  0  0  0  0  0  0  0  0  0
    7.4297    7.5873   24.8962 C   0  0  0  0  0  0  0  0  0  0  0  0
    8.1566   10.0536   16.0516 O   0  0  0  0  0  0  0  0  0  0  0  0
   12.4989    6.2074   20.1776 C   0  0  0  0  0  0  0  0  0  0  0  0
    6.9192    9.1053   20.9073 O   0  0  0  0  0  0  0  0  0  0  0  0
   14.3979    6.0729   18.7784 C   0  0  0  0  0  0  0  0  0  0  0  0
    8.6811    9.5354   16.9998 C   0  0  0  0  0  0  0  0  0  0  0  0
    9.2512    4.2713   13.7653 O   0  0  0  0  0  0  0  0  0  0  0  0
    9.6495    8.6317   16.8332 N   0  0  0  0  0  0  0  0  0  0  0  0
    6.2934    8.6988   23.1988 O   0  0  0  0  0  0  0  0  0  0  0  0
    7.9806    8.6543   20.5437 C   0  0  0  0  0  0  0  0  0  0  0  0
   13.7270    5.7144   19.8610 O   0  0  0  0  0  0  0  0  0  0  0  0
    8.3351    5.5235   15.4478 C   0  0  0  0  0  0  0  0  0  0  0  0
    8.7700    7.8434   21.3915 C   0  0  0  0  0  0  0  0  0  0  0  0
   11.7856    6.8851   19.2401 C   0  0  0  0  0  0  0  0  0  0  0  0
   10.5281    7.4276   19.5649 C   0  0  0  0  0  0  0  0  0  0  0  0
   10.0256    7.2907   20.8484 C   0  0  0  0  0  0  0  0  0  0  0  0
    9.3113    5.3049   14.4911 C   0  0  0  0  0  0  0  0  0  0  0  0
    9.4607    7.5646   16.0139 C   0  0  0  0  0  0  0  0  0  0  0  0
   10.4192    7.3157   15.0955 C   0  0  0  0  0  0  0  0  0  0  0  0
   10.2489    6.4227   23.0218 N   0  0  0  0  0  0  0  0  0  0  0  0
    7.2472    8.0746   23.5050 C   0  0  0  0  0  0  0  0  0  0  0  0
    9.2051    6.9101   23.4604 C   0  0  0  0  0  0  0  0  0  0  0  0
   11.9646    6.0299   21.4251 C   0  0  0  0  0  0  0  0  0  0  0  0
  1  5  1  0
  1 13  1  0
  2 20  2  0
  2 28  1  0
  2 29  1  0
  3 19  4  0
  3 25  4  0
  4 23  4  0
  4 27  1  0
  4 30  4  0
  5 17  1  0
  6  8  1  0
  6 29  1  0
  7 24  4  0
  7 26  4  0
  8 28  1  0
  9 13  2  0
 10 18  1  0
 10 21  4  0
 10 30  4  0
 11 17  2  0
 12 18  1  0
 13 15  1  0
 14 24  1  0
 15 25  1  0
 16 28  2  0
 17 20  1  0
 19 24  4  0
 20 23  1  0
 21 22  4  0
 22 23  4  0
 25 26  4  0
 27 29  2  0
M  END
$$$$

 Created by Python create_sdf_string function

 30 33  0  0  0  0  0  0  0  0999 V2000
    8.3036    9.8571   18.4133 C   0  0  0  0  0  0  0  0  0  0  0  0
    8.3694    7.6612   22.6703 C   0  0  0  0  0  0  0  0  0  0  0  0
    8.4143    6.6863   16.2273 C   0  0  0  0  0  0  0  0  0  0  0  0
   10.7581    6.5674   21.7636 C   0  0  0  0  0  0  0  0  0  0  0  0
    8.4452    8.7960   19.2958 O   0  0  0  0  0  0  0  0  0  0  0  0
    8.7122    6.7842   24.8569 C   0  0  0  0  0  0  0  0  0  0  0  0
   10.3400    6.1726   14.3081 C   0  0  0  0  0  0  0  0  0  0  0  0
    7.4297    7.5873   24.8962 C   0  0  0  0  0  0  0  0  0  0  0  0
    8.1566   10.0536   16.0516 O   0  0  0  0  0  0  0  0  0  0  0  0
   12.4989    6.2074   20.1776 C   0  0  0  0  0  0  0  0  0  0  0  0
    6.9192    9.1053   20.9073 O   0  0  0  0  0  0  0  0  0  0  0  0
   14.3979    6.0729   18.7784 C   0  0  0  0  0  0  0  0  0  0  0  0
    8.6811    9.5354   16.9998 C   0  0  0  0  0  0  0  0  0  0  0  0
    9.2512    4.2713   13.7653 O   0  0  0  0  0  0  0  0  0  0  0  0
    9.6495    8.6317   16.8332 N   0  0  0  0  0  0  0  0  0  0  0  0
    6.2934    8.6988   23.1988 O   0  0  0  0  0  0  0  0  0  0  0  0
    7.9806    8.6543   20.5437 C   0  0  0  0  0  0  0  0  0  0  0  0
   13.7270    5.7144   19.8610 O   0  0  0  0  0  0  0  0  0  0  0  0
    8.3351    5.5235   15.4478 C   0  0  0  0  0  0  0  0  0  0  0  0
    8.7700    7.8434   21.3915 C   0  0  0  0  0  0  0  0  0  0  0  0
   11.7856    6.8851   19.2401 C   0  0  0  0  0  0  0  0  0  0  0  0
   10.5281    7.4276   19.5649 C   0  0  0  0  0  0  0  0  0  0  0  0
   10.0256    7.2907   20.8484 C   0  0  0  0  0  0  0  0  0  0  0  0
    9.3113    5.3049   14.4911 C   0  0  0  0  0  0  0  0  0  0  0  0
    9.4607    7.5646   16.0139 C   0  0  0  0  0  0  0  0  0  0  0  0
   10.4192    7.3157   15.0955 C   0  0  0  0  0  0  0  0  0  0  0  0
   10.2489    6.4227   23.0218 N   0  0  0  0  0  0  0  0  0  0  0  0
    7.2472    8.0746   23.5050 C   0  0  0  0  0  0  0  0  0  0  0  0
    9.2051    6.9101   23.4604 C   0  0  0  0  0  0  0  0  0  0  0  0
   11.9646    6.0299   21.4251 C   0  0  0  0  0  0  0  0  0  0  0  0
  1  5  1  0
  1 13  1  0
  2 20  2  0
  2 28  1  0
  2 29  1  0
  3 19  4  0
  3 25  4  0
  4 23  4  0
  4 27  1  0
  4 30  4  0
  5 17  1  0
  6  8  1  0
  6 29  1  0
  7 24  4  0
  7 26  4  0
  8 28  1  0
  9 13  2  0
 10 18  1  0
 10 21  4  0
 10 30  4  0
 11 17  2  0
 12 18  1  0
 13 15  1  0
 14 24  1  0
 15 25  1  0
 16 28  2  0
 17 20  1  0
 19 24  4  0
 20 23  1  0
 21 22  4  0
 22 23  4  0
 25 26  4  0
 27 29  2  0
M  END
$$$$

 Created by Python create_sdf_string function

 30 33  0  0  0  0  0  0  0  0999 V2000
    8.3036    9.8571   18.4133 C   0  0  0  0  0  0  0  0  0  0  0  0
    8.3694    7.6612   22.6703 C   0  0  0  0  0  0  0  0  0  0  0  0
    8.4143    6.6863   16.2273 C   0  0  0  0  0  0  0  0  0  0  0  0
   10.7581    6.5674   21.7636 C   0  0  0  0  0  0  0  0  0  0  0  0
    8.4452    8.7960   19.2958 O   0  0  0  0  0  0  0  0  0  0  0  0
    8.7122    6.7842   24.8569 C   0  0  0  0  0  0  0  0  0  0  0  0
   10.3400    6.1726   14.3081 C   0  0  0  0  0  0  0  0  0  0  0  0
    7.4297    7.5873   24.8962 C   0  0  0  0  0  0  0  0  0  0  0  0
    8.1566   10.0536   16.0516 O   0  0  0  0  0  0  0  0  0  0  0  0
   12.4989    6.2074   20.1776 C   0  0  0  0  0  0  0  0  0  0  0  0
    6.9192    9.1053   20.9073 O   0  0  0  0  0  0  0  0  0  0  0  0
   14.3979    6.0729   18.7784 C   0  0  0  0  0  0  0  0  0  0  0  0
    8.6811    9.5354   16.9998 C   0  0  0  0  0  0  0  0  0  0  0  0
    9.2512    4.2713   13.7653 O   0  0  0  0  0  0  0  0  0  0  0  0
    9.6495    8.6317   16.8332 N   0  0  0  0  0  0  0  0  0  0  0  0
    6.2934    8.6988   23.1988 O   0  0  0  0  0  0  0  0  0  0  0  0
    7.9806    8.6543   20.5437 C   0  0  0  0  0  0  0  0  0  0  0  0
   13.7270    5.7144   19.8610 O   0  0  0  0  0  0  0  0  0  0  0  0
    8.3351    5.5235   15.4478 C   0  0  0  0  0  0  0  0  0  0  0  0
    8.7700    7.8434   21.3915 C   0  0  0  0  0  0  0  0  0  0  0  0
   11.7856    6.8851   19.2401 C   0  0  0  0  0  0  0  0  0  0  0  0
   10.5281    7.4276   19.5649 C   0  0  0  0  0  0  0  0  0  0  0  0
   10.0256    7.2907   20.8484 C   0  0  0  0  0  0  0  0  0  0  0  0
    9.3113    5.3049   14.4911 C   0  0  0  0  0  0  0  0  0  0  0  0
    9.4607    7.5646   16.0139 C   0  0  0  0  0  0  0  0  0  0  0  0
   10.4192    7.3157   15.0955 C   0  0  0  0  0  0  0  0  0  0  0  0
   10.2489    6.4227   23.0218 N   0  0  0  0  0  0  0  0  0  0  0  0
    7.2472    8.0746   23.5050 C   0  0  0  0  0  0  0  0  0  0  0  0
    9.2051    6.9101   23.4604 C   0  0  0  0  0  0  0  0  0  0  0  0
   11.9646    6.0299   21.4251 C   0  0  0  0  0  0  0  0  0  0  0  0
  1  5  1  0
  1 13  1  0
  2 20  2  0
  2 28  1  0
  2 29  1  0
  3 19  4  0
  3 25  4  0
  4 23  4  0
  4 27  1  0
  4 30  4  0
  5 17  1  0
  6  8  1  0
  6 29  1  0
  7 24  4  0
  7 26  4  0
  8 28  1  0
  9 13  2  0
 10 18  1  0
 10 21  4  0
 10 30  4  0
 11 17  2  0
 12 18  1  0
 13 15  1  0
 14 24  1  0
 15 25  1  0
 16 28  2  0
 17 20  1  0
 19 24  4  0
 20 23  1  0
 21 22  4  0
 22 23  4  0
 25 26  4  0
 27 29  2  0
M  END
$$$$

 Created by Python create_sdf_string function

 30 33  0  0  0  0  0  0  0  0999 V2000
    8.3036    9.8571   18.4133 C   0  0  0  0  0  0  0  0  0  0  0  0
    8.3694    7.6612   22.6703 C   0  0  0  0  0  0  0  0  0  0  0  0
    8.4143    6.6863   16.2273 C   0  0  0  0  0  0  0  0  0  0  0  0
   10.7581    6.5674   21.7636 C   0  0  0  0  0  0  0  0  0  0  0  0
    8.4452    8.7960   19.2958 O   0  0  0  0  0  0  0  0  0  0  0  0
    8.7122    6.7842   24.8569 C   0  0  0  0  0  0  0  0  0  0  0  0
   10.3400    6.1726   14.3081 C   0  0  0  0  0  0  0  0  0  0  0  0
    7.4297    7.5873   24.8962 C   0  0  0  0  0  0  0  0  0  0  0  0
    8.1566   10.0536   16.0516 O   0  0  0  0  0  0  0  0  0  0  0  0
   12.4989    6.2074   20.1776 C   0  0  0  0  0  0  0  0  0  0  0  0
    6.9192    9.1053   20.9073 O   0  0  0  0  0  0  0  0  0  0  0  0
   14.3979    6.0729   18.7784 C   0  0  0  0  0  0  0  0  0  0  0  0
    8.6811    9.5354   16.9998 C   0  0  0  0  0  0  0  0  0  0  0  0
    9.2512    4.2713   13.7653 O   0  0  0  0  0  0  0  0  0  0  0  0
    9.6495    8.6317   16.8332 N   0  0  0  0  0  0  0  0  0  0  0  0
    6.2934    8.6988   23.1988 O   0  0  0  0  0  0  0  0  0  0  0  0
    7.9806    8.6543   20.5437 C   0  0  0  0  0  0  0  0  0  0  0  0
   13.7270    5.7144   19.8610 O   0  0  0  0  0  0  0  0  0  0  0  0
    8.3351    5.5235   15.4478 C   0  0  0  0  0  0  0  0  0  0  0  0
    8.7700    7.8434   21.3915 C   0  0  0  0  0  0  0  0  0  0  0  0
   11.7856    6.8851   19.2401 C   0  0  0  0  0  0  0  0  0  0  0  0
   10.5281    7.4276   19.5649 C   0  0  0  0  0  0  0  0  0  0  0  0
   10.0256    7.2907   20.8484 C   0  0  0  0  0  0  0  0  0  0  0  0
    9.3113    5.3049   14.4911 C   0  0  0  0  0  0  0  0  0  0  0  0
    9.4607    7.5646   16.0139 C   0  0  0  0  0  0  0  0  0  0  0  0
   10.4192    7.3157   15.0955 C   0  0  0  0  0  0  0  0  0  0  0  0
   10.2489    6.4227   23.0218 N   0  0  0  0  0  0  0  0  0  0  0  0
    7.2472    8.0746   23.5050 C   0  0  0  0  0  0  0  0  0  0  0  0
    9.2051    6.9101   23.4604 C   0  0  0  0  0  0  0  0  0  0  0  0
   11.9646    6.0299   21.4251 C   0  0  0  0  0  0  0  0  0  0  0  0
  1  5  1  0
  1 13  1  0
  2 20  2  0
  2 28  1  0
  2 29  1  0
  3 19  4  0
  3 25  4  0
  4 23  4  0
  4 27  1  0
  4 30  4  0
  5 17  1  0
  6  8  1  0
  6 29  1  0
  7 24  4  0
  7 26  4  0
  8 28  1  0
  9 13  2  0
 10 18  1  0
 10 21  4  0
 10 30  4  0
 11 17  2  0
 12 18  1  0
 13 15  1  0
 14 24  1  0
 15 25  1  0
 16 28  2  0
 17 20  1  0
 19 24  4  0
 20 23  1  0
 21 22  4  0
 22 23  4  0
 25 26  4  0
 27 29  2  0
M  END
$$$$

 Created by Python create_sdf_string function

 30 33  0  0  0  0  0  0  0  0999 V2000
    8.3036    9.8571   18.4133 C   0  0  0  0  0  0  0  0  0  0  0  0
    8.3694    7.6612   22.6703 C   0  0  0  0  0  0  0  0  0  0  0  0
    8.4143    6.6863   16.2273 C   0  0  0  0  0  0  0  0  0  0  0  0
   10.7581    6.5674   21.7636 C   0  0  0  0  0  0  0  0  0  0  0  0
    8.4452    8.7960   19.2958 O   0  0  0  0  0  0  0  0  0  0  0  0
    8.7122    6.7842   24.8569 C   0  0  0  0  0  0  0  0  0  0  0  0
   10.3400    6.1726   14.3081 C   0  0  0  0  0  0  0  0  0  0  0  0
    7.4297    7.5873   24.8962 C   0  0  0  0  0  0  0  0  0  0  0  0
    8.1566   10.0536   16.0516 O   0  0  0  0  0  0  0  0  0  0  0  0
   12.4989    6.2074   20.1776 C   0  0  0  0  0  0  0  0  0  0  0  0
    6.9192    9.1053   20.9073 O   0  0  0  0  0  0  0  0  0  0  0  0
   14.3979    6.0729   18.7784 C   0  0  0  0  0  0  0  0  0  0  0  0
    8.6811    9.5354   16.9998 C   0  0  0  0  0  0  0  0  0  0  0  0
    9.2512    4.2713   13.7653 O   0  0  0  0  0  0  0  0  0  0  0  0
    9.6495    8.6317   16.8332 N   0  0  0  0  0  0  0  0  0  0  0  0
    6.2934    8.6988   23.1988 O   0  0  0  0  0  0  0  0  0  0  0  0
    7.9806    8.6543   20.5437 C   0  0  0  0  0  0  0  0  0  0  0  0
   13.7270    5.7144   19.8610 O   0  0  0  0  0  0  0  0  0  0  0  0
    8.3351    5.5235   15.4478 C   0  0  0  0  0  0  0  0  0  0  0  0
    8.7700    7.8434   21.3915 C   0  0  0  0  0  0  0  0  0  0  0  0
   11.7856    6.8851   19.2401 C   0  0  0  0  0  0  0  0  0  0  0  0
   10.5281    7.4276   19.5649 C   0  0  0  0  0  0  0  0  0  0  0  0
   10.0256    7.2907   20.8484 C   0  0  0  0  0  0  0  0  0  0  0  0
    9.3113    5.3049   14.4911 C   0  0  0  0  0  0  0  0  0  0  0  0
    9.4607    7.5646   16.0139 C   0  0  0  0  0  0  0  0  0  0  0  0
   10.4192    7.3157   15.0955 C   0  0  0  0  0  0  0  0  0  0  0  0
   10.2489    6.4227   23.0218 N   0  0  0  0  0  0  0  0  0  0  0  0
    7.2472    8.0746   23.5050 C   0  0  0  0  0  0  0  0  0  0  0  0
    9.2051    6.9101   23.4604 C   0  0  0  0  0  0  0  0  0  0  0  0
   11.9646    6.0299   21.4251 C   0  0  0  0  0  0  0  0  0  0  0  0
  1  5  1  0
  1 13  1  0
  2 20  2  0
  2 28  1  0
  2 29  1  0
  3 19  4  0
  3 25  4  0
  4 23  4  0
  4 27  1  0
  4 30  4  0
  5 17  1  0
  6  8  1  0
  6 29  1  0
  7 24  4  0
  7 26  4  0
  8 28  1  0
  9 13  2  0
 10 18  1  0
 10 21  4  0
 10 30  4  0
 11 17  2  0
 12 18  1  0
 13 15  1  0
 14 24  1  0
 15 25  1  0
 16 28  2  0
 17 20  1  0
 19 24  4  0
 20 23  1  0
 21 22  4  0
 22 23  4  0
 25 26  4  0
 27 29  2  0
M  END
$$$$

 Created by Python create_sdf_string function

 30 33  0  0  0  0  0  0  0  0999 V2000
    8.3036    9.8571   18.4133 C   0  0  0  0  0  0  0  0  0  0  0  0
    8.3694    7.6612   22.6703 C   0  0  0  0  0  0  0  0  0  0  0  0
    8.4143    6.6863   16.2273 C   0  0  0  0  0  0  0  0  0  0  0  0
   10.7581    6.5674   21.7636 C   0  0  0  0  0  0  0  0  0  0  0  0
    8.4452    8.7960   19.2958 O   0  0  0  0  0  0  0  0  0  0  0  0
    8.7122    6.7842   24.8569 C   0  0  0  0  0  0  0  0  0  0  0  0
   10.3400    6.1726   14.3081 C   0  0  0  0  0  0  0  0  0  0  0  0
    7.4297    7.5873   24.8962 C   0  0  0  0  0  0  0  0  0  0  0  0
    8.1566   10.0536   16.0516 O   0  0  0  0  0  0  0  0  0  0  0  0
   12.4989    6.2074   20.1776 C   0  0  0  0  0  0  0  0  0  0  0  0
    6.9192    9.1053   20.9073 O   0  0  0  0  0  0  0  0  0  0  0  0
   14.3979    6.0729   18.7784 C   0  0  0  0  0  0  0  0  0  0  0  0
    8.6811    9.5354   16.9998 C   0  0  0  0  0  0  0  0  0  0  0  0
    9.2512    4.2713   13.7653 O   0  0  0  0  0  0  0  0  0  0  0  0
    9.6495    8.6317   16.8332 N   0  0  0  0  0  0  0  0  0  0  0  0
    6.2934    8.6988   23.1988 O   0  0  0  0  0  0  0  0  0  0  0  0
    7.9806    8.6543   20.5437 C   0  0  0  0  0  0  0  0  0  0  0  0
   13.7270    5.7144   19.8610 O   0  0  0  0  0  0  0  0  0  0  0  0
    8.3351    5.5235   15.4478 C   0  0  0  0  0  0  0  0  0  0  0  0
    8.7700    7.8434   21.3915 C   0  0  0  0  0  0  0  0  0  0  0  0
   11.7856    6.8851   19.2401 C   0  0  0  0  0  0  0  0  0  0  0  0
   10.5281    7.4276   19.5649 C   0  0  0  0  0  0  0  0  0  0  0  0
   10.0256    7.2907   20.8484 C   0  0  0  0  0  0  0  0  0  0  0  0
    9.3113    5.3049   14.4911 C   0  0  0  0  0  0  0  0  0  0  0  0
    9.4607    7.5646   16.0139 C   0  0  0  0  0  0  0  0  0  0  0  0
   10.4192    7.3157   15.0955 C   0  0  0  0  0  0  0  0  0  0  0  0
   10.2489    6.4227   23.0218 N   0  0  0  0  0  0  0  0  0  0  0  0
    7.2472    8.0746   23.5050 C   0  0  0  0  0  0  0  0  0  0  0  0
    9.2051    6.9101   23.4604 C   0  0  0  0  0  0  0  0  0  0  0  0
   11.9646    6.0299   21.4251 C   0  0  0  0  0  0  0  0  0  0  0  0
  1  5  1  0
  1 13  1  0
  2 20  2  0
  2 28  1  0
  2 29  1  0
  3 19  4  0
  3 25  4  0
  4 23  4  0
  4 27  1  0
  4 30  4  0
  5 17  1  0
  6  8  1  0
  6 29  1  0
  7 24  4  0
  7 26  4  0
  8 28  1  0
  9 13  2  0
 10 18  1  0
 10 21  4  0
 10 30  4  0
 11 17  2  0
 12 18  1  0
 13 15  1  0
 14 24  1  0
 15 25  1  0
 16 28  2  0
 17 20  1  0
 19 24  4  0
 20 23  1  0
 21 22  4  0
 22 23  4  0
 25 26  4  0
 27 29  2  0
M  END
$$$$

 Created by Python create_sdf_string function

 30 33  0  0  0  0  0  0  0  0999 V2000
    8.3036    9.8571   18.4133 C   0  0  0  0  0  0  0  0  0  0  0  0
    8.3694    7.6612   22.6703 C   0  0  0  0  0  0  0  0  0  0  0  0
    8.4143    6.6863   16.2273 C   0  0  0  0  0  0  0  0  0  0  0  0
   10.7581    6.5674   21.7636 C   0  0  0  0  0  0  0  0  0  0  0  0
    8.4452    8.7960   19.2958 O   0  0  0  0  0  0  0  0  0  0  0  0
    8.7122    6.7842   24.8569 C   0  0  0  0  0  0  0  0  0  0  0  0
   10.3400    6.1726   14.3081 C   0  0  0  0  0  0  0  0  0  0  0  0
    7.4297    7.5873   24.8962 C   0  0  0  0  0  0  0  0  0  0  0  0
    8.1566   10.0536   16.0516 O   0  0  0  0  0  0  0  0  0  0  0  0
   12.4989    6.2074   20.1776 C   0  0  0  0  0  0  0  0  0  0  0  0
    6.9192    9.1053   20.9073 O   0  0  0  0  0  0  0  0  0  0  0  0
   14.3979    6.0729   18.7784 C   0  0  0  0  0  0  0  0  0  0  0  0
    8.6811    9.5354   16.9998 C   0  0  0  0  0  0  0  0  0  0  0  0
    9.2512    4.2713   13.7653 O   0  0  0  0  0  0  0  0  0  0  0  0
    9.6495    8.6317   16.8332 N   0  0  0  0  0  0  0  0  0  0  0  0
    6.2934    8.6988   23.1988 O   0  0  0  0  0  0  0  0  0  0  0  0
    7.9806    8.6543   20.5437 C   0  0  0  0  0  0  0  0  0  0  0  0
   13.7270    5.7144   19.8610 O   0  0  0  0  0  0  0  0  0  0  0  0
    8.3351    5.5235   15.4478 C   0  0  0  0  0  0  0  0  0  0  0  0
    8.7700    7.8434   21.3915 C   0  0  0  0  0  0  0  0  0  0  0  0
   11.7856    6.8851   19.2401 C   0  0  0  0  0  0  0  0  0  0  0  0
   10.5281    7.4276   19.5649 C   0  0  0  0  0  0  0  0  0  0  0  0
   10.0256    7.2907   20.8484 C   0  0  0  0  0  0  0  0  0  0  0  0
    9.3113    5.3049   14.4911 C   0  0  0  0  0  0  0  0  0  0  0  0
    9.4607    7.5646   16.0139 C   0  0  0  0  0  0  0  0  0  0  0  0
   10.4192    7.3157   15.0955 C   0  0  0  0  0  0  0  0  0  0  0  0
   10.2489    6.4227   23.0218 N   0  0  0  0  0  0  0  0  0  0  0  0
    7.2472    8.0746   23.5050 C   0  0  0  0  0  0  0  0  0  0  0  0
    9.2051    6.9101   23.4604 C   0  0  0  0  0  0  0  0  0  0  0  0
   11.9646    6.0299   21.4251 C   0  0  0  0  0  0  0  0  0  0  0  0
  1  5  1  0
  1 13  1  0
  2 20  2  0
  2 28  1  0
  2 29  1  0
  3 19  4  0
  3 25  4  0
  4 23  4  0
  4 27  1  0
  4 30  4  0
  5 17  1  0
  6  8  1  0
  6 29  1  0
  7 24  4  0
  7 26  4  0
  8 28  1  0
  9 13  2  0
 10 18  1  0
 10 21  4  0
 10 30  4  0
 11 17  2  0
 12 18  1  0
 13 15  1  0
 14 24  1  0
 15 25  1  0
 16 28  2  0
 17 20  1  0
 19 24  4  0
 20 23  1  0
 21 22  4  0
 22 23  4  0
 25 26  4  0
 27 29  2  0
M  END
$$$$

 Created by Python create_sdf_string function

 30 33  0  0  0  0  0  0  0  0999 V2000
    8.3036    9.8571   18.4133 C   0  0  0  0  0  0  0  0  0  0  0  0
    8.3694    7.6612   22.6703 C   0  0  0  0  0  0  0  0  0  0  0  0
    8.4143    6.6863   16.2273 C   0  0  0  0  0  0  0  0  0  0  0  0
   10.7581    6.5674   21.7636 C   0  0  0  0  0  0  0  0  0  0  0  0
    8.4452    8.7960   19.2958 O   0  0  0  0  0  0  0  0  0  0  0  0
    8.7122    6.7842   24.8569 C   0  0  0  0  0  0  0  0  0  0  0  0
   10.3400    6.1726   14.3081 C   0  0  0  0  0  0  0  0  0  0  0  0
    7.4297    7.5873   24.8962 C   0  0  0  0  0  0  0  0  0  0  0  0
    8.1566   10.0536   16.0516 O   0  0  0  0  0  0  0  0  0  0  0  0
   12.4989    6.2074   20.1776 C   0  0  0  0  0  0  0  0  0  0  0  0
    6.9192    9.1053   20.9073 O   0  0  0  0  0  0  0  0  0  0  0  0
   14.3979    6.0729   18.7784 C   0  0  0  0  0  0  0  0  0  0  0  0
    8.6811    9.5354   16.9998 C   0  0  0  0  0  0  0  0  0  0  0  0
    9.2512    4.2713   13.7653 O   0  0  0  0  0  0  0  0  0  0  0  0
    9.6495    8.6317   16.8332 N   0  0  0  0  0  0  0  0  0  0  0  0
    6.2934    8.6988   23.1988 O   0  0  0  0  0  0  0  0  0  0  0  0
    7.9806    8.6543   20.5437 C   0  0  0  0  0  0  0  0  0  0  0  0
   13.7270    5.7144   19.8610 O   0  0  0  0  0  0  0  0  0  0  0  0
    8.3351    5.5235   15.4478 C   0  0  0  0  0  0  0  0  0  0  0  0
    8.7700    7.8434   21.3915 C   0  0  0  0  0  0  0  0  0  0  0  0
   11.7856    6.8851   19.2401 C   0  0  0  0  0  0  0  0  0  0  0  0
   10.5281    7.4276   19.5649 C   0  0  0  0  0  0  0  0  0  0  0  0
   10.0256    7.2907   20.8484 C   0  0  0  0  0  0  0  0  0  0  0  0
    9.3113    5.3049   14.4911 C   0  0  0  0  0  0  0  0  0  0  0  0
    9.4607    7.5646   16.0139 C   0  0  0  0  0  0  0  0  0  0  0  0
   10.4192    7.3157   15.0955 C   0  0  0  0  0  0  0  0  0  0  0  0
   10.2489    6.4227   23.0218 N   0  0  0  0  0  0  0  0  0  0  0  0
    7.2472    8.0746   23.5050 C   0  0  0  0  0  0  0  0  0  0  0  0
    9.2051    6.9101   23.4604 C   0  0  0  0  0  0  0  0  0  0  0  0
   11.9646    6.0299   21.4251 C   0  0  0  0  0  0  0  0  0  0  0  0
  1  5  1  0
  1 13  1  0
  2 20  2  0
  2 28  1  0
  2 29  1  0
  3 19  4  0
  3 25  4  0
  4 23  4  0
  4 27  1  0
  4 30  4  0
  5 17  1  0
  6  8  1  0
  6 29  1  0
  7 24  4  0
  7 26  4  0
  8 28  1  0
  9 13  2  0
 10 18  1  0
 10 21  4  0
 10 30  4  0
 11 17  2  0
 12 18  1  0
 13 15  1  0
 14 24  1  0
 15 25  1  0
 16 28  2  0
 17 20  1  0
 19 24  4  0
 20 23  1  0
 21 22  4  0
 22 23  4  0
 25 26  4  0
 27 29  2  0
M  END
$$$$

 Created by Python create_sdf_string function

 30 33  0  0  0  0  0  0  0  0999 V2000
    8.3036    9.8571   18.4133 C   0  0  0  0  0  0  0  0  0  0  0  0
    8.3694    7.6612   22.6703 C   0  0  0  0  0  0  0  0  0  0  0  0
    8.4143    6.6863   16.2273 C   0  0  0  0  0  0  0  0  0  0  0  0
   10.7581    6.5674   21.7636 C   0  0  0  0  0  0  0  0  0  0  0  0
    8.4452    8.7960   19.2958 O   0  0  0  0  0  0  0  0  0  0  0  0
    8.7122    6.7842   24.8569 C   0  0  0  0  0  0  0  0  0  0  0  0
   10.3400    6.1726   14.3081 C   0  0  0  0  0  0  0  0  0  0  0  0
    7.4297    7.5873   24.8962 C   0  0  0  0  0  0  0  0  0  0  0  0
    8.1566   10.0536   16.0516 O   0  0  0  0  0  0  0  0  0  0  0  0
   12.4989    6.2074   20.1776 C   0  0  0  0  0  0  0  0  0  0  0  0
    6.9192    9.1053   20.9073 O   0  0  0  0  0  0  0  0  0  0  0  0
   14.3979    6.0729   18.7784 C   0  0  0  0  0  0  0  0  0  0  0  0
    8.6811    9.5354   16.9998 C   0  0  0  0  0  0  0  0  0  0  0  0
    9.2512    4.2713   13.7653 O   0  0  0  0  0  0  0  0  0  0  0  0
    9.6495    8.6317   16.8332 N   0  0  0  0  0  0  0  0  0  0  0  0
    6.2934    8.6988   23.1988 O   0  0  0  0  0  0  0  0  0  0  0  0
    7.9806    8.6543   20.5437 C   0  0  0  0  0  0  0  0  0  0  0  0
   13.7270    5.7144   19.8610 O   0  0  0  0  0  0  0  0  0  0  0  0
    8.3351    5.5235   15.4478 C   0  0  0  0  0  0  0  0  0  0  0  0
    8.7700    7.8434   21.3915 C   0  0  0  0  0  0  0  0  0  0  0  0
   11.7856    6.8851   19.2401 C   0  0  0  0  0  0  0  0  0  0  0  0
   10.5281    7.4276   19.5649 C   0  0  0  0  0  0  0  0  0  0  0  0
   10.0256    7.2907   20.8484 C   0  0  0  0  0  0  0  0  0  0  0  0
    9.3113    5.3049   14.4911 C   0  0  0  0  0  0  0  0  0  0  0  0
    9.4607    7.5646   16.0139 C   0  0  0  0  0  0  0  0  0  0  0  0
   10.4192    7.3157   15.0955 C   0  0  0  0  0  0  0  0  0  0  0  0
   10.2489    6.4227   23.0218 N   0  0  0  0  0  0  0  0  0  0  0  0
    7.2472    8.0746   23.5050 C   0  0  0  0  0  0  0  0  0  0  0  0
    9.2051    6.9101   23.4604 C   0  0  0  0  0  0  0  0  0  0  0  0
   11.9646    6.0299   21.4251 C   0  0  0  0  0  0  0  0  0  0  0  0
  1  5  1  0
  1 13  1  0
  2 20  2  0
  2 28  1  0
  2 29  1  0
  3 19  4  0
  3 25  4  0
  4 23  4  0
  4 27  1  0
  4 30  4  0
  5 17  1  0
  6  8  1  0
  6 29  1  0
  7 24  4  0
  7 26  4  0
  8 28  1  0
  9 13  2  0
 10 18  1  0
 10 21  4  0
 10 30  4  0
 11 17  2  0
 12 18  1  0
 13 15  1  0
 14 24  1  0
 15 25  1  0
 16 28  2  0
 17 20  1  0
 19 24  4  0
 20 23  1  0
 21 22  4  0
 22 23  4  0
 25 26  4  0
 27 29  2  0
M  END
$$$$

 Created by Python create_sdf_string function

 30 33  0  0  0  0  0  0  0  0999 V2000
    8.3036    9.8571   18.4133 C   0  0  0  0  0  0  0  0  0  0  0  0
    8.3694    7.6612   22.6703 C   0  0  0  0  0  0  0  0  0  0  0  0
    8.4143    6.6863   16.2273 C   0  0  0  0  0  0  0  0  0  0  0  0
   10.7581    6.5674   21.7636 C   0  0  0  0  0  0  0  0  0  0  0  0
    8.4452    8.7960   19.2958 O   0  0  0  0  0  0  0  0  0  0  0  0
    8.7122    6.7842   24.8569 C   0  0  0  0  0  0  0  0  0  0  0  0
   10.3400    6.1726   14.3081 C   0  0  0  0  0  0  0  0  0  0  0  0
    7.4297    7.5873   24.8962 C   0  0  0  0  0  0  0  0  0  0  0  0
    8.1566   10.0536   16.0516 O   0  0  0  0  0  0  0  0  0  0  0  0
   12.4989    6.2074   20.1776 C   0  0  0  0  0  0  0  0  0  0  0  0
    6.9192    9.1053   20.9073 O   0  0  0  0  0  0  0  0  0  0  0  0
   14.3979    6.0729   18.7784 C   0  0  0  0  0  0  0  0  0  0  0  0
    8.6811    9.5354   16.9998 C   0  0  0  0  0  0  0  0  0  0  0  0
    9.2512    4.2713   13.7653 O   0  0  0  0  0  0  0  0  0  0  0  0
    9.6495    8.6317   16.8332 N   0  0  0  0  0  0  0  0  0  0  0  0
    6.2934    8.6988   23.1988 O   0  0  0  0  0  0  0  0  0  0  0  0
    7.9806    8.6543   20.5437 C   0  0  0  0  0  0  0  0  0  0  0  0
   13.7270    5.7144   19.8610 O   0  0  0  0  0  0  0  0  0  0  0  0
    8.3351    5.5235   15.4478 C   0  0  0  0  0  0  0  0  0  0  0  0
    8.7700    7.8434   21.3915 C   0  0  0  0  0  0  0  0  0  0  0  0
   11.7856    6.8851   19.2401 C   0  0  0  0  0  0  0  0  0  0  0  0
   10.5281    7.4276   19.5649 C   0  0  0  0  0  0  0  0  0  0  0  0
   10.0256    7.2907   20.8484 C   0  0  0  0  0  0  0  0  0  0  0  0
    9.3113    5.3049   14.4911 C   0  0  0  0  0  0  0  0  0  0  0  0
    9.4607    7.5646   16.0139 C   0  0  0  0  0  0  0  0  0  0  0  0
   10.4192    7.3157   15.0955 C   0  0  0  0  0  0  0  0  0  0  0  0
   10.2489    6.4227   23.0218 N   0  0  0  0  0  0  0  0  0  0  0  0
    7.2472    8.0746   23.5050 C   0  0  0  0  0  0  0  0  0  0  0  0
    9.2051    6.9101   23.4604 C   0  0  0  0  0  0  0  0  0  0  0  0
   11.9646    6.0299   21.4251 C   0  0  0  0  0  0  0  0  0  0  0  0
  1  5  1  0
  1 13  1  0
  2 20  2  0
  2 28  1  0
  2 29  1  0
  3 19  4  0
  3 25  4  0
  4 23  4  0
  4 27  1  0
  4 30  4  0
  5 17  1  0
  6  8  1  0
  6 29  1  0
  7 24  4  0
  7 26  4  0
  8 28  1  0
  9 13  2  0
 10 18  1  0
 10 21  4  0
 10 30  4  0
 11 17  2  0
 12 18  1  0
 13 15  1  0
 14 24  1  0
 15 25  1  0
 16 28  2  0
 17 20  1  0
 19 24  4  0
 20 23  1  0
 21 22  4  0
 22 23  4  0
 25 26  4  0
 27 29  2  0
M  END
$$$$

 Created by Python create_sdf_string function

 30 33  0  0  0  0  0  0  0  0999 V2000
    8.3036    9.8571   18.4133 C   0  0  0  0  0  0  0  0  0  0  0  0
    8.3694    7.6612   22.6703 C   0  0  0  0  0  0  0  0  0  0  0  0
    8.4143    6.6863   16.2273 C   0  0  0  0  0  0  0  0  0  0  0  0
   10.7581    6.5674   21.7636 C   0  0  0  0  0  0  0  0  0  0  0  0
    8.4452    8.7960   19.2958 O   0  0  0  0  0  0  0  0  0  0  0  0
    8.7122    6.7842   24.8569 C   0  0  0  0  0  0  0  0  0  0  0  0
   10.3400    6.1726   14.3081 C   0  0  0  0  0  0  0  0  0  0  0  0
    7.4297    7.5873   24.8962 C   0  0  0  0  0  0  0  0  0  0  0  0
    8.1566   10.0536   16.0516 O   0  0  0  0  0  0  0  0  0  0  0  0
   12.4989    6.2074   20.1776 C   0  0  0  0  0  0  0  0  0  0  0  0
    6.9192    9.1053   20.9073 O   0  0  0  0  0  0  0  0  0  0  0  0
   14.3979    6.0729   18.7784 C   0  0  0  0  0  0  0  0  0  0  0  0
    8.6811    9.5354   16.9998 C   0  0  0  0  0  0  0  0  0  0  0  0
    9.2512    4.2713   13.7653 O   0  0  0  0  0  0  0  0  0  0  0  0
    9.6495    8.6317   16.8332 N   0  0  0  0  0  0  0  0  0  0  0  0
    6.2934    8.6988   23.1988 O   0  0  0  0  0  0  0  0  0  0  0  0
    7.9806    8.6543   20.5437 C   0  0  0  0  0  0  0  0  0  0  0  0
   13.7270    5.7144   19.8610 O   0  0  0  0  0  0  0  0  0  0  0  0
    8.3351    5.5235   15.4478 C   0  0  0  0  0  0  0  0  0  0  0  0
    8.7700    7.8434   21.3915 C   0  0  0  0  0  0  0  0  0  0  0  0
   11.7856    6.8851   19.2401 C   0  0  0  0  0  0  0  0  0  0  0  0
   10.5281    7.4276   19.5649 C   0  0  0  0  0  0  0  0  0  0  0  0
   10.0256    7.2907   20.8484 C   0  0  0  0  0  0  0  0  0  0  0  0
    9.3113    5.3049   14.4911 C   0  0  0  0  0  0  0  0  0  0  0  0
    9.4607    7.5646   16.0139 C   0  0  0  0  0  0  0  0  0  0  0  0
   10.4192    7.3157   15.0955 C   0  0  0  0  0  0  0  0  0  0  0  0
   10.2489    6.4227   23.0218 N   0  0  0  0  0  0  0  0  0  0  0  0
    7.2472    8.0746   23.5050 C   0  0  0  0  0  0  0  0  0  0  0  0
    9.2051    6.9101   23.4604 C   0  0  0  0  0  0  0  0  0  0  0  0
   11.9646    6.0299   21.4251 C   0  0  0  0  0  0  0  0  0  0  0  0
  1  5  1  0
  1 13  1  0
  2 20  2  0
  2 28  1  0
  2 29  1  0
  3 19  4  0
  3 25  4  0
  4 23  4  0
  4 27  1  0
  4 30  4  0
  5 17  1  0
  6  8  1  0
  6 29  1  0
  7 24  4  0
  7 26  4  0
  8 28  1  0
  9 13  2  0
 10 18  1  0
 10 21  4  0
 10 30  4  0
 11 17  2  0
 12 18  1  0
 13 15  1  0
 14 24  1  0
 15 25  1  0
 16 28  2  0
 17 20  1  0
 19 24  4  0
 20 23  1  0
 21 22  4  0
 22 23  4  0
 25 26  4  0
 27 29  2  0
M  END
$$$$

 Created by Python create_sdf_string function

 30 33  0  0  0  0  0  0  0  0999 V2000
    8.3036    9.8571   18.4133 C   0  0  0  0  0  0  0  0  0  0  0  0
    8.3694    7.6612   22.6703 C   0  0  0  0  0  0  0  0  0  0  0  0
    8.4143    6.6863   16.2273 C   0  0  0  0  0  0  0  0  0  0  0  0
   10.7581    6.5674   21.7636 C   0  0  0  0  0  0  0  0  0  0  0  0
    8.4452    8.7960   19.2958 O   0  0  0  0  0  0  0  0  0  0  0  0
    8.7122    6.7842   24.8569 C   0  0  0  0  0  0  0  0  0  0  0  0
   10.3400    6.1726   14.3081 C   0  0  0  0  0  0  0  0  0  0  0  0
    7.4297    7.5873   24.8962 C   0  0  0  0  0  0  0  0  0  0  0  0
    8.1566   10.0536   16.0516 O   0  0  0  0  0  0  0  0  0  0  0  0
   12.4989    6.2074   20.1776 C   0  0  0  0  0  0  0  0  0  0  0  0
    6.9192    9.1053   20.9073 O   0  0  0  0  0  0  0  0  0  0  0  0
   14.3979    6.0729   18.7784 C   0  0  0  0  0  0  0  0  0  0  0  0
    8.6811    9.5354   16.9998 C   0  0  0  0  0  0  0  0  0  0  0  0
    9.2512    4.2713   13.7653 O   0  0  0  0  0  0  0  0  0  0  0  0
    9.6495    8.6317   16.8332 N   0  0  0  0  0  0  0  0  0  0  0  0
    6.2934    8.6988   23.1988 O   0  0  0  0  0  0  0  0  0  0  0  0
    7.9806    8.6543   20.5437 C   0  0  0  0  0  0  0  0  0  0  0  0
   13.7270    5.7144   19.8610 O   0  0  0  0  0  0  0  0  0  0  0  0
    8.3351    5.5235   15.4478 C   0  0  0  0  0  0  0  0  0  0  0  0
    8.7700    7.8434   21.3915 C   0  0  0  0  0  0  0  0  0  0  0  0
   11.7856    6.8851   19.2401 C   0  0  0  0  0  0  0  0  0  0  0  0
   10.5281    7.4276   19.5649 C   0  0  0  0  0  0  0  0  0  0  0  0
   10.0256    7.2907   20.8484 C   0  0  0  0  0  0  0  0  0  0  0  0
    9.3113    5.3049   14.4911 C   0  0  0  0  0  0  0  0  0  0  0  0
    9.4607    7.5646   16.0139 C   0  0  0  0  0  0  0  0  0  0  0  0
   10.4192    7.3157   15.0955 C   0  0  0  0  0  0  0  0  0  0  0  0
   10.2489    6.4227   23.0218 N   0  0  0  0  0  0  0  0  0  0  0  0
    7.2472    8.0746   23.5050 C   0  0  0  0  0  0  0  0  0  0  0  0
    9.2051    6.9101   23.4604 C   0  0  0  0  0  0  0  0  0  0  0  0
   11.9646    6.0299   21.4251 C   0  0  0  0  0  0  0  0  0  0  0  0
  1  5  1  0
  1 13  1  0
  2 20  2  0
  2 28  1  0
  2 29  1  0
  3 19  4  0
  3 25  4  0
  4 23  4  0
  4 27  1  0
  4 30  4  0
  5 17  1  0
  6  8  1  0
  6 29  1  0
  7 24  4  0
  7 26  4  0
  8 28  1  0
  9 13  2  0
 10 18  1  0
 10 21  4  0
 10 30  4  0
 11 17  2  0
 12 18  1  0
 13 15  1  0
 14 24  1  0
 15 25  1  0
 16 28  2  0
 17 20  1  0
 19 24  4  0
 20 23  1  0
 21 22  4  0
 22 23  4  0
 25 26  4  0
 27 29  2  0
M  END
$$$$

 Created by Python create_sdf_string function

 30 33  0  0  0  0  0  0  0  0999 V2000
    8.3036    9.8571   18.4133 C   0  0  0  0  0  0  0  0  0  0  0  0
    8.3694    7.6612   22.6703 C   0  0  0  0  0  0  0  0  0  0  0  0
    8.4143    6.6863   16.2273 C   0  0  0  0  0  0  0  0  0  0  0  0
   10.7581    6.5674   21.7636 C   0  0  0  0  0  0  0  0  0  0  0  0
    8.4452    8.7960   19.2958 O   0  0  0  0  0  0  0  0  0  0  0  0
    8.7122    6.7842   24.8569 C   0  0  0  0  0  0  0  0  0  0  0  0
   10.3400    6.1726   14.3081 C   0  0  0  0  0  0  0  0  0  0  0  0
    7.4297    7.5873   24.8962 C   0  0  0  0  0  0  0  0  0  0  0  0
    8.1566   10.0536   16.0516 O   0  0  0  0  0  0  0  0  0  0  0  0
   12.4989    6.2074   20.1776 C   0  0  0  0  0  0  0  0  0  0  0  0
    6.9192    9.1053   20.9073 O   0  0  0  0  0  0  0  0  0  0  0  0
   14.3979    6.0729   18.7784 C   0  0  0  0  0  0  0  0  0  0  0  0
    8.6811    9.5354   16.9998 C   0  0  0  0  0  0  0  0  0  0  0  0
    9.2512    4.2713   13.7653 O   0  0  0  0  0  0  0  0  0  0  0  0
    9.6495    8.6317   16.8332 N   0  0  0  0  0  0  0  0  0  0  0  0
    6.2934    8.6988   23.1988 O   0  0  0  0  0  0  0  0  0  0  0  0
    7.9806    8.6543   20.5437 C   0  0  0  0  0  0  0  0  0  0  0  0
   13.7270    5.7144   19.8610 O   0  0  0  0  0  0  0  0  0  0  0  0
    8.3351    5.5235   15.4478 C   0  0  0  0  0  0  0  0  0  0  0  0
    8.7700    7.8434   21.3915 C   0  0  0  0  0  0  0  0  0  0  0  0
   11.7856    6.8851   19.2401 C   0  0  0  0  0  0  0  0  0  0  0  0
   10.5281    7.4276   19.5649 C   0  0  0  0  0  0  0  0  0  0  0  0
   10.0256    7.2907   20.8484 C   0  0  0  0  0  0  0  0  0  0  0  0
    9.3113    5.3049   14.4911 C   0  0  0  0  0  0  0  0  0  0  0  0
    9.4607    7.5646   16.0139 C   0  0  0  0  0  0  0  0  0  0  0  0
   10.4192    7.3157   15.0955 C   0  0  0  0  0  0  0  0  0  0  0  0
   10.2489    6.4227   23.0218 N   0  0  0  0  0  0  0  0  0  0  0  0
    7.2472    8.0746   23.5050 C   0  0  0  0  0  0  0  0  0  0  0  0
    9.2051    6.9101   23.4604 C   0  0  0  0  0  0  0  0  0  0  0  0
   11.9646    6.0299   21.4251 C   0  0  0  0  0  0  0  0  0  0  0  0
  1  5  1  0
  1 13  1  0
  2 20  2  0
  2 28  1  0
  2 29  1  0
  3 19  4  0
  3 25  4  0
  4 23  4  0
  4 27  1  0
  4 30  4  0
  5 17  1  0
  6  8  1  0
  6 29  1  0
  7 24  4  0
  7 26  4  0
  8 28  1  0
  9 13  2  0
 10 18  1  0
 10 21  4  0
 10 30  4  0
 11 17  2  0
 12 18  1  0
 13 15  1  0
 14 24  1  0
 15 25  1  0
 16 28  2  0
 17 20  1  0
 19 24  4  0
 20 23  1  0
 21 22  4  0
 22 23  4  0
 25 26  4  0
 27 29  2  0
M  END
$$$$

 Created by Python create_sdf_string function

 30 33  0  0  0  0  0  0  0  0999 V2000
    8.3036    9.8571   18.4133 C   0  0  0  0  0  0  0  0  0  0  0  0
    8.3694    7.6612   22.6703 C   0  0  0  0  0  0  0  0  0  0  0  0
    8.4143    6.6863   16.2273 C   0  0  0  0  0  0  0  0  0  0  0  0
   10.7581    6.5674   21.7636 C   0  0  0  0  0  0  0  0  0  0  0  0
    8.4452    8.7960   19.2958 O   0  0  0  0  0  0  0  0  0  0  0  0
    8.7122    6.7842   24.8569 C   0  0  0  0  0  0  0  0  0  0  0  0
   10.3400    6.1726   14.3081 C   0  0  0  0  0  0  0  0  0  0  0  0
    7.4297    7.5873   24.8962 C   0  0  0  0  0  0  0  0  0  0  0  0
    8.1566   10.0536   16.0516 O   0  0  0  0  0  0  0  0  0  0  0  0
   12.4989    6.2074   20.1776 C   0  0  0  0  0  0  0  0  0  0  0  0
    6.9192    9.1053   20.9073 O   0  0  0  0  0  0  0  0  0  0  0  0
   14.3979    6.0729   18.7784 C   0  0  0  0  0  0  0  0  0  0  0  0
    8.6811    9.5354   16.9998 C   0  0  0  0  0  0  0  0  0  0  0  0
    9.2512    4.2713   13.7653 O   0  0  0  0  0  0  0  0  0  0  0  0
    9.6495    8.6317   16.8332 N   0  0  0  0  0  0  0  0  0  0  0  0
    6.2934    8.6988   23.1988 O   0  0  0  0  0  0  0  0  0  0  0  0
    7.9806    8.6543   20.5437 C   0  0  0  0  0  0  0  0  0  0  0  0
   13.7270    5.7144   19.8610 O   0  0  0  0  0  0  0  0  0  0  0  0
    8.3351    5.5235   15.4478 C   0  0  0  0  0  0  0  0  0  0  0  0
    8.7700    7.8434   21.3915 C   0  0  0  0  0  0  0  0  0  0  0  0
   11.7856    6.8851   19.2401 C   0  0  0  0  0  0  0  0  0  0  0  0
   10.5281    7.4276   19.5649 C   0  0  0  0  0  0  0  0  0  0  0  0
   10.0256    7.2907   20.8484 C   0  0  0  0  0  0  0  0  0  0  0  0
    9.3113    5.3049   14.4911 C   0  0  0  0  0  0  0  0  0  0  0  0
    9.4607    7.5646   16.0139 C   0  0  0  0  0  0  0  0  0  0  0  0
   10.4192    7.3157   15.0955 C   0  0  0  0  0  0  0  0  0  0  0  0
   10.2489    6.4227   23.0218 N   0  0  0  0  0  0  0  0  0  0  0  0
    7.2472    8.0746   23.5050 C   0  0  0  0  0  0  0  0  0  0  0  0
    9.2051    6.9101   23.4604 C   0  0  0  0  0  0  0  0  0  0  0  0
   11.9646    6.0299   21.4251 C   0  0  0  0  0  0  0  0  0  0  0  0
  1  5  1  0
  1 13  1  0
  2 20  2  0
  2 28  1  0
  2 29  1  0
  3 19  4  0
  3 25  4  0
  4 23  4  0
  4 27  1  0
  4 30  4  0
  5 17  1  0
  6  8  1  0
  6 29  1  0
  7 24  4  0
  7 26  4  0
  8 28  1  0
  9 13  2  0
 10 18  1  0
 10 21  4  0
 10 30  4  0
 11 17  2  0
 12 18  1  0
 13 15  1  0
 14 24  1  0
 15 25  1  0
 16 28  2  0
 17 20  1  0
 19 24  4  0
 20 23  1  0
 21 22  4  0
 22 23  4  0
 25 26  4  0
 27 29  2  0
M  END
$$$$

 Created by Python create_sdf_string function

 30 33  0  0  0  0  0  0  0  0999 V2000
    8.3036    9.8571   18.4133 C   0  0  0  0  0  0  0  0  0  0  0  0
    8.3694    7.6612   22.6703 C   0  0  0  0  0  0  0  0  0  0  0  0
    8.4143    6.6863   16.2273 C   0  0  0  0  0  0  0  0  0  0  0  0
   10.7581    6.5674   21.7636 C   0  0  0  0  0  0  0  0  0  0  0  0
    8.4452    8.7960   19.2958 O   0  0  0  0  0  0  0  0  0  0  0  0
    8.7122    6.7842   24.8569 C   0  0  0  0  0  0  0  0  0  0  0  0
   10.3400    6.1726   14.3081 C   0  0  0  0  0  0  0  0  0  0  0  0
    7.4297    7.5873   24.8962 C   0  0  0  0  0  0  0  0  0  0  0  0
    8.1566   10.0536   16.0516 O   0  0  0  0  0  0  0  0  0  0  0  0
   12.4989    6.2074   20.1776 C   0  0  0  0  0  0  0  0  0  0  0  0
    6.9192    9.1053   20.9073 O   0  0  0  0  0  0  0  0  0  0  0  0
   14.3979    6.0729   18.7784 C   0  0  0  0  0  0  0  0  0  0  0  0
    8.6811    9.5354   16.9998 C   0  0  0  0  0  0  0  0  0  0  0  0
    9.2512    4.2713   13.7653 O   0  0  0  0  0  0  0  0  0  0  0  0
    9.6495    8.6317   16.8332 N   0  0  0  0  0  0  0  0  0  0  0  0
    6.2934    8.6988   23.1988 O   0  0  0  0  0  0  0  0  0  0  0  0
    7.9806    8.6543   20.5437 C   0  0  0  0  0  0  0  0  0  0  0  0
   13.7270    5.7144   19.8610 O   0  0  0  0  0  0  0  0  0  0  0  0
    8.3351    5.5235   15.4478 C   0  0  0  0  0  0  0  0  0  0  0  0
    8.7700    7.8434   21.3915 C   0  0  0  0  0  0  0  0  0  0  0  0
   11.7856    6.8851   19.2401 C   0  0  0  0  0  0  0  0  0  0  0  0
   10.5281    7.4276   19.5649 C   0  0  0  0  0  0  0  0  0  0  0  0
   10.0256    7.2907   20.8484 C   0  0  0  0  0  0  0  0  0  0  0  0
    9.3113    5.3049   14.4911 C   0  0  0  0  0  0  0  0  0  0  0  0
    9.4607    7.5646   16.0139 C   0  0  0  0  0  0  0  0  0  0  0  0
   10.4192    7.3157   15.0955 C   0  0  0  0  0  0  0  0  0  0  0  0
   10.2489    6.4227   23.0218 N   0  0  0  0  0  0  0  0  0  0  0  0
    7.2472    8.0746   23.5050 C   0  0  0  0  0  0  0  0  0  0  0  0
    9.2051    6.9101   23.4604 C   0  0  0  0  0  0  0  0  0  0  0  0
   11.9646    6.0299   21.4251 C   0  0  0  0  0  0  0  0  0  0  0  0
  1  5  1  0
  1 13  1  0
  2 20  2  0
  2 28  1  0
  2 29  1  0
  3 19  4  0
  3 25  4  0
  4 23  4  0
  4 27  1  0
  4 30  4  0
  5 17  1  0
  6  8  1  0
  6 29  1  0
  7 24  4  0
  7 26  4  0
  8 28  1  0
  9 13  2  0
 10 18  1  0
 10 21  4  0
 10 30  4  0
 11 17  2  0
 12 18  1  0
 13 15  1  0
 14 24  1  0
 15 25  1  0
 16 28  2  0
 17 20  1  0
 19 24  4  0
 20 23  1  0
 21 22  4  0
 22 23  4  0
 25 26  4  0
 27 29  2  0
M  END
$$$$

 Created by Python create_sdf_string function

 30 33  0  0  0  0  0  0  0  0999 V2000
    8.3036    9.8571   18.4133 C   0  0  0  0  0  0  0  0  0  0  0  0
    8.3694    7.6612   22.6703 C   0  0  0  0  0  0  0  0  0  0  0  0
    8.4143    6.6863   16.2273 C   0  0  0  0  0  0  0  0  0  0  0  0
   10.7581    6.5674   21.7636 C   0  0  0  0  0  0  0  0  0  0  0  0
    8.4452    8.7960   19.2958 O   0  0  0  0  0  0  0  0  0  0  0  0
    8.7122    6.7842   24.8569 C   0  0  0  0  0  0  0  0  0  0  0  0
   10.3400    6.1726   14.3081 C   0  0  0  0  0  0  0  0  0  0  0  0
    7.4297    7.5873   24.8962 C   0  0  0  0  0  0  0  0  0  0  0  0
    8.1566   10.0536   16.0516 O   0  0  0  0  0  0  0  0  0  0  0  0
   12.4989    6.2074   20.1776 C   0  0  0  0  0  0  0  0  0  0  0  0
    6.9192    9.1053   20.9073 O   0  0  0  0  0  0  0  0  0  0  0  0
   14.3979    6.0729   18.7784 C   0  0  0  0  0  0  0  0  0  0  0  0
    8.6811    9.5354   16.9998 C   0  0  0  0  0  0  0  0  0  0  0  0
    9.2512    4.2713   13.7653 O   0  0  0  0  0  0  0  0  0  0  0  0
    9.6495    8.6317   16.8332 N   0  0  0  0  0  0  0  0  0  0  0  0
    6.2934    8.6988   23.1988 O   0  0  0  0  0  0  0  0  0  0  0  0
    7.9806    8.6543   20.5437 C   0  0  0  0  0  0  0  0  0  0  0  0
   13.7270    5.7144   19.8610 O   0  0  0  0  0  0  0  0  0  0  0  0
    8.3351    5.5235   15.4478 C   0  0  0  0  0  0  0  0  0  0  0  0
    8.7700    7.8434   21.3915 C   0  0  0  0  0  0  0  0  0  0  0  0
   11.7856    6.8851   19.2401 C   0  0  0  0  0  0  0  0  0  0  0  0
   10.5281    7.4276   19.5649 C   0  0  0  0  0  0  0  0  0  0  0  0
   10.0256    7.2907   20.8484 C   0  0  0  0  0  0  0  0  0  0  0  0
    9.3113    5.3049   14.4911 C   0  0  0  0  0  0  0  0  0  0  0  0
    9.4607    7.5646   16.0139 C   0  0  0  0  0  0  0  0  0  0  0  0
   10.4192    7.3157   15.0955 C   0  0  0  0  0  0  0  0  0  0  0  0
   10.2489    6.4227   23.0218 N   0  0  0  0  0  0  0  0  0  0  0  0
    7.2472    8.0746   23.5050 C   0  0  0  0  0  0  0  0  0  0  0  0
    9.2051    6.9101   23.4604 C   0  0  0  0  0  0  0  0  0  0  0  0
   11.9646    6.0299   21.4251 C   0  0  0  0  0  0  0  0  0  0  0  0
  1  5  1  0
  1 13  1  0
  2 20  2  0
  2 28  1  0
  2 29  1  0
  3 19  4  0
  3 25  4  0
  4 23  4  0
  4 27  1  0
  4 30  4  0
  5 17  1  0
  6  8  1  0
  6 29  1  0
  7 24  4  0
  7 26  4  0
  8 28  1  0
  9 13  2  0
 10 18  1  0
 10 21  4  0
 10 30  4  0
 11 17  2  0
 12 18  1  0
 13 15  1  0
 14 24  1  0
 15 25  1  0
 16 28  2  0
 17 20  1  0
 19 24  4  0
 20 23  1  0
 21 22  4  0
 22 23  4  0
 25 26  4  0
 27 29  2  0
M  END
$$$$

 Created by Python create_sdf_string function

 30 33  0  0  0  0  0  0  0  0999 V2000
    8.3036    9.8571   18.4133 C   0  0  0  0  0  0  0  0  0  0  0  0
    8.3694    7.6612   22.6703 C   0  0  0  0  0  0  0  0  0  0  0  0
    8.4143    6.6863   16.2273 C   0  0  0  0  0  0  0  0  0  0  0  0
   10.7581    6.5674   21.7636 C   0  0  0  0  0  0  0  0  0  0  0  0
    8.4452    8.7960   19.2958 O   0  0  0  0  0  0  0  0  0  0  0  0
    8.7122    6.7842   24.8569 C   0  0  0  0  0  0  0  0  0  0  0  0
   10.3400    6.1726   14.3081 C   0  0  0  0  0  0  0  0  0  0  0  0
    7.4297    7.5873   24.8962 C   0  0  0  0  0  0  0  0  0  0  0  0
    8.1566   10.0536   16.0516 O   0  0  0  0  0  0  0  0  0  0  0  0
   12.4989    6.2074   20.1776 C   0  0  0  0  0  0  0  0  0  0  0  0
    6.9192    9.1053   20.9073 O   0  0  0  0  0  0  0  0  0  0  0  0
   14.3979    6.0729   18.7784 C   0  0  0  0  0  0  0  0  0  0  0  0
    8.6811    9.5354   16.9998 C   0  0  0  0  0  0  0  0  0  0  0  0
    9.2512    4.2713   13.7653 O   0  0  0  0  0  0  0  0  0  0  0  0
    9.6495    8.6317   16.8332 N   0  0  0  0  0  0  0  0  0  0  0  0
    6.2934    8.6988   23.1988 O   0  0  0  0  0  0  0  0  0  0  0  0
    7.9806    8.6543   20.5437 C   0  0  0  0  0  0  0  0  0  0  0  0
   13.7270    5.7144   19.8610 O   0  0  0  0  0  0  0  0  0  0  0  0
    8.3351    5.5235   15.4478 C   0  0  0  0  0  0  0  0  0  0  0  0
    8.7700    7.8434   21.3915 C   0  0  0  0  0  0  0  0  0  0  0  0
   11.7856    6.8851   19.2401 C   0  0  0  0  0  0  0  0  0  0  0  0
   10.5281    7.4276   19.5649 C   0  0  0  0  0  0  0  0  0  0  0  0
   10.0256    7.2907   20.8484 C   0  0  0  0  0  0  0  0  0  0  0  0
    9.3113    5.3049   14.4911 C   0  0  0  0  0  0  0  0  0  0  0  0
    9.4607    7.5646   16.0139 C   0  0  0  0  0  0  0  0  0  0  0  0
   10.4192    7.3157   15.0955 C   0  0  0  0  0  0  0  0  0  0  0  0
   10.2489    6.4227   23.0218 N   0  0  0  0  0  0  0  0  0  0  0  0
    7.2472    8.0746   23.5050 C   0  0  0  0  0  0  0  0  0  0  0  0
    9.2051    6.9101   23.4604 C   0  0  0  0  0  0  0  0  0  0  0  0
   11.9646    6.0299   21.4251 C   0  0  0  0  0  0  0  0  0  0  0  0
  1  5  1  0
  1 13  1  0
  2 20  2  0
  2 28  1  0
  2 29  1  0
  3 19  4  0
  3 25  4  0
  4 23  4  0
  4 27  1  0
  4 30  4  0
  5 17  1  0
  6  8  1  0
  6 29  1  0
  7 24  4  0
  7 26  4  0
  8 28  1  0
  9 13  2  0
 10 18  1  0
 10 21  4  0
 10 30  4  0
 11 17  2  0
 12 18  1  0
 13 15  1  0
 14 24  1  0
 15 25  1  0
 16 28  2  0
 17 20  1  0
 19 24  4  0
 20 23  1  0
 21 22  4  0
 22 23  4  0
 25 26  4  0
 27 29  2  0
M  END
$$$$

 Created by Python create_sdf_string function

 30 33  0  0  0  0  0  0  0  0999 V2000
    8.3036    9.8571   18.4133 C   0  0  0  0  0  0  0  0  0  0  0  0
    8.3694    7.6612   22.6703 C   0  0  0  0  0  0  0  0  0  0  0  0
    8.4143    6.6863   16.2273 C   0  0  0  0  0  0  0  0  0  0  0  0
   10.7581    6.5674   21.7636 C   0  0  0  0  0  0  0  0  0  0  0  0
    8.4452    8.7960   19.2958 O   0  0  0  0  0  0  0  0  0  0  0  0
    8.7122    6.7842   24.8569 C   0  0  0  0  0  0  0  0  0  0  0  0
   10.3400    6.1726   14.3081 C   0  0  0  0  0  0  0  0  0  0  0  0
    7.4297    7.5873   24.8962 C   0  0  0  0  0  0  0  0  0  0  0  0
    8.1566   10.0536   16.0516 O   0  0  0  0  0  0  0  0  0  0  0  0
   12.4989    6.2074   20.1776 C   0  0  0  0  0  0  0  0  0  0  0  0
    6.9192    9.1053   20.9073 O   0  0  0  0  0  0  0  0  0  0  0  0
   14.3979    6.0729   18.7784 C   0  0  0  0  0  0  0  0  0  0  0  0
    8.6811    9.5354   16.9998 C   0  0  0  0  0  0  0  0  0  0  0  0
    9.2512    4.2713   13.7653 O   0  0  0  0  0  0  0  0  0  0  0  0
    9.6495    8.6317   16.8332 N   0  0  0  0  0  0  0  0  0  0  0  0
    6.2934    8.6988   23.1988 O   0  0  0  0  0  0  0  0  0  0  0  0
    7.9806    8.6543   20.5437 C   0  0  0  0  0  0  0  0  0  0  0  0
   13.7270    5.7144   19.8610 O   0  0  0  0  0  0  0  0  0  0  0  0
    8.3351    5.5235   15.4478 C   0  0  0  0  0  0  0  0  0  0  0  0
    8.7700    7.8434   21.3915 C   0  0  0  0  0  0  0  0  0  0  0  0
   11.7856    6.8851   19.2401 C   0  0  0  0  0  0  0  0  0  0  0  0
   10.5281    7.4276   19.5649 C   0  0  0  0  0  0  0  0  0  0  0  0
   10.0256    7.2907   20.8484 C   0  0  0  0  0  0  0  0  0  0  0  0
    9.3113    5.3049   14.4911 C   0  0  0  0  0  0  0  0  0  0  0  0
    9.4607    7.5646   16.0139 C   0  0  0  0  0  0  0  0  0  0  0  0
   10.4192    7.3157   15.0955 C   0  0  0  0  0  0  0  0  0  0  0  0
   10.2489    6.4227   23.0218 N   0  0  0  0  0  0  0  0  0  0  0  0
    7.2472    8.0746   23.5050 C   0  0  0  0  0  0  0  0  0  0  0  0
    9.2051    6.9101   23.4604 C   0  0  0  0  0  0  0  0  0  0  0  0
   11.9646    6.0299   21.4251 C   0  0  0  0  0  0  0  0  0  0  0  0
  1  5  1  0
  1 13  1  0
  2 20  2  0
  2 28  1  0
  2 29  1  0
  3 19  4  0
  3 25  4  0
  4 23  4  0
  4 27  1  0
  4 30  4  0
  5 17  1  0
  6  8  1  0
  6 29  1  0
  7 24  4  0
  7 26  4  0
  8 28  1  0
  9 13  2  0
 10 18  1  0
 10 21  4  0
 10 30  4  0
 11 17  2  0
 12 18  1  0
 13 15  1  0
 14 24  1  0
 15 25  1  0
 16 28  2  0
 17 20  1  0
 19 24  4  0
 20 23  1  0
 21 22  4  0
 22 23  4  0
 25 26  4  0
 27 29  2  0
M  END
$$$$

 Created by Python create_sdf_string function

 30 33  0  0  0  0  0  0  0  0999 V2000
    8.3036    9.8571   18.4133 C   0  0  0  0  0  0  0  0  0  0  0  0
    8.3694    7.6612   22.6703 C   0  0  0  0  0  0  0  0  0  0  0  0
    8.4143    6.6863   16.2273 C   0  0  0  0  0  0  0  0  0  0  0  0
   10.7581    6.5674   21.7636 C   0  0  0  0  0  0  0  0  0  0  0  0
    8.4452    8.7960   19.2958 O   0  0  0  0  0  0  0  0  0  0  0  0
    8.7122    6.7842   24.8569 C   0  0  0  0  0  0  0  0  0  0  0  0
   10.3400    6.1726   14.3081 C   0  0  0  0  0  0  0  0  0  0  0  0
    7.4297    7.5873   24.8962 C   0  0  0  0  0  0  0  0  0  0  0  0
    8.1566   10.0536   16.0516 O   0  0  0  0  0  0  0  0  0  0  0  0
   12.4989    6.2074   20.1776 C   0  0  0  0  0  0  0  0  0  0  0  0
    6.9192    9.1053   20.9073 O   0  0  0  0  0  0  0  0  0  0  0  0
   14.3979    6.0729   18.7784 C   0  0  0  0  0  0  0  0  0  0  0  0
    8.6811    9.5354   16.9998 C   0  0  0  0  0  0  0  0  0  0  0  0
    9.2512    4.2713   13.7653 O   0  0  0  0  0  0  0  0  0  0  0  0
    9.6495    8.6317   16.8332 N   0  0  0  0  0  0  0  0  0  0  0  0
    6.2934    8.6988   23.1988 O   0  0  0  0  0  0  0  0  0  0  0  0
    7.9806    8.6543   20.5437 C   0  0  0  0  0  0  0  0  0  0  0  0
   13.7270    5.7144   19.8610 O   0  0  0  0  0  0  0  0  0  0  0  0
    8.3351    5.5235   15.4478 C   0  0  0  0  0  0  0  0  0  0  0  0
    8.7700    7.8434   21.3915 C   0  0  0  0  0  0  0  0  0  0  0  0
   11.7856    6.8851   19.2401 C   0  0  0  0  0  0  0  0  0  0  0  0
   10.5281    7.4276   19.5649 C   0  0  0  0  0  0  0  0  0  0  0  0
   10.0256    7.2907   20.8484 C   0  0  0  0  0  0  0  0  0  0  0  0
    9.3113    5.3049   14.4911 C   0  0  0  0  0  0  0  0  0  0  0  0
    9.4607    7.5646   16.0139 C   0  0  0  0  0  0  0  0  0  0  0  0
   10.4192    7.3157   15.0955 C   0  0  0  0  0  0  0  0  0  0  0  0
   10.2489    6.4227   23.0218 N   0  0  0  0  0  0  0  0  0  0  0  0
    7.2472    8.0746   23.5050 C   0  0  0  0  0  0  0  0  0  0  0  0
    9.2051    6.9101   23.4604 C   0  0  0  0  0  0  0  0  0  0  0  0
   11.9646    6.0299   21.4251 C   0  0  0  0  0  0  0  0  0  0  0  0
  1  5  1  0
  1 13  1  0
  2 20  2  0
  2 28  1  0
  2 29  1  0
  3 19  4  0
  3 25  4  0
  4 23  4  0
  4 27  1  0
  4 30  4  0
  5 17  1  0
  6  8  1  0
  6 29  1  0
  7 24  4  0
  7 26  4  0
  8 28  1  0
  9 13  2  0
 10 18  1  0
 10 21  4  0
 10 30  4  0
 11 17  2  0
 12 18  1  0
 13 15  1  0
 14 24  1  0
 15 25  1  0
 16 28  2  0
 17 20  1  0
 19 24  4  0
 20 23  1  0
 21 22  4  0
 22 23  4  0
 25 26  4  0
 27 29  2  0
M  END
$$$$

 Created by Python create_sdf_string function

 30 33  0  0  0  0  0  0  0  0999 V2000
    8.3036    9.8571   18.4133 C   0  0  0  0  0  0  0  0  0  0  0  0
    8.3694    7.6612   22.6703 C   0  0  0  0  0  0  0  0  0  0  0  0
    8.4143    6.6863   16.2273 C   0  0  0  0  0  0  0  0  0  0  0  0
   10.7581    6.5674   21.7636 C   0  0  0  0  0  0  0  0  0  0  0  0
    8.4452    8.7960   19.2958 O   0  0  0  0  0  0  0  0  0  0  0  0
    8.7122    6.7842   24.8569 C   0  0  0  0  0  0  0  0  0  0  0  0
   10.3400    6.1726   14.3081 C   0  0  0  0  0  0  0  0  0  0  0  0
    7.4297    7.5873   24.8962 C   0  0  0  0  0  0  0  0  0  0  0  0
    8.1566   10.0536   16.0516 O   0  0  0  0  0  0  0  0  0  0  0  0
   12.4989    6.2074   20.1776 C   0  0  0  0  0  0  0  0  0  0  0  0
    6.9192    9.1053   20.9073 O   0  0  0  0  0  0  0  0  0  0  0  0
   14.3979    6.0729   18.7784 C   0  0  0  0  0  0  0  0  0  0  0  0
    8.6811    9.5354   16.9998 C   0  0  0  0  0  0  0  0  0  0  0  0
    9.2512    4.2713   13.7653 O   0  0  0  0  0  0  0  0  0  0  0  0
    9.6495    8.6317   16.8332 N   0  0  0  0  0  0  0  0  0  0  0  0
    6.2934    8.6988   23.1988 O   0  0  0  0  0  0  0  0  0  0  0  0
    7.9806    8.6543   20.5437 C   0  0  0  0  0  0  0  0  0  0  0  0
   13.7270    5.7144   19.8610 O   0  0  0  0  0  0  0  0  0  0  0  0
    8.3351    5.5235   15.4478 C   0  0  0  0  0  0  0  0  0  0  0  0
    8.7700    7.8434   21.3915 C   0  0  0  0  0  0  0  0  0  0  0  0
   11.7856    6.8851   19.2401 C   0  0  0  0  0  0  0  0  0  0  0  0
   10.5281    7.4276   19.5649 C   0  0  0  0  0  0  0  0  0  0  0  0
   10.0256    7.2907   20.8484 C   0  0  0  0  0  0  0  0  0  0  0  0
    9.3113    5.3049   14.4911 C   0  0  0  0  0  0  0  0  0  0  0  0
    9.4607    7.5646   16.0139 C   0  0  0  0  0  0  0  0  0  0  0  0
   10.4192    7.3157   15.0955 C   0  0  0  0  0  0  0  0  0  0  0  0
   10.2489    6.4227   23.0218 N   0  0  0  0  0  0  0  0  0  0  0  0
    7.2472    8.0746   23.5050 C   0  0  0  0  0  0  0  0  0  0  0  0
    9.2051    6.9101   23.4604 C   0  0  0  0  0  0  0  0  0  0  0  0
   11.9646    6.0299   21.4251 C   0  0  0  0  0  0  0  0  0  0  0  0
  1  5  1  0
  1 13  1  0
  2 20  2  0
  2 28  1  0
  2 29  1  0
  3 19  4  0
  3 25  4  0
  4 23  4  0
  4 27  1  0
  4 30  4  0
  5 17  1  0
  6  8  1  0
  6 29  1  0
  7 24  4  0
  7 26  4  0
  8 28  1  0
  9 13  2  0
 10 18  1  0
 10 21  4  0
 10 30  4  0
 11 17  2  0
 12 18  1  0
 13 15  1  0
 14 24  1  0
 15 25  1  0
 16 28  2  0
 17 20  1  0
 19 24  4  0
 20 23  1  0
 21 22  4  0
 22 23  4  0
 25 26  4  0
 27 29  2  0
M  END
$$$$

 Created by Python create_sdf_string function

 30 33  0  0  0  0  0  0  0  0999 V2000
    8.3036    9.8571   18.4133 C   0  0  0  0  0  0  0  0  0  0  0  0
    8.3694    7.6612   22.6703 C   0  0  0  0  0  0  0  0  0  0  0  0
    8.4143    6.6863   16.2273 C   0  0  0  0  0  0  0  0  0  0  0  0
   10.7581    6.5674   21.7636 C   0  0  0  0  0  0  0  0  0  0  0  0
    8.4452    8.7960   19.2958 O   0  0  0  0  0  0  0  0  0  0  0  0
    8.7122    6.7842   24.8569 C   0  0  0  0  0  0  0  0  0  0  0  0
   10.3400    6.1726   14.3081 C   0  0  0  0  0  0  0  0  0  0  0  0
    7.4297    7.5873   24.8962 C   0  0  0  0  0  0  0  0  0  0  0  0
    8.1566   10.0536   16.0516 O   0  0  0  0  0  0  0  0  0  0  0  0
   12.4989    6.2074   20.1776 C   0  0  0  0  0  0  0  0  0  0  0  0
    6.9192    9.1053   20.9073 O   0  0  0  0  0  0  0  0  0  0  0  0
   14.3979    6.0729   18.7784 C   0  0  0  0  0  0  0  0  0  0  0  0
    8.6811    9.5354   16.9998 C   0  0  0  0  0  0  0  0  0  0  0  0
    9.2512    4.2713   13.7653 O   0  0  0  0  0  0  0  0  0  0  0  0
    9.6495    8.6317   16.8332 N   0  0  0  0  0  0  0  0  0  0  0  0
    6.2934    8.6988   23.1988 O   0  0  0  0  0  0  0  0  0  0  0  0
    7.9806    8.6543   20.5437 C   0  0  0  0  0  0  0  0  0  0  0  0
   13.7270    5.7144   19.8610 O   0  0  0  0  0  0  0  0  0  0  0  0
    8.3351    5.5235   15.4478 C   0  0  0  0  0  0  0  0  0  0  0  0
    8.7700    7.8434   21.3915 C   0  0  0  0  0  0  0  0  0  0  0  0
   11.7856    6.8851   19.2401 C   0  0  0  0  0  0  0  0  0  0  0  0
   10.5281    7.4276   19.5649 C   0  0  0  0  0  0  0  0  0  0  0  0
   10.0256    7.2907   20.8484 C   0  0  0  0  0  0  0  0  0  0  0  0
    9.3113    5.3049   14.4911 C   0  0  0  0  0  0  0  0  0  0  0  0
    9.4607    7.5646   16.0139 C   0  0  0  0  0  0  0  0  0  0  0  0
   10.4192    7.3157   15.0955 C   0  0  0  0  0  0  0  0  0  0  0  0
   10.2489    6.4227   23.0218 N   0  0  0  0  0  0  0  0  0  0  0  0
    7.2472    8.0746   23.5050 C   0  0  0  0  0  0  0  0  0  0  0  0
    9.2051    6.9101   23.4604 C   0  0  0  0  0  0  0  0  0  0  0  0
   11.9646    6.0299   21.4251 C   0  0  0  0  0  0  0  0  0  0  0  0
  1  5  1  0
  1 13  1  0
  2 20  2  0
  2 28  1  0
  2 29  1  0
  3 19  4  0
  3 25  4  0
  4 23  4  0
  4 27  1  0
  4 30  4  0
  5 17  1  0
  6  8  1  0
  6 29  1  0
  7 24  4  0
  7 26  4  0
  8 28  1  0
  9 13  2  0
 10 18  1  0
 10 21  4  0
 10 30  4  0
 11 17  2  0
 12 18  1  0
 13 15  1  0
 14 24  1  0
 15 25  1  0
 16 28  2  0
 17 20  1  0
 19 24  4  0
 20 23  1  0
 21 22  4  0
 22 23  4  0
 25 26  4  0
 27 29  2  0
M  END
$$$$

 Created by Python create_sdf_string function

 30 33  0  0  0  0  0  0  0  0999 V2000
    8.3036    9.8571   18.4133 C   0  0  0  0  0  0  0  0  0  0  0  0
    8.3694    7.6612   22.6703 C   0  0  0  0  0  0  0  0  0  0  0  0
    8.4143    6.6863   16.2273 C   0  0  0  0  0  0  0  0  0  0  0  0
   10.7581    6.5674   21.7636 C   0  0  0  0  0  0  0  0  0  0  0  0
    8.4452    8.7960   19.2958 O   0  0  0  0  0  0  0  0  0  0  0  0
    8.7122    6.7842   24.8569 C   0  0  0  0  0  0  0  0  0  0  0  0
   10.3400    6.1726   14.3081 C   0  0  0  0  0  0  0  0  0  0  0  0
    7.4297    7.5873   24.8962 C   0  0  0  0  0  0  0  0  0  0  0  0
    8.1566   10.0536   16.0516 O   0  0  0  0  0  0  0  0  0  0  0  0
   12.4989    6.2074   20.1776 C   0  0  0  0  0  0  0  0  0  0  0  0
    6.9192    9.1053   20.9073 O   0  0  0  0  0  0  0  0  0  0  0  0
   14.3979    6.0729   18.7784 C   0  0  0  0  0  0  0  0  0  0  0  0
    8.6811    9.5354   16.9998 C   0  0  0  0  0  0  0  0  0  0  0  0
    9.2512    4.2713   13.7653 O   0  0  0  0  0  0  0  0  0  0  0  0
    9.6495    8.6317   16.8332 N   0  0  0  0  0  0  0  0  0  0  0  0
    6.2934    8.6988   23.1988 O   0  0  0  0  0  0  0  0  0  0  0  0
    7.9806    8.6543   20.5437 C   0  0  0  0  0  0  0  0  0  0  0  0
   13.7270    5.7144   19.8610 O   0  0  0  0  0  0  0  0  0  0  0  0
    8.3351    5.5235   15.4478 C   0  0  0  0  0  0  0  0  0  0  0  0
    8.7700    7.8434   21.3915 C   0  0  0  0  0  0  0  0  0  0  0  0
   11.7856    6.8851   19.2401 C   0  0  0  0  0  0  0  0  0  0  0  0
   10.5281    7.4276   19.5649 C   0  0  0  0  0  0  0  0  0  0  0  0
   10.0256    7.2907   20.8484 C   0  0  0  0  0  0  0  0  0  0  0  0
    9.3113    5.3049   14.4911 C   0  0  0  0  0  0  0  0  0  0  0  0
    9.4607    7.5646   16.0139 C   0  0  0  0  0  0  0  0  0  0  0  0
   10.4192    7.3157   15.0955 C   0  0  0  0  0  0  0  0  0  0  0  0
   10.2489    6.4227   23.0218 N   0  0  0  0  0  0  0  0  0  0  0  0
    7.2472    8.0746   23.5050 C   0  0  0  0  0  0  0  0  0  0  0  0
    9.2051    6.9101   23.4604 C   0  0  0  0  0  0  0  0  0  0  0  0
   11.9646    6.0299   21.4251 C   0  0  0  0  0  0  0  0  0  0  0  0
  1  5  1  0
  1 13  1  0
  2 20  2  0
  2 28  1  0
  2 29  1  0
  3 19  4  0
  3 25  4  0
  4 23  4  0
  4 27  1  0
  4 30  4  0
  5 17  1  0
  6  8  1  0
  6 29  1  0
  7 24  4  0
  7 26  4  0
  8 28  1  0
  9 13  2  0
 10 18  1  0
 10 21  4  0
 10 30  4  0
 11 17  2  0
 12 18  1  0
 13 15  1  0
 14 24  1  0
 15 25  1  0
 16 28  2  0
 17 20  1  0
 19 24  4  0
 20 23  1  0
 21 22  4  0
 22 23  4  0
 25 26  4  0
 27 29  2  0
M  END
$$$$

 Created by Python create_sdf_string function

 30 33  0  0  0  0  0  0  0  0999 V2000
    8.3036    9.8571   18.4133 C   0  0  0  0  0  0  0  0  0  0  0  0
    8.3694    7.6612   22.6703 C   0  0  0  0  0  0  0  0  0  0  0  0
    8.4143    6.6863   16.2273 C   0  0  0  0  0  0  0  0  0  0  0  0
   10.7581    6.5674   21.7636 C   0  0  0  0  0  0  0  0  0  0  0  0
    8.4452    8.7960   19.2958 O   0  0  0  0  0  0  0  0  0  0  0  0
    8.7122    6.7842   24.8569 C   0  0  0  0  0  0  0  0  0  0  0  0
   10.3400    6.1726   14.3081 C   0  0  0  0  0  0  0  0  0  0  0  0
    7.4297    7.5873   24.8962 C   0  0  0  0  0  0  0  0  0  0  0  0
    8.1566   10.0536   16.0516 O   0  0  0  0  0  0  0  0  0  0  0  0
   12.4989    6.2074   20.1776 C   0  0  0  0  0  0  0  0  0  0  0  0
    6.9192    9.1053   20.9073 O   0  0  0  0  0  0  0  0  0  0  0  0
   14.3979    6.0729   18.7784 C   0  0  0  0  0  0  0  0  0  0  0  0
    8.6811    9.5354   16.9998 C   0  0  0  0  0  0  0  0  0  0  0  0
    9.2512    4.2713   13.7653 O   0  0  0  0  0  0  0  0  0  0  0  0
    9.6495    8.6317   16.8332 N   0  0  0  0  0  0  0  0  0  0  0  0
    6.2934    8.6988   23.1988 O   0  0  0  0  0  0  0  0  0  0  0  0
    7.9806    8.6543   20.5437 C   0  0  0  0  0  0  0  0  0  0  0  0
   13.7270    5.7144   19.8610 O   0  0  0  0  0  0  0  0  0  0  0  0
    8.3351    5.5235   15.4478 C   0  0  0  0  0  0  0  0  0  0  0  0
    8.7700    7.8434   21.3915 C   0  0  0  0  0  0  0  0  0  0  0  0
   11.7856    6.8851   19.2401 C   0  0  0  0  0  0  0  0  0  0  0  0
   10.5281    7.4276   19.5649 C   0  0  0  0  0  0  0  0  0  0  0  0
   10.0256    7.2907   20.8484 C   0  0  0  0  0  0  0  0  0  0  0  0
    9.3113    5.3049   14.4911 C   0  0  0  0  0  0  0  0  0  0  0  0
    9.4607    7.5646   16.0139 C   0  0  0  0  0  0  0  0  0  0  0  0
   10.4192    7.3157   15.0955 C   0  0  0  0  0  0  0  0  0  0  0  0
   10.2489    6.4227   23.0218 N   0  0  0  0  0  0  0  0  0  0  0  0
    7.2472    8.0746   23.5050 C   0  0  0  0  0  0  0  0  0  0  0  0
    9.2051    6.9101   23.4604 C   0  0  0  0  0  0  0  0  0  0  0  0
   11.9646    6.0299   21.4251 C   0  0  0  0  0  0  0  0  0  0  0  0
  1  5  1  0
  1 13  1  0
  2 20  2  0
  2 28  1  0
  2 29  1  0
  3 19  4  0
  3 25  4  0
  4 23  4  0
  4 27  1  0
  4 30  4  0
  5 17  1  0
  6  8  1  0
  6 29  1  0
  7 24  4  0
  7 26  4  0
  8 28  1  0
  9 13  2  0
 10 18  1  0
 10 21  4  0
 10 30  4  0
 11 17  2  0
 12 18  1  0
 13 15  1  0
 14 24  1  0
 15 25  1  0
 16 28  2  0
 17 20  1  0
 19 24  4  0
 20 23  1  0
 21 22  4  0
 22 23  4  0
 25 26  4  0
 27 29  2  0
M  END
$$$$

 Created by Python create_sdf_string function

 30 33  0  0  0  0  0  0  0  0999 V2000
    8.3036    9.8571   18.4133 C   0  0  0  0  0  0  0  0  0  0  0  0
    8.3694    7.6612   22.6703 C   0  0  0  0  0  0  0  0  0  0  0  0
    8.4143    6.6863   16.2273 C   0  0  0  0  0  0  0  0  0  0  0  0
   10.7581    6.5674   21.7636 C   0  0  0  0  0  0  0  0  0  0  0  0
    8.4452    8.7960   19.2958 O   0  0  0  0  0  0  0  0  0  0  0  0
    8.7122    6.7842   24.8569 C   0  0  0  0  0  0  0  0  0  0  0  0
   10.3400    6.1726   14.3081 C   0  0  0  0  0  0  0  0  0  0  0  0
    7.4297    7.5873   24.8962 C   0  0  0  0  0  0  0  0  0  0  0  0
    8.1566   10.0536   16.0516 O   0  0  0  0  0  0  0  0  0  0  0  0
   12.4989    6.2074   20.1776 C   0  0  0  0  0  0  0  0  0  0  0  0
    6.9192    9.1053   20.9073 O   0  0  0  0  0  0  0  0  0  0  0  0
   14.3979    6.0729   18.7784 C   0  0  0  0  0  0  0  0  0  0  0  0
    8.6811    9.5354   16.9998 C   0  0  0  0  0  0  0  0  0  0  0  0
    9.2512    4.2713   13.7653 O   0  0  0  0  0  0  0  0  0  0  0  0
    9.6495    8.6317   16.8332 N   0  0  0  0  0  0  0  0  0  0  0  0
    6.2934    8.6988   23.1988 O   0  0  0  0  0  0  0  0  0  0  0  0
    7.9806    8.6543   20.5437 C   0  0  0  0  0  0  0  0  0  0  0  0
   13.7270    5.7144   19.8610 O   0  0  0  0  0  0  0  0  0  0  0  0
    8.3351    5.5235   15.4478 C   0  0  0  0  0  0  0  0  0  0  0  0
    8.7700    7.8434   21.3915 C   0  0  0  0  0  0  0  0  0  0  0  0
   11.7856    6.8851   19.2401 C   0  0  0  0  0  0  0  0  0  0  0  0
   10.5281    7.4276   19.5649 C   0  0  0  0  0  0  0  0  0  0  0  0
   10.0256    7.2907   20.8484 C   0  0  0  0  0  0  0  0  0  0  0  0
    9.3113    5.3049   14.4911 C   0  0  0  0  0  0  0  0  0  0  0  0
    9.4607    7.5646   16.0139 C   0  0  0  0  0  0  0  0  0  0  0  0
   10.4192    7.3157   15.0955 C   0  0  0  0  0  0  0  0  0  0  0  0
   10.2489    6.4227   23.0218 N   0  0  0  0  0  0  0  0  0  0  0  0
    7.2472    8.0746   23.5050 C   0  0  0  0  0  0  0  0  0  0  0  0
    9.2051    6.9101   23.4604 C   0  0  0  0  0  0  0  0  0  0  0  0
   11.9646    6.0299   21.4251 C   0  0  0  0  0  0  0  0  0  0  0  0
  1  5  1  0
  1 13  1  0
  2 20  2  0
  2 28  1  0
  2 29  1  0
  3 19  4  0
  3 25  4  0
  4 23  4  0
  4 27  1  0
  4 30  4  0
  5 17  1  0
  6  8  1  0
  6 29  1  0
  7 24  4  0
  7 26  4  0
  8 28  1  0
  9 13  2  0
 10 18  1  0
 10 21  4  0
 10 30  4  0
 11 17  2  0
 12 18  1  0
 13 15  1  0
 14 24  1  0
 15 25  1  0
 16 28  2  0
 17 20  1  0
 19 24  4  0
 20 23  1  0
 21 22  4  0
 22 23  4  0
 25 26  4  0
 27 29  2  0
M  END
$$$$

 Created by Python create_sdf_string function

 30 33  0  0  0  0  0  0  0  0999 V2000
    8.3036    9.8571   18.4133 C   0  0  0  0  0  0  0  0  0  0  0  0
    8.3694    7.6612   22.6703 C   0  0  0  0  0  0  0  0  0  0  0  0
    8.4143    6.6863   16.2273 C   0  0  0  0  0  0  0  0  0  0  0  0
   10.7581    6.5674   21.7636 C   0  0  0  0  0  0  0  0  0  0  0  0
    8.4452    8.7960   19.2958 O   0  0  0  0  0  0  0  0  0  0  0  0
    8.7122    6.7842   24.8569 C   0  0  0  0  0  0  0  0  0  0  0  0
   10.3400    6.1726   14.3081 C   0  0  0  0  0  0  0  0  0  0  0  0
    7.4297    7.5873   24.8962 C   0  0  0  0  0  0  0  0  0  0  0  0
    8.1566   10.0536   16.0516 O   0  0  0  0  0  0  0  0  0  0  0  0
   12.4989    6.2074   20.1776 C   0  0  0  0  0  0  0  0  0  0  0  0
    6.9192    9.1053   20.9073 O   0  0  0  0  0  0  0  0  0  0  0  0
   14.3979    6.0729   18.7784 C   0  0  0  0  0  0  0  0  0  0  0  0
    8.6811    9.5354   16.9998 C   0  0  0  0  0  0  0  0  0  0  0  0
    9.2512    4.2713   13.7653 O   0  0  0  0  0  0  0  0  0  0  0  0
    9.6495    8.6317   16.8332 N   0  0  0  0  0  0  0  0  0  0  0  0
    6.2934    8.6988   23.1988 O   0  0  0  0  0  0  0  0  0  0  0  0
    7.9806    8.6543   20.5437 C   0  0  0  0  0  0  0  0  0  0  0  0
   13.7270    5.7144   19.8610 O   0  0  0  0  0  0  0  0  0  0  0  0
    8.3351    5.5235   15.4478 C   0  0  0  0  0  0  0  0  0  0  0  0
    8.7700    7.8434   21.3915 C   0  0  0  0  0  0  0  0  0  0  0  0
   11.7856    6.8851   19.2401 C   0  0  0  0  0  0  0  0  0  0  0  0
   10.5281    7.4276   19.5649 C   0  0  0  0  0  0  0  0  0  0  0  0
   10.0256    7.2907   20.8484 C   0  0  0  0  0  0  0  0  0  0  0  0
    9.3113    5.3049   14.4911 C   0  0  0  0  0  0  0  0  0  0  0  0
    9.4607    7.5646   16.0139 C   0  0  0  0  0  0  0  0  0  0  0  0
   10.4192    7.3157   15.0955 C   0  0  0  0  0  0  0  0  0  0  0  0
   10.2489    6.4227   23.0218 N   0  0  0  0  0  0  0  0  0  0  0  0
    7.2472    8.0746   23.5050 C   0  0  0  0  0  0  0  0  0  0  0  0
    9.2051    6.9101   23.4604 C   0  0  0  0  0  0  0  0  0  0  0  0
   11.9646    6.0299   21.4251 C   0  0  0  0  0  0  0  0  0  0  0  0
  1  5  1  0
  1 13  1  0
  2 20  2  0
  2 28  1  0
  2 29  1  0
  3 19  4  0
  3 25  4  0
  4 23  4  0
  4 27  1  0
  4 30  4  0
  5 17  1  0
  6  8  1  0
  6 29  1  0
  7 24  4  0
  7 26  4  0
  8 28  1  0
  9 13  2  0
 10 18  1  0
 10 21  4  0
 10 30  4  0
 11 17  2  0
 12 18  1  0
 13 15  1  0
 14 24  1  0
 15 25  1  0
 16 28  2  0
 17 20  1  0
 19 24  4  0
 20 23  1  0
 21 22  4  0
 22 23  4  0
 25 26  4  0
 27 29  2  0
M  END
$$$$

 Created by Python create_sdf_string function

 30 33  0  0  0  0  0  0  0  0999 V2000
    8.3036    9.8571   18.4133 C   0  0  0  0  0  0  0  0  0  0  0  0
    8.3694    7.6612   22.6703 C   0  0  0  0  0  0  0  0  0  0  0  0
    8.4143    6.6863   16.2273 C   0  0  0  0  0  0  0  0  0  0  0  0
   10.7581    6.5674   21.7636 C   0  0  0  0  0  0  0  0  0  0  0  0
    8.4452    8.7960   19.2958 O   0  0  0  0  0  0  0  0  0  0  0  0
    8.7122    6.7842   24.8569 C   0  0  0  0  0  0  0  0  0  0  0  0
   10.3400    6.1726   14.3081 C   0  0  0  0  0  0  0  0  0  0  0  0
    7.4297    7.5873   24.8962 C   0  0  0  0  0  0  0  0  0  0  0  0
    8.1566   10.0536   16.0516 O   0  0  0  0  0  0  0  0  0  0  0  0
   12.4989    6.2074   20.1776 C   0  0  0  0  0  0  0  0  0  0  0  0
    6.9192    9.1053   20.9073 O   0  0  0  0  0  0  0  0  0  0  0  0
   14.3979    6.0729   18.7784 C   0  0  0  0  0  0  0  0  0  0  0  0
    8.6811    9.5354   16.9998 C   0  0  0  0  0  0  0  0  0  0  0  0
    9.2512    4.2713   13.7653 O   0  0  0  0  0  0  0  0  0  0  0  0
    9.6495    8.6317   16.8332 N   0  0  0  0  0  0  0  0  0  0  0  0
    6.2934    8.6988   23.1988 O   0  0  0  0  0  0  0  0  0  0  0  0
    7.9806    8.6543   20.5437 C   0  0  0  0  0  0  0  0  0  0  0  0
   13.7270    5.7144   19.8610 O   0  0  0  0  0  0  0  0  0  0  0  0
    8.3351    5.5235   15.4478 C   0  0  0  0  0  0  0  0  0  0  0  0
    8.7700    7.8434   21.3915 C   0  0  0  0  0  0  0  0  0  0  0  0
   11.7856    6.8851   19.2401 C   0  0  0  0  0  0  0  0  0  0  0  0
   10.5281    7.4276   19.5649 C   0  0  0  0  0  0  0  0  0  0  0  0
   10.0256    7.2907   20.8484 C   0  0  0  0  0  0  0  0  0  0  0  0
    9.3113    5.3049   14.4911 C   0  0  0  0  0  0  0  0  0  0  0  0
    9.4607    7.5646   16.0139 C   0  0  0  0  0  0  0  0  0  0  0  0
   10.4192    7.3157   15.0955 C   0  0  0  0  0  0  0  0  0  0  0  0
   10.2489    6.4227   23.0218 N   0  0  0  0  0  0  0  0  0  0  0  0
    7.2472    8.0746   23.5050 C   0  0  0  0  0  0  0  0  0  0  0  0
    9.2051    6.9101   23.4604 C   0  0  0  0  0  0  0  0  0  0  0  0
   11.9646    6.0299   21.4251 C   0  0  0  0  0  0  0  0  0  0  0  0
  1  5  1  0
  1 13  1  0
  2 20  2  0
  2 28  1  0
  2 29  1  0
  3 19  4  0
  3 25  4  0
  4 23  4  0
  4 27  1  0
  4 30  4  0
  5 17  1  0
  6  8  1  0
  6 29  1  0
  7 24  4  0
  7 26  4  0
  8 28  1  0
  9 13  2  0
 10 18  1  0
 10 21  4  0
 10 30  4  0
 11 17  2  0
 12 18  1  0
 13 15  1  0
 14 24  1  0
 15 25  1  0
 16 28  2  0
 17 20  1  0
 19 24  4  0
 20 23  1  0
 21 22  4  0
 22 23  4  0
 25 26  4  0
 27 29  2  0
M  END
$$$$

 Created by Python create_sdf_string function

 30 33  0  0  0  0  0  0  0  0999 V2000
    8.3036    9.8571   18.4133 C   0  0  0  0  0  0  0  0  0  0  0  0
    8.3694    7.6612   22.6703 C   0  0  0  0  0  0  0  0  0  0  0  0
    8.4143    6.6863   16.2273 C   0  0  0  0  0  0  0  0  0  0  0  0
   10.7581    6.5674   21.7636 C   0  0  0  0  0  0  0  0  0  0  0  0
    8.4452    8.7960   19.2958 O   0  0  0  0  0  0  0  0  0  0  0  0
    8.7122    6.7842   24.8569 C   0  0  0  0  0  0  0  0  0  0  0  0
   10.3400    6.1726   14.3081 C   0  0  0  0  0  0  0  0  0  0  0  0
    7.4297    7.5873   24.8962 C   0  0  0  0  0  0  0  0  0  0  0  0
    8.1566   10.0536   16.0516 O   0  0  0  0  0  0  0  0  0  0  0  0
   12.4989    6.2074   20.1776 C   0  0  0  0  0  0  0  0  0  0  0  0
    6.9192    9.1053   20.9073 O   0  0  0  0  0  0  0  0  0  0  0  0
   14.3979    6.0729   18.7784 C   0  0  0  0  0  0  0  0  0  0  0  0
    8.6811    9.5354   16.9998 C   0  0  0  0  0  0  0  0  0  0  0  0
    9.2512    4.2713   13.7653 O   0  0  0  0  0  0  0  0  0  0  0  0
    9.6495    8.6317   16.8332 N   0  0  0  0  0  0  0  0  0  0  0  0
    6.2934    8.6988   23.1988 O   0  0  0  0  0  0  0  0  0  0  0  0
    7.9806    8.6543   20.5437 C   0  0  0  0  0  0  0  0  0  0  0  0
   13.7270    5.7144   19.8610 O   0  0  0  0  0  0  0  0  0  0  0  0
    8.3351    5.5235   15.4478 C   0  0  0  0  0  0  0  0  0  0  0  0
    8.7700    7.8434   21.3915 C   0  0  0  0  0  0  0  0  0  0  0  0
   11.7856    6.8851   19.2401 C   0  0  0  0  0  0  0  0  0  0  0  0
   10.5281    7.4276   19.5649 C   0  0  0  0  0  0  0  0  0  0  0  0
   10.0256    7.2907   20.8484 C   0  0  0  0  0  0  0  0  0  0  0  0
    9.3113    5.3049   14.4911 C   0  0  0  0  0  0  0  0  0  0  0  0
    9.4607    7.5646   16.0139 C   0  0  0  0  0  0  0  0  0  0  0  0
   10.4192    7.3157   15.0955 C   0  0  0  0  0  0  0  0  0  0  0  0
   10.2489    6.4227   23.0218 N   0  0  0  0  0  0  0  0  0  0  0  0
    7.2472    8.0746   23.5050 C   0  0  0  0  0  0  0  0  0  0  0  0
    9.2051    6.9101   23.4604 C   0  0  0  0  0  0  0  0  0  0  0  0
   11.9646    6.0299   21.4251 C   0  0  0  0  0  0  0  0  0  0  0  0
  1  5  1  0
  1 13  1  0
  2 20  2  0
  2 28  1  0
  2 29  1  0
  3 19  4  0
  3 25  4  0
  4 23  4  0
  4 27  1  0
  4 30  4  0
  5 17  1  0
  6  8  1  0
  6 29  1  0
  7 24  4  0
  7 26  4  0
  8 28  1  0
  9 13  2  0
 10 18  1  0
 10 21  4  0
 10 30  4  0
 11 17  2  0
 12 18  1  0
 13 15  1  0
 14 24  1  0
 15 25  1  0
 16 28  2  0
 17 20  1  0
 19 24  4  0
 20 23  1  0
 21 22  4  0
 22 23  4  0
 25 26  4  0
 27 29  2  0
M  END
$$$$

 Created by Python create_sdf_string function

 30 33  0  0  0  0  0  0  0  0999 V2000
    8.3036    9.8571   18.4133 C   0  0  0  0  0  0  0  0  0  0  0  0
    8.3694    7.6612   22.6703 C   0  0  0  0  0  0  0  0  0  0  0  0
    8.4143    6.6863   16.2273 C   0  0  0  0  0  0  0  0  0  0  0  0
   10.7581    6.5674   21.7636 C   0  0  0  0  0  0  0  0  0  0  0  0
    8.4452    8.7960   19.2958 O   0  0  0  0  0  0  0  0  0  0  0  0
    8.7122    6.7842   24.8569 C   0  0  0  0  0  0  0  0  0  0  0  0
   10.3400    6.1726   14.3081 C   0  0  0  0  0  0  0  0  0  0  0  0
    7.4297    7.5873   24.8962 C   0  0  0  0  0  0  0  0  0  0  0  0
    8.1566   10.0536   16.0516 O   0  0  0  0  0  0  0  0  0  0  0  0
   12.4989    6.2074   20.1776 C   0  0  0  0  0  0  0  0  0  0  0  0
    6.9192    9.1053   20.9073 O   0  0  0  0  0  0  0  0  0  0  0  0
   14.3979    6.0729   18.7784 C   0  0  0  0  0  0  0  0  0  0  0  0
    8.6811    9.5354   16.9998 C   0  0  0  0  0  0  0  0  0  0  0  0
    9.2512    4.2713   13.7653 O   0  0  0  0  0  0  0  0  0  0  0  0
    9.6495    8.6317   16.8332 N   0  0  0  0  0  0  0  0  0  0  0  0
    6.2934    8.6988   23.1988 O   0  0  0  0  0  0  0  0  0  0  0  0
    7.9806    8.6543   20.5437 C   0  0  0  0  0  0  0  0  0  0  0  0
   13.7270    5.7144   19.8610 O   0  0  0  0  0  0  0  0  0  0  0  0
    8.3351    5.5235   15.4478 C   0  0  0  0  0  0  0  0  0  0  0  0
    8.7700    7.8434   21.3915 C   0  0  0  0  0  0  0  0  0  0  0  0
   11.7856    6.8851   19.2401 C   0  0  0  0  0  0  0  0  0  0  0  0
   10.5281    7.4276   19.5649 C   0  0  0  0  0  0  0  0  0  0  0  0
   10.0256    7.2907   20.8484 C   0  0  0  0  0  0  0  0  0  0  0  0
    9.3113    5.3049   14.4911 C   0  0  0  0  0  0  0  0  0  0  0  0
    9.4607    7.5646   16.0139 C   0  0  0  0  0  0  0  0  0  0  0  0
   10.4192    7.3157   15.0955 C   0  0  0  0  0  0  0  0  0  0  0  0
   10.2489    6.4227   23.0218 N   0  0  0  0  0  0  0  0  0  0  0  0
    7.2472    8.0746   23.5050 C   0  0  0  0  0  0  0  0  0  0  0  0
    9.2051    6.9101   23.4604 C   0  0  0  0  0  0  0  0  0  0  0  0
   11.9646    6.0299   21.4251 C   0  0  0  0  0  0  0  0  0  0  0  0
  1  5  1  0
  1 13  1  0
  2 20  2  0
  2 28  1  0
  2 29  1  0
  3 19  4  0
  3 25  4  0
  4 23  4  0
  4 27  1  0
  4 30  4  0
  5 17  1  0
  6  8  1  0
  6 29  1  0
  7 24  4  0
  7 26  4  0
  8 28  1  0
  9 13  2  0
 10 18  1  0
 10 21  4  0
 10 30  4  0
 11 17  2  0
 12 18  1  0
 13 15  1  0
 14 24  1  0
 15 25  1  0
 16 28  2  0
 17 20  1  0
 19 24  4  0
 20 23  1  0
 21 22  4  0
 22 23  4  0
 25 26  4  0
 27 29  2  0
M  END
$$$$

 Created by Python create_sdf_string function

 30 33  0  0  0  0  0  0  0  0999 V2000
    8.3036    9.8571   18.4133 C   0  0  0  0  0  0  0  0  0  0  0  0
    8.3694    7.6612   22.6703 C   0  0  0  0  0  0  0  0  0  0  0  0
    8.4143    6.6863   16.2273 C   0  0  0  0  0  0  0  0  0  0  0  0
   10.7581    6.5674   21.7636 C   0  0  0  0  0  0  0  0  0  0  0  0
    8.4452    8.7960   19.2958 O   0  0  0  0  0  0  0  0  0  0  0  0
    8.7122    6.7842   24.8569 C   0  0  0  0  0  0  0  0  0  0  0  0
   10.3400    6.1726   14.3081 C   0  0  0  0  0  0  0  0  0  0  0  0
    7.4297    7.5873   24.8962 C   0  0  0  0  0  0  0  0  0  0  0  0
    8.1566   10.0536   16.0516 O   0  0  0  0  0  0  0  0  0  0  0  0
   12.4989    6.2074   20.1776 C   0  0  0  0  0  0  0  0  0  0  0  0
    6.9192    9.1053   20.9073 O   0  0  0  0  0  0  0  0  0  0  0  0
   14.3979    6.0729   18.7784 C   0  0  0  0  0  0  0  0  0  0  0  0
    8.6811    9.5354   16.9998 C   0  0  0  0  0  0  0  0  0  0  0  0
    9.2512    4.2713   13.7653 O   0  0  0  0  0  0  0  0  0  0  0  0
    9.6495    8.6317   16.8332 N   0  0  0  0  0  0  0  0  0  0  0  0
    6.2934    8.6988   23.1988 O   0  0  0  0  0  0  0  0  0  0  0  0
    7.9806    8.6543   20.5437 C   0  0  0  0  0  0  0  0  0  0  0  0
   13.7270    5.7144   19.8610 O   0  0  0  0  0  0  0  0  0  0  0  0
    8.3351    5.5235   15.4478 C   0  0  0  0  0  0  0  0  0  0  0  0
    8.7700    7.8434   21.3915 C   0  0  0  0  0  0  0  0  0  0  0  0
   11.7856    6.8851   19.2401 C   0  0  0  0  0  0  0  0  0  0  0  0
   10.5281    7.4276   19.5649 C   0  0  0  0  0  0  0  0  0  0  0  0
   10.0256    7.2907   20.8484 C   0  0  0  0  0  0  0  0  0  0  0  0
    9.3113    5.3049   14.4911 C   0  0  0  0  0  0  0  0  0  0  0  0
    9.4607    7.5646   16.0139 C   0  0  0  0  0  0  0  0  0  0  0  0
   10.4192    7.3157   15.0955 C   0  0  0  0  0  0  0  0  0  0  0  0
   10.2489    6.4227   23.0218 N   0  0  0  0  0  0  0  0  0  0  0  0
    7.2472    8.0746   23.5050 C   0  0  0  0  0  0  0  0  0  0  0  0
    9.2051    6.9101   23.4604 C   0  0  0  0  0  0  0  0  0  0  0  0
   11.9646    6.0299   21.4251 C   0  0  0  0  0  0  0  0  0  0  0  0
  1  5  1  0
  1 13  1  0
  2 20  2  0
  2 28  1  0
  2 29  1  0
  3 19  4  0
  3 25  4  0
  4 23  4  0
  4 27  1  0
  4 30  4  0
  5 17  1  0
  6  8  1  0
  6 29  1  0
  7 24  4  0
  7 26  4  0
  8 28  1  0
  9 13  2  0
 10 18  1  0
 10 21  4  0
 10 30  4  0
 11 17  2  0
 12 18  1  0
 13 15  1  0
 14 24  1  0
 15 25  1  0
 16 28  2  0
 17 20  1  0
 19 24  4  0
 20 23  1  0
 21 22  4  0
 22 23  4  0
 25 26  4  0
 27 29  2  0
M  END
$$$$

 Created by Python create_sdf_string function

 30 33  0  0  0  0  0  0  0  0999 V2000
    8.3036    9.8571   18.4133 C   0  0  0  0  0  0  0  0  0  0  0  0
    8.3694    7.6612   22.6703 C   0  0  0  0  0  0  0  0  0  0  0  0
    8.4143    6.6863   16.2273 C   0  0  0  0  0  0  0  0  0  0  0  0
   10.7581    6.5674   21.7636 C   0  0  0  0  0  0  0  0  0  0  0  0
    8.4452    8.7960   19.2958 O   0  0  0  0  0  0  0  0  0  0  0  0
    8.7122    6.7842   24.8569 C   0  0  0  0  0  0  0  0  0  0  0  0
   10.3400    6.1726   14.3081 C   0  0  0  0  0  0  0  0  0  0  0  0
    7.4297    7.5873   24.8962 C   0  0  0  0  0  0  0  0  0  0  0  0
    8.1566   10.0536   16.0516 O   0  0  0  0  0  0  0  0  0  0  0  0
   12.4989    6.2074   20.1776 C   0  0  0  0  0  0  0  0  0  0  0  0
    6.9192    9.1053   20.9073 O   0  0  0  0  0  0  0  0  0  0  0  0
   14.3979    6.0729   18.7784 C   0  0  0  0  0  0  0  0  0  0  0  0
    8.6811    9.5354   16.9998 C   0  0  0  0  0  0  0  0  0  0  0  0
    9.2512    4.2713   13.7653 O   0  0  0  0  0  0  0  0  0  0  0  0
    9.6495    8.6317   16.8332 N   0  0  0  0  0  0  0  0  0  0  0  0
    6.2934    8.6988   23.1988 O   0  0  0  0  0  0  0  0  0  0  0  0
    7.9806    8.6543   20.5437 C   0  0  0  0  0  0  0  0  0  0  0  0
   13.7270    5.7144   19.8610 O   0  0  0  0  0  0  0  0  0  0  0  0
    8.3351    5.5235   15.4478 C   0  0  0  0  0  0  0  0  0  0  0  0
    8.7700    7.8434   21.3915 C   0  0  0  0  0  0  0  0  0  0  0  0
   11.7856    6.8851   19.2401 C   0  0  0  0  0  0  0  0  0  0  0  0
   10.5281    7.4276   19.5649 C   0  0  0  0  0  0  0  0  0  0  0  0
   10.0256    7.2907   20.8484 C   0  0  0  0  0  0  0  0  0  0  0  0
    9.3113    5.3049   14.4911 C   0  0  0  0  0  0  0  0  0  0  0  0
    9.4607    7.5646   16.0139 C   0  0  0  0  0  0  0  0  0  0  0  0
   10.4192    7.3157   15.0955 C   0  0  0  0  0  0  0  0  0  0  0  0
   10.2489    6.4227   23.0218 N   0  0  0  0  0  0  0  0  0  0  0  0
    7.2472    8.0746   23.5050 C   0  0  0  0  0  0  0  0  0  0  0  0
    9.2051    6.9101   23.4604 C   0  0  0  0  0  0  0  0  0  0  0  0
   11.9646    6.0299   21.4251 C   0  0  0  0  0  0  0  0  0  0  0  0
  1  5  1  0
  1 13  1  0
  2 20  2  0
  2 28  1  0
  2 29  1  0
  3 19  4  0
  3 25  4  0
  4 23  4  0
  4 27  1  0
  4 30  4  0
  5 17  1  0
  6  8  1  0
  6 29  1  0
  7 24  4  0
  7 26  4  0
  8 28  1  0
  9 13  2  0
 10 18  1  0
 10 21  4  0
 10 30  4  0
 11 17  2  0
 12 18  1  0
 13 15  1  0
 14 24  1  0
 15 25  1  0
 16 28  2  0
 17 20  1  0
 19 24  4  0
 20 23  1  0
 21 22  4  0
 22 23  4  0
 25 26  4  0
 27 29  2  0
M  END
$$$$

 Created by Python create_sdf_string function

 30 33  0  0  0  0  0  0  0  0999 V2000
    8.3036    9.8571   18.4133 C   0  0  0  0  0  0  0  0  0  0  0  0
    8.3694    7.6612   22.6703 C   0  0  0  0  0  0  0  0  0  0  0  0
    8.4143    6.6863   16.2273 C   0  0  0  0  0  0  0  0  0  0  0  0
   10.7581    6.5674   21.7636 C   0  0  0  0  0  0  0  0  0  0  0  0
    8.4452    8.7960   19.2958 O   0  0  0  0  0  0  0  0  0  0  0  0
    8.7122    6.7842   24.8569 C   0  0  0  0  0  0  0  0  0  0  0  0
   10.3400    6.1726   14.3081 C   0  0  0  0  0  0  0  0  0  0  0  0
    7.4297    7.5873   24.8962 C   0  0  0  0  0  0  0  0  0  0  0  0
    8.1566   10.0536   16.0516 O   0  0  0  0  0  0  0  0  0  0  0  0
   12.4989    6.2074   20.1776 C   0  0  0  0  0  0  0  0  0  0  0  0
    6.9192    9.1053   20.9073 O   0  0  0  0  0  0  0  0  0  0  0  0
   14.3979    6.0729   18.7784 C   0  0  0  0  0  0  0  0  0  0  0  0
    8.6811    9.5354   16.9998 C   0  0  0  0  0  0  0  0  0  0  0  0
    9.2512    4.2713   13.7653 O   0  0  0  0  0  0  0  0  0  0  0  0
    9.6495    8.6317   16.8332 N   0  0  0  0  0  0  0  0  0  0  0  0
    6.2934    8.6988   23.1988 O   0  0  0  0  0  0  0  0  0  0  0  0
    7.9806    8.6543   20.5437 C   0  0  0  0  0  0  0  0  0  0  0  0
   13.7270    5.7144   19.8610 O   0  0  0  0  0  0  0  0  0  0  0  0
    8.3351    5.5235   15.4478 C   0  0  0  0  0  0  0  0  0  0  0  0
    8.7700    7.8434   21.3915 C   0  0  0  0  0  0  0  0  0  0  0  0
   11.7856    6.8851   19.2401 C   0  0  0  0  0  0  0  0  0  0  0  0
   10.5281    7.4276   19.5649 C   0  0  0  0  0  0  0  0  0  0  0  0
   10.0256    7.2907   20.8484 C   0  0  0  0  0  0  0  0  0  0  0  0
    9.3113    5.3049   14.4911 C   0  0  0  0  0  0  0  0  0  0  0  0
    9.4607    7.5646   16.0139 C   0  0  0  0  0  0  0  0  0  0  0  0
   10.4192    7.3157   15.0955 C   0  0  0  0  0  0  0  0  0  0  0  0
   10.2489    6.4227   23.0218 N   0  0  0  0  0  0  0  0  0  0  0  0
    7.2472    8.0746   23.5050 C   0  0  0  0  0  0  0  0  0  0  0  0
    9.2051    6.9101   23.4604 C   0  0  0  0  0  0  0  0  0  0  0  0
   11.9646    6.0299   21.4251 C   0  0  0  0  0  0  0  0  0  0  0  0
  1  5  1  0
  1 13  1  0
  2 20  2  0
  2 28  1  0
  2 29  1  0
  3 19  4  0
  3 25  4  0
  4 23  4  0
  4 27  1  0
  4 30  4  0
  5 17  1  0
  6  8  1  0
  6 29  1  0
  7 24  4  0
  7 26  4  0
  8 28  1  0
  9 13  2  0
 10 18  1  0
 10 21  4  0
 10 30  4  0
 11 17  2  0
 12 18  1  0
 13 15  1  0
 14 24  1  0
 15 25  1  0
 16 28  2  0
 17 20  1  0
 19 24  4  0
 20 23  1  0
 21 22  4  0
 22 23  4  0
 25 26  4  0
 27 29  2  0
M  END
$$$$

 Created by Python create_sdf_string function

 30 33  0  0  0  0  0  0  0  0999 V2000
    8.3036    9.8571   18.4133 C   0  0  0  0  0  0  0  0  0  0  0  0
    8.3694    7.6612   22.6703 C   0  0  0  0  0  0  0  0  0  0  0  0
    8.4143    6.6863   16.2273 C   0  0  0  0  0  0  0  0  0  0  0  0
   10.7581    6.5674   21.7636 C   0  0  0  0  0  0  0  0  0  0  0  0
    8.4452    8.7960   19.2958 O   0  0  0  0  0  0  0  0  0  0  0  0
    8.7122    6.7842   24.8569 C   0  0  0  0  0  0  0  0  0  0  0  0
   10.3400    6.1726   14.3081 C   0  0  0  0  0  0  0  0  0  0  0  0
    7.4297    7.5873   24.8962 C   0  0  0  0  0  0  0  0  0  0  0  0
    8.1566   10.0536   16.0516 O   0  0  0  0  0  0  0  0  0  0  0  0
   12.4989    6.2074   20.1776 C   0  0  0  0  0  0  0  0  0  0  0  0
    6.9192    9.1053   20.9073 O   0  0  0  0  0  0  0  0  0  0  0  0
   14.3979    6.0729   18.7784 C   0  0  0  0  0  0  0  0  0  0  0  0
    8.6811    9.5354   16.9998 C   0  0  0  0  0  0  0  0  0  0  0  0
    9.2512    4.2713   13.7653 O   0  0  0  0  0  0  0  0  0  0  0  0
    9.6495    8.6317   16.8332 N   0  0  0  0  0  0  0  0  0  0  0  0
    6.2934    8.6988   23.1988 O   0  0  0  0  0  0  0  0  0  0  0  0
    7.9806    8.6543   20.5437 C   0  0  0  0  0  0  0  0  0  0  0  0
   13.7270    5.7144   19.8610 O   0  0  0  0  0  0  0  0  0  0  0  0
    8.3351    5.5235   15.4478 C   0  0  0  0  0  0  0  0  0  0  0  0
    8.7700    7.8434   21.3915 C   0  0  0  0  0  0  0  0  0  0  0  0
   11.7856    6.8851   19.2401 C   0  0  0  0  0  0  0  0  0  0  0  0
   10.5281    7.4276   19.5649 C   0  0  0  0  0  0  0  0  0  0  0  0
   10.0256    7.2907   20.8484 C   0  0  0  0  0  0  0  0  0  0  0  0
    9.3113    5.3049   14.4911 C   0  0  0  0  0  0  0  0  0  0  0  0
    9.4607    7.5646   16.0139 C   0  0  0  0  0  0  0  0  0  0  0  0
   10.4192    7.3157   15.0955 C   0  0  0  0  0  0  0  0  0  0  0  0
   10.2489    6.4227   23.0218 N   0  0  0  0  0  0  0  0  0  0  0  0
    7.2472    8.0746   23.5050 C   0  0  0  0  0  0  0  0  0  0  0  0
    9.2051    6.9101   23.4604 C   0  0  0  0  0  0  0  0  0  0  0  0
   11.9646    6.0299   21.4251 C   0  0  0  0  0  0  0  0  0  0  0  0
  1  5  1  0
  1 13  1  0
  2 20  2  0
  2 28  1  0
  2 29  1  0
  3 19  4  0
  3 25  4  0
  4 23  4  0
  4 27  1  0
  4 30  4  0
  5 17  1  0
  6  8  1  0
  6 29  1  0
  7 24  4  0
  7 26  4  0
  8 28  1  0
  9 13  2  0
 10 18  1  0
 10 21  4  0
 10 30  4  0
 11 17  2  0
 12 18  1  0
 13 15  1  0
 14 24  1  0
 15 25  1  0
 16 28  2  0
 17 20  1  0
 19 24  4  0
 20 23  1  0
 21 22  4  0
 22 23  4  0
 25 26  4  0
 27 29  2  0
M  END
$$$$

 Created by Python create_sdf_string function

 30 33  0  0  0  0  0  0  0  0999 V2000
    8.3036    9.8571   18.4133 C   0  0  0  0  0  0  0  0  0  0  0  0
    8.3694    7.6612   22.6703 C   0  0  0  0  0  0  0  0  0  0  0  0
    8.4143    6.6863   16.2273 C   0  0  0  0  0  0  0  0  0  0  0  0
   10.7581    6.5674   21.7636 C   0  0  0  0  0  0  0  0  0  0  0  0
    8.4452    8.7960   19.2958 O   0  0  0  0  0  0  0  0  0  0  0  0
    8.7122    6.7842   24.8569 C   0  0  0  0  0  0  0  0  0  0  0  0
   10.3400    6.1726   14.3081 C   0  0  0  0  0  0  0  0  0  0  0  0
    7.4297    7.5873   24.8962 C   0  0  0  0  0  0  0  0  0  0  0  0
    8.1566   10.0536   16.0516 O   0  0  0  0  0  0  0  0  0  0  0  0
   12.4989    6.2074   20.1776 C   0  0  0  0  0  0  0  0  0  0  0  0
    6.9192    9.1053   20.9073 O   0  0  0  0  0  0  0  0  0  0  0  0
   14.3979    6.0729   18.7784 C   0  0  0  0  0  0  0  0  0  0  0  0
    8.6811    9.5354   16.9998 C   0  0  0  0  0  0  0  0  0  0  0  0
    9.2512    4.2713   13.7653 O   0  0  0  0  0  0  0  0  0  0  0  0
    9.6495    8.6317   16.8332 N   0  0  0  0  0  0  0  0  0  0  0  0
    6.2934    8.6988   23.1988 O   0  0  0  0  0  0  0  0  0  0  0  0
    7.9806    8.6543   20.5437 C   0  0  0  0  0  0  0  0  0  0  0  0
   13.7270    5.7144   19.8610 O   0  0  0  0  0  0  0  0  0  0  0  0
    8.3351    5.5235   15.4478 C   0  0  0  0  0  0  0  0  0  0  0  0
    8.7700    7.8434   21.3915 C   0  0  0  0  0  0  0  0  0  0  0  0
   11.7856    6.8851   19.2401 C   0  0  0  0  0  0  0  0  0  0  0  0
   10.5281    7.4276   19.5649 C   0  0  0  0  0  0  0  0  0  0  0  0
   10.0256    7.2907   20.8484 C   0  0  0  0  0  0  0  0  0  0  0  0
    9.3113    5.3049   14.4911 C   0  0  0  0  0  0  0  0  0  0  0  0
    9.4607    7.5646   16.0139 C   0  0  0  0  0  0  0  0  0  0  0  0
   10.4192    7.3157   15.0955 C   0  0  0  0  0  0  0  0  0  0  0  0
   10.2489    6.4227   23.0218 N   0  0  0  0  0  0  0  0  0  0  0  0
    7.2472    8.0746   23.5050 C   0  0  0  0  0  0  0  0  0  0  0  0
    9.2051    6.9101   23.4604 C   0  0  0  0  0  0  0  0  0  0  0  0
   11.9646    6.0299   21.4251 C   0  0  0  0  0  0  0  0  0  0  0  0
  1  5  1  0
  1 13  1  0
  2 20  2  0
  2 28  1  0
  2 29  1  0
  3 19  4  0
  3 25  4  0
  4 23  4  0
  4 27  1  0
  4 30  4  0
  5 17  1  0
  6  8  1  0
  6 29  1  0
  7 24  4  0
  7 26  4  0
  8 28  1  0
  9 13  2  0
 10 18  1  0
 10 21  4  0
 10 30  4  0
 11 17  2  0
 12 18  1  0
 13 15  1  0
 14 24  1  0
 15 25  1  0
 16 28  2  0
 17 20  1  0
 19 24  4  0
 20 23  1  0
 21 22  4  0
 22 23  4  0
 25 26  4  0
 27 29  2  0
M  END
$$$$

 Created by Python create_sdf_string function

 30 33  0  0  0  0  0  0  0  0999 V2000
    8.3036    9.8571   18.4133 C   0  0  0  0  0  0  0  0  0  0  0  0
    8.3694    7.6612   22.6703 C   0  0  0  0  0  0  0  0  0  0  0  0
    8.4143    6.6863   16.2273 C   0  0  0  0  0  0  0  0  0  0  0  0
   10.7581    6.5674   21.7636 C   0  0  0  0  0  0  0  0  0  0  0  0
    8.4452    8.7960   19.2958 O   0  0  0  0  0  0  0  0  0  0  0  0
    8.7122    6.7842   24.8569 C   0  0  0  0  0  0  0  0  0  0  0  0
   10.3400    6.1726   14.3081 C   0  0  0  0  0  0  0  0  0  0  0  0
    7.4297    7.5873   24.8962 C   0  0  0  0  0  0  0  0  0  0  0  0
    8.1566   10.0536   16.0516 O   0  0  0  0  0  0  0  0  0  0  0  0
   12.4989    6.2074   20.1776 C   0  0  0  0  0  0  0  0  0  0  0  0
    6.9192    9.1053   20.9073 O   0  0  0  0  0  0  0  0  0  0  0  0
   14.3979    6.0729   18.7784 C   0  0  0  0  0  0  0  0  0  0  0  0
    8.6811    9.5354   16.9998 C   0  0  0  0  0  0  0  0  0  0  0  0
    9.2512    4.2713   13.7653 O   0  0  0  0  0  0  0  0  0  0  0  0
    9.6495    8.6317   16.8332 N   0  0  0  0  0  0  0  0  0  0  0  0
    6.2934    8.6988   23.1988 O   0  0  0  0  0  0  0  0  0  0  0  0
    7.9806    8.6543   20.5437 C   0  0  0  0  0  0  0  0  0  0  0  0
   13.7270    5.7144   19.8610 O   0  0  0  0  0  0  0  0  0  0  0  0
    8.3351    5.5235   15.4478 C   0  0  0  0  0  0  0  0  0  0  0  0
    8.7700    7.8434   21.3915 C   0  0  0  0  0  0  0  0  0  0  0  0
   11.7856    6.8851   19.2401 C   0  0  0  0  0  0  0  0  0  0  0  0
   10.5281    7.4276   19.5649 C   0  0  0  0  0  0  0  0  0  0  0  0
   10.0256    7.2907   20.8484 C   0  0  0  0  0  0  0  0  0  0  0  0
    9.3113    5.3049   14.4911 C   0  0  0  0  0  0  0  0  0  0  0  0
    9.4607    7.5646   16.0139 C   0  0  0  0  0  0  0  0  0  0  0  0
   10.4192    7.3157   15.0955 C   0  0  0  0  0  0  0  0  0  0  0  0
   10.2489    6.4227   23.0218 N   0  0  0  0  0  0  0  0  0  0  0  0
    7.2472    8.0746   23.5050 C   0  0  0  0  0  0  0  0  0  0  0  0
    9.2051    6.9101   23.4604 C   0  0  0  0  0  0  0  0  0  0  0  0
   11.9646    6.0299   21.4251 C   0  0  0  0  0  0  0  0  0  0  0  0
  1  5  1  0
  1 13  1  0
  2 20  2  0
  2 28  1  0
  2 29  1  0
  3 19  4  0
  3 25  4  0
  4 23  4  0
  4 27  1  0
  4 30  4  0
  5 17  1  0
  6  8  1  0
  6 29  1  0
  7 24  4  0
  7 26  4  0
  8 28  1  0
  9 13  2  0
 10 18  1  0
 10 21  4  0
 10 30  4  0
 11 17  2  0
 12 18  1  0
 13 15  1  0
 14 24  1  0
 15 25  1  0
 16 28  2  0
 17 20  1  0
 19 24  4  0
 20 23  1  0
 21 22  4  0
 22 23  4  0
 25 26  4  0
 27 29  2  0
M  END
$$$$

 Created by Python create_sdf_string function

 30 33  0  0  0  0  0  0  0  0999 V2000
    8.3036    9.8571   18.4133 C   0  0  0  0  0  0  0  0  0  0  0  0
    8.3694    7.6612   22.6703 C   0  0  0  0  0  0  0  0  0  0  0  0
    8.4143    6.6863   16.2273 C   0  0  0  0  0  0  0  0  0  0  0  0
   10.7581    6.5674   21.7636 C   0  0  0  0  0  0  0  0  0  0  0  0
    8.4452    8.7960   19.2958 O   0  0  0  0  0  0  0  0  0  0  0  0
    8.7122    6.7842   24.8569 C   0  0  0  0  0  0  0  0  0  0  0  0
   10.3400    6.1726   14.3081 C   0  0  0  0  0  0  0  0  0  0  0  0
    7.4297    7.5873   24.8962 C   0  0  0  0  0  0  0  0  0  0  0  0
    8.1566   10.0536   16.0516 O   0  0  0  0  0  0  0  0  0  0  0  0
   12.4989    6.2074   20.1776 C   0  0  0  0  0  0  0  0  0  0  0  0
    6.9192    9.1053   20.9073 O   0  0  0  0  0  0  0  0  0  0  0  0
   14.3979    6.0729   18.7784 C   0  0  0  0  0  0  0  0  0  0  0  0
    8.6811    9.5354   16.9998 C   0  0  0  0  0  0  0  0  0  0  0  0
    9.2512    4.2713   13.7653 O   0  0  0  0  0  0  0  0  0  0  0  0
    9.6495    8.6317   16.8332 N   0  0  0  0  0  0  0  0  0  0  0  0
    6.2934    8.6988   23.1988 O   0  0  0  0  0  0  0  0  0  0  0  0
    7.9806    8.6543   20.5437 C   0  0  0  0  0  0  0  0  0  0  0  0
   13.7270    5.7144   19.8610 O   0  0  0  0  0  0  0  0  0  0  0  0
    8.3351    5.5235   15.4478 C   0  0  0  0  0  0  0  0  0  0  0  0
    8.7700    7.8434   21.3915 C   0  0  0  0  0  0  0  0  0  0  0  0
   11.7856    6.8851   19.2401 C   0  0  0  0  0  0  0  0  0  0  0  0
   10.5281    7.4276   19.5649 C   0  0  0  0  0  0  0  0  0  0  0  0
   10.0256    7.2907   20.8484 C   0  0  0  0  0  0  0  0  0  0  0  0
    9.3113    5.3049   14.4911 C   0  0  0  0  0  0  0  0  0  0  0  0
    9.4607    7.5646   16.0139 C   0  0  0  0  0  0  0  0  0  0  0  0
   10.4192    7.3157   15.0955 C   0  0  0  0  0  0  0  0  0  0  0  0
   10.2489    6.4227   23.0218 N   0  0  0  0  0  0  0  0  0  0  0  0
    7.2472    8.0746   23.5050 C   0  0  0  0  0  0  0  0  0  0  0  0
    9.2051    6.9101   23.4604 C   0  0  0  0  0  0  0  0  0  0  0  0
   11.9646    6.0299   21.4251 C   0  0  0  0  0  0  0  0  0  0  0  0
  1  5  1  0
  1 13  1  0
  2 20  2  0
  2 28  1  0
  2 29  1  0
  3 19  4  0
  3 25  4  0
  4 23  4  0
  4 27  1  0
  4 30  4  0
  5 17  1  0
  6  8  1  0
  6 29  1  0
  7 24  4  0
  7 26  4  0
  8 28  1  0
  9 13  2  0
 10 18  1  0
 10 21  4  0
 10 30  4  0
 11 17  2  0
 12 18  1  0
 13 15  1  0
 14 24  1  0
 15 25  1  0
 16 28  2  0
 17 20  1  0
 19 24  4  0
 20 23  1  0
 21 22  4  0
 22 23  4  0
 25 26  4  0
 27 29  2  0
M  END
$$$$

 Created by Python create_sdf_string function

 30 33  0  0  0  0  0  0  0  0999 V2000
    8.3036    9.8571   18.4133 C   0  0  0  0  0  0  0  0  0  0  0  0
    8.3694    7.6612   22.6703 C   0  0  0  0  0  0  0  0  0  0  0  0
    8.4143    6.6863   16.2273 C   0  0  0  0  0  0  0  0  0  0  0  0
   10.7581    6.5674   21.7636 C   0  0  0  0  0  0  0  0  0  0  0  0
    8.4452    8.7960   19.2958 O   0  0  0  0  0  0  0  0  0  0  0  0
    8.7122    6.7842   24.8569 C   0  0  0  0  0  0  0  0  0  0  0  0
   10.3400    6.1726   14.3081 C   0  0  0  0  0  0  0  0  0  0  0  0
    7.4297    7.5873   24.8962 C   0  0  0  0  0  0  0  0  0  0  0  0
    8.1566   10.0536   16.0516 O   0  0  0  0  0  0  0  0  0  0  0  0
   12.4989    6.2074   20.1776 C   0  0  0  0  0  0  0  0  0  0  0  0
    6.9192    9.1053   20.9073 O   0  0  0  0  0  0  0  0  0  0  0  0
   14.3979    6.0729   18.7784 C   0  0  0  0  0  0  0  0  0  0  0  0
    8.6811    9.5354   16.9998 C   0  0  0  0  0  0  0  0  0  0  0  0
    9.2512    4.2713   13.7653 O   0  0  0  0  0  0  0  0  0  0  0  0
    9.6495    8.6317   16.8332 N   0  0  0  0  0  0  0  0  0  0  0  0
    6.2934    8.6988   23.1988 O   0  0  0  0  0  0  0  0  0  0  0  0
    7.9806    8.6543   20.5437 C   0  0  0  0  0  0  0  0  0  0  0  0
   13.7270    5.7144   19.8610 O   0  0  0  0  0  0  0  0  0  0  0  0
    8.3351    5.5235   15.4478 C   0  0  0  0  0  0  0  0  0  0  0  0
    8.7700    7.8434   21.3915 C   0  0  0  0  0  0  0  0  0  0  0  0
   11.7856    6.8851   19.2401 C   0  0  0  0  0  0  0  0  0  0  0  0
   10.5281    7.4276   19.5649 C   0  0  0  0  0  0  0  0  0  0  0  0
   10.0256    7.2907   20.8484 C   0  0  0  0  0  0  0  0  0  0  0  0
    9.3113    5.3049   14.4911 C   0  0  0  0  0  0  0  0  0  0  0  0
    9.4607    7.5646   16.0139 C   0  0  0  0  0  0  0  0  0  0  0  0
   10.4192    7.3157   15.0955 C   0  0  0  0  0  0  0  0  0  0  0  0
   10.2489    6.4227   23.0218 N   0  0  0  0  0  0  0  0  0  0  0  0
    7.2472    8.0746   23.5050 C   0  0  0  0  0  0  0  0  0  0  0  0
    9.2051    6.9101   23.4604 C   0  0  0  0  0  0  0  0  0  0  0  0
   11.9646    6.0299   21.4251 C   0  0  0  0  0  0  0  0  0  0  0  0
  1  5  1  0
  1 13  1  0
  2 20  2  0
  2 28  1  0
  2 29  1  0
  3 19  4  0
  3 25  4  0
  4 23  4  0
  4 27  1  0
  4 30  4  0
  5 17  1  0
  6  8  1  0
  6 29  1  0
  7 24  4  0
  7 26  4  0
  8 28  1  0
  9 13  2  0
 10 18  1  0
 10 21  4  0
 10 30  4  0
 11 17  2  0
 12 18  1  0
 13 15  1  0
 14 24  1  0
 15 25  1  0
 16 28  2  0
 17 20  1  0
 19 24  4  0
 20 23  1  0
 21 22  4  0
 22 23  4  0
 25 26  4  0
 27 29  2  0
M  END
$$$$

 Created by Python create_sdf_string function

 30 33  0  0  0  0  0  0  0  0999 V2000
    8.3036    9.8571   18.4133 C   0  0  0  0  0  0  0  0  0  0  0  0
    8.3694    7.6612   22.6703 C   0  0  0  0  0  0  0  0  0  0  0  0
    8.4143    6.6863   16.2273 C   0  0  0  0  0  0  0  0  0  0  0  0
   10.7581    6.5674   21.7636 C   0  0  0  0  0  0  0  0  0  0  0  0
    8.4452    8.7960   19.2958 O   0  0  0  0  0  0  0  0  0  0  0  0
    8.7122    6.7842   24.8569 C   0  0  0  0  0  0  0  0  0  0  0  0
   10.3400    6.1726   14.3081 C   0  0  0  0  0  0  0  0  0  0  0  0
    7.4297    7.5873   24.8962 C   0  0  0  0  0  0  0  0  0  0  0  0
    8.1566   10.0536   16.0516 O   0  0  0  0  0  0  0  0  0  0  0  0
   12.4989    6.2074   20.1776 C   0  0  0  0  0  0  0  0  0  0  0  0
    6.9192    9.1053   20.9073 O   0  0  0  0  0  0  0  0  0  0  0  0
   14.3979    6.0729   18.7784 C   0  0  0  0  0  0  0  0  0  0  0  0
    8.6811    9.5354   16.9998 C   0  0  0  0  0  0  0  0  0  0  0  0
    9.2512    4.2713   13.7653 O   0  0  0  0  0  0  0  0  0  0  0  0
    9.6495    8.6317   16.8332 N   0  0  0  0  0  0  0  0  0  0  0  0
    6.2934    8.6988   23.1988 O   0  0  0  0  0  0  0  0  0  0  0  0
    7.9806    8.6543   20.5437 C   0  0  0  0  0  0  0  0  0  0  0  0
   13.7270    5.7144   19.8610 O   0  0  0  0  0  0  0  0  0  0  0  0
    8.3351    5.5235   15.4478 C   0  0  0  0  0  0  0  0  0  0  0  0
    8.7700    7.8434   21.3915 C   0  0  0  0  0  0  0  0  0  0  0  0
   11.7856    6.8851   19.2401 C   0  0  0  0  0  0  0  0  0  0  0  0
   10.5281    7.4276   19.5649 C   0  0  0  0  0  0  0  0  0  0  0  0
   10.0256    7.2907   20.8484 C   0  0  0  0  0  0  0  0  0  0  0  0
    9.3113    5.3049   14.4911 C   0  0  0  0  0  0  0  0  0  0  0  0
    9.4607    7.5646   16.0139 C   0  0  0  0  0  0  0  0  0  0  0  0
   10.4192    7.3157   15.0955 C   0  0  0  0  0  0  0  0  0  0  0  0
   10.2489    6.4227   23.0218 N   0  0  0  0  0  0  0  0  0  0  0  0
    7.2472    8.0746   23.5050 C   0  0  0  0  0  0  0  0  0  0  0  0
    9.2051    6.9101   23.4604 C   0  0  0  0  0  0  0  0  0  0  0  0
   11.9646    6.0299   21.4251 C   0  0  0  0  0  0  0  0  0  0  0  0
  1  5  1  0
  1 13  1  0
  2 20  2  0
  2 28  1  0
  2 29  1  0
  3 19  4  0
  3 25  4  0
  4 23  4  0
  4 27  1  0
  4 30  4  0
  5 17  1  0
  6  8  1  0
  6 29  1  0
  7 24  4  0
  7 26  4  0
  8 28  1  0
  9 13  2  0
 10 18  1  0
 10 21  4  0
 10 30  4  0
 11 17  2  0
 12 18  1  0
 13 15  1  0
 14 24  1  0
 15 25  1  0
 16 28  2  0
 17 20  1  0
 19 24  4  0
 20 23  1  0
 21 22  4  0
 22 23  4  0
 25 26  4  0
 27 29  2  0
M  END
$$$$

 Created by Python create_sdf_string function

 30 33  0  0  0  0  0  0  0  0999 V2000
    8.3036    9.8571   18.4133 C   0  0  0  0  0  0  0  0  0  0  0  0
    8.3694    7.6612   22.6703 C   0  0  0  0  0  0  0  0  0  0  0  0
    8.4143    6.6863   16.2273 C   0  0  0  0  0  0  0  0  0  0  0  0
   10.7581    6.5674   21.7636 C   0  0  0  0  0  0  0  0  0  0  0  0
    8.4452    8.7960   19.2958 O   0  0  0  0  0  0  0  0  0  0  0  0
    8.7122    6.7842   24.8569 C   0  0  0  0  0  0  0  0  0  0  0  0
   10.3400    6.1726   14.3081 C   0  0  0  0  0  0  0  0  0  0  0  0
    7.4297    7.5873   24.8962 C   0  0  0  0  0  0  0  0  0  0  0  0
    8.1566   10.0536   16.0516 O   0  0  0  0  0  0  0  0  0  0  0  0
   12.4989    6.2074   20.1776 C   0  0  0  0  0  0  0  0  0  0  0  0
    6.9192    9.1053   20.9073 O   0  0  0  0  0  0  0  0  0  0  0  0
   14.3979    6.0729   18.7784 C   0  0  0  0  0  0  0  0  0  0  0  0
    8.6811    9.5354   16.9998 C   0  0  0  0  0  0  0  0  0  0  0  0
    9.2512    4.2713   13.7653 O   0  0  0  0  0  0  0  0  0  0  0  0
    9.6495    8.6317   16.8332 N   0  0  0  0  0  0  0  0  0  0  0  0
    6.2934    8.6988   23.1988 O   0  0  0  0  0  0  0  0  0  0  0  0
    7.9806    8.6543   20.5437 C   0  0  0  0  0  0  0  0  0  0  0  0
   13.7270    5.7144   19.8610 O   0  0  0  0  0  0  0  0  0  0  0  0
    8.3351    5.5235   15.4478 C   0  0  0  0  0  0  0  0  0  0  0  0
    8.7700    7.8434   21.3915 C   0  0  0  0  0  0  0  0  0  0  0  0
   11.7856    6.8851   19.2401 C   0  0  0  0  0  0  0  0  0  0  0  0
   10.5281    7.4276   19.5649 C   0  0  0  0  0  0  0  0  0  0  0  0
   10.0256    7.2907   20.8484 C   0  0  0  0  0  0  0  0  0  0  0  0
    9.3113    5.3049   14.4911 C   0  0  0  0  0  0  0  0  0  0  0  0
    9.4607    7.5646   16.0139 C   0  0  0  0  0  0  0  0  0  0  0  0
   10.4192    7.3157   15.0955 C   0  0  0  0  0  0  0  0  0  0  0  0
   10.2489    6.4227   23.0218 N   0  0  0  0  0  0  0  0  0  0  0  0
    7.2472    8.0746   23.5050 C   0  0  0  0  0  0  0  0  0  0  0  0
    9.2051    6.9101   23.4604 C   0  0  0  0  0  0  0  0  0  0  0  0
   11.9646    6.0299   21.4251 C   0  0  0  0  0  0  0  0  0  0  0  0
  1  5  1  0
  1 13  1  0
  2 20  2  0
  2 28  1  0
  2 29  1  0
  3 19  4  0
  3 25  4  0
  4 23  4  0
  4 27  1  0
  4 30  4  0
  5 17  1  0
  6  8  1  0
  6 29  1  0
  7 24  4  0
  7 26  4  0
  8 28  1  0
  9 13  2  0
 10 18  1  0
 10 21  4  0
 10 30  4  0
 11 17  2  0
 12 18  1  0
 13 15  1  0
 14 24  1  0
 15 25  1  0
 16 28  2  0
 17 20  1  0
 19 24  4  0
 20 23  1  0
 21 22  4  0
 22 23  4  0
 25 26  4  0
 27 29  2  0
M  END
$$$$

 Created by Python create_sdf_string function

 30 33  0  0  0  0  0  0  0  0999 V2000
    8.3036    9.8571   18.4133 C   0  0  0  0  0  0  0  0  0  0  0  0
    8.3694    7.6612   22.6703 C   0  0  0  0  0  0  0  0  0  0  0  0
    8.4143    6.6863   16.2273 C   0  0  0  0  0  0  0  0  0  0  0  0
   10.7581    6.5674   21.7636 C   0  0  0  0  0  0  0  0  0  0  0  0
    8.4452    8.7960   19.2958 O   0  0  0  0  0  0  0  0  0  0  0  0
    8.7122    6.7842   24.8569 C   0  0  0  0  0  0  0  0  0  0  0  0
   10.3400    6.1726   14.3081 C   0  0  0  0  0  0  0  0  0  0  0  0
    7.4297    7.5873   24.8962 C   0  0  0  0  0  0  0  0  0  0  0  0
    8.1566   10.0536   16.0516 O   0  0  0  0  0  0  0  0  0  0  0  0
   12.4989    6.2074   20.1776 C   0  0  0  0  0  0  0  0  0  0  0  0
    6.9192    9.1053   20.9073 O   0  0  0  0  0  0  0  0  0  0  0  0
   14.3979    6.0729   18.7784 C   0  0  0  0  0  0  0  0  0  0  0  0
    8.6811    9.5354   16.9998 C   0  0  0  0  0  0  0  0  0  0  0  0
    9.2512    4.2713   13.7653 O   0  0  0  0  0  0  0  0  0  0  0  0
    9.6495    8.6317   16.8332 N   0  0  0  0  0  0  0  0  0  0  0  0
    6.2934    8.6988   23.1988 O   0  0  0  0  0  0  0  0  0  0  0  0
    7.9806    8.6543   20.5437 C   0  0  0  0  0  0  0  0  0  0  0  0
   13.7270    5.7144   19.8610 O   0  0  0  0  0  0  0  0  0  0  0  0
    8.3351    5.5235   15.4478 C   0  0  0  0  0  0  0  0  0  0  0  0
    8.7700    7.8434   21.3915 C   0  0  0  0  0  0  0  0  0  0  0  0
   11.7856    6.8851   19.2401 C   0  0  0  0  0  0  0  0  0  0  0  0
   10.5281    7.4276   19.5649 C   0  0  0  0  0  0  0  0  0  0  0  0
   10.0256    7.2907   20.8484 C   0  0  0  0  0  0  0  0  0  0  0  0
    9.3113    5.3049   14.4911 C   0  0  0  0  0  0  0  0  0  0  0  0
    9.4607    7.5646   16.0139 C   0  0  0  0  0  0  0  0  0  0  0  0
   10.4192    7.3157   15.0955 C   0  0  0  0  0  0  0  0  0  0  0  0
   10.2489    6.4227   23.0218 N   0  0  0  0  0  0  0  0  0  0  0  0
    7.2472    8.0746   23.5050 C   0  0  0  0  0  0  0  0  0  0  0  0
    9.2051    6.9101   23.4604 C   0  0  0  0  0  0  0  0  0  0  0  0
   11.9646    6.0299   21.4251 C   0  0  0  0  0  0  0  0  0  0  0  0
  1  5  1  0
  1 13  1  0
  2 20  2  0
  2 28  1  0
  2 29  1  0
  3 19  4  0
  3 25  4  0
  4 23  4  0
  4 27  1  0
  4 30  4  0
  5 17  1  0
  6  8  1  0
  6 29  1  0
  7 24  4  0
  7 26  4  0
  8 28  1  0
  9 13  2  0
 10 18  1  0
 10 21  4  0
 10 30  4  0
 11 17  2  0
 12 18  1  0
 13 15  1  0
 14 24  1  0
 15 25  1  0
 16 28  2  0
 17 20  1  0
 19 24  4  0
 20 23  1  0
 21 22  4  0
 22 23  4  0
 25 26  4  0
 27 29  2  0
M  END
$$$$

 Created by Python create_sdf_string function

 30 33  0  0  0  0  0  0  0  0999 V2000
    8.3036    9.8571   18.4133 C   0  0  0  0  0  0  0  0  0  0  0  0
    8.3694    7.6612   22.6703 C   0  0  0  0  0  0  0  0  0  0  0  0
    8.4143    6.6863   16.2273 C   0  0  0  0  0  0  0  0  0  0  0  0
   10.7581    6.5674   21.7636 C   0  0  0  0  0  0  0  0  0  0  0  0
    8.4452    8.7960   19.2958 O   0  0  0  0  0  0  0  0  0  0  0  0
    8.7122    6.7842   24.8569 C   0  0  0  0  0  0  0  0  0  0  0  0
   10.3400    6.1726   14.3081 C   0  0  0  0  0  0  0  0  0  0  0  0
    7.4297    7.5873   24.8962 C   0  0  0  0  0  0  0  0  0  0  0  0
    8.1566   10.0536   16.0516 O   0  0  0  0  0  0  0  0  0  0  0  0
   12.4989    6.2074   20.1776 C   0  0  0  0  0  0  0  0  0  0  0  0
    6.9192    9.1053   20.9073 O   0  0  0  0  0  0  0  0  0  0  0  0
   14.3979    6.0729   18.7784 C   0  0  0  0  0  0  0  0  0  0  0  0
    8.6811    9.5354   16.9998 C   0  0  0  0  0  0  0  0  0  0  0  0
    9.2512    4.2713   13.7653 O   0  0  0  0  0  0  0  0  0  0  0  0
    9.6495    8.6317   16.8332 N   0  0  0  0  0  0  0  0  0  0  0  0
    6.2934    8.6988   23.1988 O   0  0  0  0  0  0  0  0  0  0  0  0
    7.9806    8.6543   20.5437 C   0  0  0  0  0  0  0  0  0  0  0  0
   13.7270    5.7144   19.8610 O   0  0  0  0  0  0  0  0  0  0  0  0
    8.3351    5.5235   15.4478 C   0  0  0  0  0  0  0  0  0  0  0  0
    8.7700    7.8434   21.3915 C   0  0  0  0  0  0  0  0  0  0  0  0
   11.7856    6.8851   19.2401 C   0  0  0  0  0  0  0  0  0  0  0  0
   10.5281    7.4276   19.5649 C   0  0  0  0  0  0  0  0  0  0  0  0
   10.0256    7.2907   20.8484 C   0  0  0  0  0  0  0  0  0  0  0  0
    9.3113    5.3049   14.4911 C   0  0  0  0  0  0  0  0  0  0  0  0
    9.4607    7.5646   16.0139 C   0  0  0  0  0  0  0  0  0  0  0  0
   10.4192    7.3157   15.0955 C   0  0  0  0  0  0  0  0  0  0  0  0
   10.2489    6.4227   23.0218 N   0  0  0  0  0  0  0  0  0  0  0  0
    7.2472    8.0746   23.5050 C   0  0  0  0  0  0  0  0  0  0  0  0
    9.2051    6.9101   23.4604 C   0  0  0  0  0  0  0  0  0  0  0  0
   11.9646    6.0299   21.4251 C   0  0  0  0  0  0  0  0  0  0  0  0
  1  5  1  0
  1 13  1  0
  2 20  2  0
  2 28  1  0
  2 29  1  0
  3 19  4  0
  3 25  4  0
  4 23  4  0
  4 27  1  0
  4 30  4  0
  5 17  1  0
  6  8  1  0
  6 29  1  0
  7 24  4  0
  7 26  4  0
  8 28  1  0
  9 13  2  0
 10 18  1  0
 10 21  4  0
 10 30  4  0
 11 17  2  0
 12 18  1  0
 13 15  1  0
 14 24  1  0
 15 25  1  0
 16 28  2  0
 17 20  1  0
 19 24  4  0
 20 23  1  0
 21 22  4  0
 22 23  4  0
 25 26  4  0
 27 29  2  0
M  END
$$$$

 Created by Python create_sdf_string function

 30 33  0  0  0  0  0  0  0  0999 V2000
    8.3036    9.8571   18.4133 C   0  0  0  0  0  0  0  0  0  0  0  0
    8.3694    7.6612   22.6703 C   0  0  0  0  0  0  0  0  0  0  0  0
    8.4143    6.6863   16.2273 C   0  0  0  0  0  0  0  0  0  0  0  0
   10.7581    6.5674   21.7636 C   0  0  0  0  0  0  0  0  0  0  0  0
    8.4452    8.7960   19.2958 O   0  0  0  0  0  0  0  0  0  0  0  0
    8.7122    6.7842   24.8569 C   0  0  0  0  0  0  0  0  0  0  0  0
   10.3400    6.1726   14.3081 C   0  0  0  0  0  0  0  0  0  0  0  0
    7.4297    7.5873   24.8962 C   0  0  0  0  0  0  0  0  0  0  0  0
    8.1566   10.0536   16.0516 O   0  0  0  0  0  0  0  0  0  0  0  0
   12.4989    6.2074   20.1776 C   0  0  0  0  0  0  0  0  0  0  0  0
    6.9192    9.1053   20.9073 O   0  0  0  0  0  0  0  0  0  0  0  0
   14.3979    6.0729   18.7784 C   0  0  0  0  0  0  0  0  0  0  0  0
    8.6811    9.5354   16.9998 C   0  0  0  0  0  0  0  0  0  0  0  0
    9.2512    4.2713   13.7653 O   0  0  0  0  0  0  0  0  0  0  0  0
    9.6495    8.6317   16.8332 N   0  0  0  0  0  0  0  0  0  0  0  0
    6.2934    8.6988   23.1988 O   0  0  0  0  0  0  0  0  0  0  0  0
    7.9806    8.6543   20.5437 C   0  0  0  0  0  0  0  0  0  0  0  0
   13.7270    5.7144   19.8610 O   0  0  0  0  0  0  0  0  0  0  0  0
    8.3351    5.5235   15.4478 C   0  0  0  0  0  0  0  0  0  0  0  0
    8.7700    7.8434   21.3915 C   0  0  0  0  0  0  0  0  0  0  0  0
   11.7856    6.8851   19.2401 C   0  0  0  0  0  0  0  0  0  0  0  0
   10.5281    7.4276   19.5649 C   0  0  0  0  0  0  0  0  0  0  0  0
   10.0256    7.2907   20.8484 C   0  0  0  0  0  0  0  0  0  0  0  0
    9.3113    5.3049   14.4911 C   0  0  0  0  0  0  0  0  0  0  0  0
    9.4607    7.5646   16.0139 C   0  0  0  0  0  0  0  0  0  0  0  0
   10.4192    7.3157   15.0955 C   0  0  0  0  0  0  0  0  0  0  0  0
   10.2489    6.4227   23.0218 N   0  0  0  0  0  0  0  0  0  0  0  0
    7.2472    8.0746   23.5050 C   0  0  0  0  0  0  0  0  0  0  0  0
    9.2051    6.9101   23.4604 C   0  0  0  0  0  0  0  0  0  0  0  0
   11.9646    6.0299   21.4251 C   0  0  0  0  0  0  0  0  0  0  0  0
  1  5  1  0
  1 13  1  0
  2 20  2  0
  2 28  1  0
  2 29  1  0
  3 19  4  0
  3 25  4  0
  4 23  4  0
  4 27  1  0
  4 30  4  0
  5 17  1  0
  6  8  1  0
  6 29  1  0
  7 24  4  0
  7 26  4  0
  8 28  1  0
  9 13  2  0
 10 18  1  0
 10 21  4  0
 10 30  4  0
 11 17  2  0
 12 18  1  0
 13 15  1  0
 14 24  1  0
 15 25  1  0
 16 28  2  0
 17 20  1  0
 19 24  4  0
 20 23  1  0
 21 22  4  0
 22 23  4  0
 25 26  4  0
 27 29  2  0
M  END
$$$$

 Created by Python create_sdf_string function

 30 33  0  0  0  0  0  0  0  0999 V2000
    8.3036    9.8571   18.4133 C   0  0  0  0  0  0  0  0  0  0  0  0
    8.3694    7.6612   22.6703 C   0  0  0  0  0  0  0  0  0  0  0  0
    8.4143    6.6863   16.2273 C   0  0  0  0  0  0  0  0  0  0  0  0
   10.7581    6.5674   21.7636 C   0  0  0  0  0  0  0  0  0  0  0  0
    8.4452    8.7960   19.2958 O   0  0  0  0  0  0  0  0  0  0  0  0
    8.7122    6.7842   24.8569 C   0  0  0  0  0  0  0  0  0  0  0  0
   10.3400    6.1726   14.3081 C   0  0  0  0  0  0  0  0  0  0  0  0
    7.4297    7.5873   24.8962 C   0  0  0  0  0  0  0  0  0  0  0  0
    8.1566   10.0536   16.0516 O   0  0  0  0  0  0  0  0  0  0  0  0
   12.4989    6.2074   20.1776 C   0  0  0  0  0  0  0  0  0  0  0  0
    6.9192    9.1053   20.9073 O   0  0  0  0  0  0  0  0  0  0  0  0
   14.3979    6.0729   18.7784 C   0  0  0  0  0  0  0  0  0  0  0  0
    8.6811    9.5354   16.9998 C   0  0  0  0  0  0  0  0  0  0  0  0
    9.2512    4.2713   13.7653 O   0  0  0  0  0  0  0  0  0  0  0  0
    9.6495    8.6317   16.8332 N   0  0  0  0  0  0  0  0  0  0  0  0
    6.2934    8.6988   23.1988 O   0  0  0  0  0  0  0  0  0  0  0  0
    7.9806    8.6543   20.5437 C   0  0  0  0  0  0  0  0  0  0  0  0
   13.7270    5.7144   19.8610 O   0  0  0  0  0  0  0  0  0  0  0  0
    8.3351    5.5235   15.4478 C   0  0  0  0  0  0  0  0  0  0  0  0
    8.7700    7.8434   21.3915 C   0  0  0  0  0  0  0  0  0  0  0  0
   11.7856    6.8851   19.2401 C   0  0  0  0  0  0  0  0  0  0  0  0
   10.5281    7.4276   19.5649 C   0  0  0  0  0  0  0  0  0  0  0  0
   10.0256    7.2907   20.8484 C   0  0  0  0  0  0  0  0  0  0  0  0
    9.3113    5.3049   14.4911 C   0  0  0  0  0  0  0  0  0  0  0  0
    9.4607    7.5646   16.0139 C   0  0  0  0  0  0  0  0  0  0  0  0
   10.4192    7.3157   15.0955 C   0  0  0  0  0  0  0  0  0  0  0  0
   10.2489    6.4227   23.0218 N   0  0  0  0  0  0  0  0  0  0  0  0
    7.2472    8.0746   23.5050 C   0  0  0  0  0  0  0  0  0  0  0  0
    9.2051    6.9101   23.4604 C   0  0  0  0  0  0  0  0  0  0  0  0
   11.9646    6.0299   21.4251 C   0  0  0  0  0  0  0  0  0  0  0  0
  1  5  1  0
  1 13  1  0
  2 20  2  0
  2 28  1  0
  2 29  1  0
  3 19  4  0
  3 25  4  0
  4 23  4  0
  4 27  1  0
  4 30  4  0
  5 17  1  0
  6  8  1  0
  6 29  1  0
  7 24  4  0
  7 26  4  0
  8 28  1  0
  9 13  2  0
 10 18  1  0
 10 21  4  0
 10 30  4  0
 11 17  2  0
 12 18  1  0
 13 15  1  0
 14 24  1  0
 15 25  1  0
 16 28  2  0
 17 20  1  0
 19 24  4  0
 20 23  1  0
 21 22  4  0
 22 23  4  0
 25 26  4  0
 27 29  2  0
M  END
$$$$

 Created by Python create_sdf_string function

 30 33  0  0  0  0  0  0  0  0999 V2000
    8.3036    9.8571   18.4133 C   0  0  0  0  0  0  0  0  0  0  0  0
    8.3694    7.6612   22.6703 C   0  0  0  0  0  0  0  0  0  0  0  0
    8.4143    6.6863   16.2273 C   0  0  0  0  0  0  0  0  0  0  0  0
   10.7581    6.5674   21.7636 C   0  0  0  0  0  0  0  0  0  0  0  0
    8.4452    8.7960   19.2958 O   0  0  0  0  0  0  0  0  0  0  0  0
    8.7122    6.7842   24.8569 C   0  0  0  0  0  0  0  0  0  0  0  0
   10.3400    6.1726   14.3081 C   0  0  0  0  0  0  0  0  0  0  0  0
    7.4297    7.5873   24.8962 C   0  0  0  0  0  0  0  0  0  0  0  0
    8.1566   10.0536   16.0516 O   0  0  0  0  0  0  0  0  0  0  0  0
   12.4989    6.2074   20.1776 C   0  0  0  0  0  0  0  0  0  0  0  0
    6.9192    9.1053   20.9073 O   0  0  0  0  0  0  0  0  0  0  0  0
   14.3979    6.0729   18.7784 C   0  0  0  0  0  0  0  0  0  0  0  0
    8.6811    9.5354   16.9998 C   0  0  0  0  0  0  0  0  0  0  0  0
    9.2512    4.2713   13.7653 O   0  0  0  0  0  0  0  0  0  0  0  0
    9.6495    8.6317   16.8332 N   0  0  0  0  0  0  0  0  0  0  0  0
    6.2934    8.6988   23.1988 O   0  0  0  0  0  0  0  0  0  0  0  0
    7.9806    8.6543   20.5437 C   0  0  0  0  0  0  0  0  0  0  0  0
   13.7270    5.7144   19.8610 O   0  0  0  0  0  0  0  0  0  0  0  0
    8.3351    5.5235   15.4478 C   0  0  0  0  0  0  0  0  0  0  0  0
    8.7700    7.8434   21.3915 C   0  0  0  0  0  0  0  0  0  0  0  0
   11.7856    6.8851   19.2401 C   0  0  0  0  0  0  0  0  0  0  0  0
   10.5281    7.4276   19.5649 C   0  0  0  0  0  0  0  0  0  0  0  0
   10.0256    7.2907   20.8484 C   0  0  0  0  0  0  0  0  0  0  0  0
    9.3113    5.3049   14.4911 C   0  0  0  0  0  0  0  0  0  0  0  0
    9.4607    7.5646   16.0139 C   0  0  0  0  0  0  0  0  0  0  0  0
   10.4192    7.3157   15.0955 C   0  0  0  0  0  0  0  0  0  0  0  0
   10.2489    6.4227   23.0218 N   0  0  0  0  0  0  0  0  0  0  0  0
    7.2472    8.0746   23.5050 C   0  0  0  0  0  0  0  0  0  0  0  0
    9.2051    6.9101   23.4604 C   0  0  0  0  0  0  0  0  0  0  0  0
   11.9646    6.0299   21.4251 C   0  0  0  0  0  0  0  0  0  0  0  0
  1  5  1  0
  1 13  1  0
  2 20  2  0
  2 28  1  0
  2 29  1  0
  3 19  4  0
  3 25  4  0
  4 23  4  0
  4 27  1  0
  4 30  4  0
  5 17  1  0
  6  8  1  0
  6 29  1  0
  7 24  4  0
  7 26  4  0
  8 28  1  0
  9 13  2  0
 10 18  1  0
 10 21  4  0
 10 30  4  0
 11 17  2  0
 12 18  1  0
 13 15  1  0
 14 24  1  0
 15 25  1  0
 16 28  2  0
 17 20  1  0
 19 24  4  0
 20 23  1  0
 21 22  4  0
 22 23  4  0
 25 26  4  0
 27 29  2  0
M  END
$$$$

 Created by Python create_sdf_string function

 30 33  0  0  0  0  0  0  0  0999 V2000
    8.3036    9.8571   18.4133 C   0  0  0  0  0  0  0  0  0  0  0  0
    8.3694    7.6612   22.6703 C   0  0  0  0  0  0  0  0  0  0  0  0
    8.4143    6.6863   16.2273 C   0  0  0  0  0  0  0  0  0  0  0  0
   10.7581    6.5674   21.7636 C   0  0  0  0  0  0  0  0  0  0  0  0
    8.4452    8.7960   19.2958 O   0  0  0  0  0  0  0  0  0  0  0  0
    8.7122    6.7842   24.8569 C   0  0  0  0  0  0  0  0  0  0  0  0
   10.3400    6.1726   14.3081 C   0  0  0  0  0  0  0  0  0  0  0  0
    7.4297    7.5873   24.8962 C   0  0  0  0  0  0  0  0  0  0  0  0
    8.1566   10.0536   16.0516 O   0  0  0  0  0  0  0  0  0  0  0  0
   12.4989    6.2074   20.1776 C   0  0  0  0  0  0  0  0  0  0  0  0
    6.9192    9.1053   20.9073 O   0  0  0  0  0  0  0  0  0  0  0  0
   14.3979    6.0729   18.7784 C   0  0  0  0  0  0  0  0  0  0  0  0
    8.6811    9.5354   16.9998 C   0  0  0  0  0  0  0  0  0  0  0  0
    9.2512    4.2713   13.7653 O   0  0  0  0  0  0  0  0  0  0  0  0
    9.6495    8.6317   16.8332 N   0  0  0  0  0  0  0  0  0  0  0  0
    6.2934    8.6988   23.1988 O   0  0  0  0  0  0  0  0  0  0  0  0
    7.9806    8.6543   20.5437 C   0  0  0  0  0  0  0  0  0  0  0  0
   13.7270    5.7144   19.8610 O   0  0  0  0  0  0  0  0  0  0  0  0
    8.3351    5.5235   15.4478 C   0  0  0  0  0  0  0  0  0  0  0  0
    8.7700    7.8434   21.3915 C   0  0  0  0  0  0  0  0  0  0  0  0
   11.7856    6.8851   19.2401 C   0  0  0  0  0  0  0  0  0  0  0  0
   10.5281    7.4276   19.5649 C   0  0  0  0  0  0  0  0  0  0  0  0
   10.0256    7.2907   20.8484 C   0  0  0  0  0  0  0  0  0  0  0  0
    9.3113    5.3049   14.4911 C   0  0  0  0  0  0  0  0  0  0  0  0
    9.4607    7.5646   16.0139 C   0  0  0  0  0  0  0  0  0  0  0  0
   10.4192    7.3157   15.0955 C   0  0  0  0  0  0  0  0  0  0  0  0
   10.2489    6.4227   23.0218 N   0  0  0  0  0  0  0  0  0  0  0  0
    7.2472    8.0746   23.5050 C   0  0  0  0  0  0  0  0  0  0  0  0
    9.2051    6.9101   23.4604 C   0  0  0  0  0  0  0  0  0  0  0  0
   11.9646    6.0299   21.4251 C   0  0  0  0  0  0  0  0  0  0  0  0
  1  5  1  0
  1 13  1  0
  2 20  2  0
  2 28  1  0
  2 29  1  0
  3 19  4  0
  3 25  4  0
  4 23  4  0
  4 27  1  0
  4 30  4  0
  5 17  1  0
  6  8  1  0
  6 29  1  0
  7 24  4  0
  7 26  4  0
  8 28  1  0
  9 13  2  0
 10 18  1  0
 10 21  4  0
 10 30  4  0
 11 17  2  0
 12 18  1  0
 13 15  1  0
 14 24  1  0
 15 25  1  0
 16 28  2  0
 17 20  1  0
 19 24  4  0
 20 23  1  0
 21 22  4  0
 22 23  4  0
 25 26  4  0
 27 29  2  0
M  END
$$$$

 Created by Python create_sdf_string function

 30 33  0  0  0  0  0  0  0  0999 V2000
    8.3036    9.8571   18.4133 C   0  0  0  0  0  0  0  0  0  0  0  0
    8.3694    7.6612   22.6703 C   0  0  0  0  0  0  0  0  0  0  0  0
    8.4143    6.6863   16.2273 C   0  0  0  0  0  0  0  0  0  0  0  0
   10.7581    6.5674   21.7636 C   0  0  0  0  0  0  0  0  0  0  0  0
    8.4452    8.7960   19.2958 O   0  0  0  0  0  0  0  0  0  0  0  0
    8.7122    6.7842   24.8569 C   0  0  0  0  0  0  0  0  0  0  0  0
   10.3400    6.1726   14.3081 C   0  0  0  0  0  0  0  0  0  0  0  0
    7.4297    7.5873   24.8962 C   0  0  0  0  0  0  0  0  0  0  0  0
    8.1566   10.0536   16.0516 O   0  0  0  0  0  0  0  0  0  0  0  0
   12.4989    6.2074   20.1776 C   0  0  0  0  0  0  0  0  0  0  0  0
    6.9192    9.1053   20.9073 O   0  0  0  0  0  0  0  0  0  0  0  0
   14.3979    6.0729   18.7784 C   0  0  0  0  0  0  0  0  0  0  0  0
    8.6811    9.5354   16.9998 C   0  0  0  0  0  0  0  0  0  0  0  0
    9.2512    4.2713   13.7653 O   0  0  0  0  0  0  0  0  0  0  0  0
    9.6495    8.6317   16.8332 N   0  0  0  0  0  0  0  0  0  0  0  0
    6.2934    8.6988   23.1988 O   0  0  0  0  0  0  0  0  0  0  0  0
    7.9806    8.6543   20.5437 C   0  0  0  0  0  0  0  0  0  0  0  0
   13.7270    5.7144   19.8610 O   0  0  0  0  0  0  0  0  0  0  0  0
    8.3351    5.5235   15.4478 C   0  0  0  0  0  0  0  0  0  0  0  0
    8.7700    7.8434   21.3915 C   0  0  0  0  0  0  0  0  0  0  0  0
   11.7856    6.8851   19.2401 C   0  0  0  0  0  0  0  0  0  0  0  0
   10.5281    7.4276   19.5649 C   0  0  0  0  0  0  0  0  0  0  0  0
   10.0256    7.2907   20.8484 C   0  0  0  0  0  0  0  0  0  0  0  0
    9.3113    5.3049   14.4911 C   0  0  0  0  0  0  0  0  0  0  0  0
    9.4607    7.5646   16.0139 C   0  0  0  0  0  0  0  0  0  0  0  0
   10.4192    7.3157   15.0955 C   0  0  0  0  0  0  0  0  0  0  0  0
   10.2489    6.4227   23.0218 N   0  0  0  0  0  0  0  0  0  0  0  0
    7.2472    8.0746   23.5050 C   0  0  0  0  0  0  0  0  0  0  0  0
    9.2051    6.9101   23.4604 C   0  0  0  0  0  0  0  0  0  0  0  0
   11.9646    6.0299   21.4251 C   0  0  0  0  0  0  0  0  0  0  0  0
  1  5  1  0
  1 13  1  0
  2 20  2  0
  2 28  1  0
  2 29  1  0
  3 19  4  0
  3 25  4  0
  4 23  4  0
  4 27  1  0
  4 30  4  0
  5 17  1  0
  6  8  1  0
  6 29  1  0
  7 24  4  0
  7 26  4  0
  8 28  1  0
  9 13  2  0
 10 18  1  0
 10 21  4  0
 10 30  4  0
 11 17  2  0
 12 18  1  0
 13 15  1  0
 14 24  1  0
 15 25  1  0
 16 28  2  0
 17 20  1  0
 19 24  4  0
 20 23  1  0
 21 22  4  0
 22 23  4  0
 25 26  4  0
 27 29  2  0
M  END
$$$$

 Created by Python create_sdf_string function

 30 33  0  0  0  0  0  0  0  0999 V2000
    8.3036    9.8571   18.4133 C   0  0  0  0  0  0  0  0  0  0  0  0
    8.3694    7.6612   22.6703 C   0  0  0  0  0  0  0  0  0  0  0  0
    8.4143    6.6863   16.2273 C   0  0  0  0  0  0  0  0  0  0  0  0
   10.7581    6.5674   21.7636 C   0  0  0  0  0  0  0  0  0  0  0  0
    8.4452    8.7960   19.2958 O   0  0  0  0  0  0  0  0  0  0  0  0
    8.7122    6.7842   24.8569 C   0  0  0  0  0  0  0  0  0  0  0  0
   10.3400    6.1726   14.3081 C   0  0  0  0  0  0  0  0  0  0  0  0
    7.4297    7.5873   24.8962 C   0  0  0  0  0  0  0  0  0  0  0  0
    8.1566   10.0536   16.0516 O   0  0  0  0  0  0  0  0  0  0  0  0
   12.4989    6.2074   20.1776 C   0  0  0  0  0  0  0  0  0  0  0  0
    6.9192    9.1053   20.9073 O   0  0  0  0  0  0  0  0  0  0  0  0
   14.3979    6.0729   18.7784 C   0  0  0  0  0  0  0  0  0  0  0  0
    8.6811    9.5354   16.9998 C   0  0  0  0  0  0  0  0  0  0  0  0
    9.2512    4.2713   13.7653 O   0  0  0  0  0  0  0  0  0  0  0  0
    9.6495    8.6317   16.8332 N   0  0  0  0  0  0  0  0  0  0  0  0
    6.2934    8.6988   23.1988 O   0  0  0  0  0  0  0  0  0  0  0  0
    7.9806    8.6543   20.5437 C   0  0  0  0  0  0  0  0  0  0  0  0
   13.7270    5.7144   19.8610 O   0  0  0  0  0  0  0  0  0  0  0  0
    8.3351    5.5235   15.4478 C   0  0  0  0  0  0  0  0  0  0  0  0
    8.7700    7.8434   21.3915 C   0  0  0  0  0  0  0  0  0  0  0  0
   11.7856    6.8851   19.2401 C   0  0  0  0  0  0  0  0  0  0  0  0
   10.5281    7.4276   19.5649 C   0  0  0  0  0  0  0  0  0  0  0  0
   10.0256    7.2907   20.8484 C   0  0  0  0  0  0  0  0  0  0  0  0
    9.3113    5.3049   14.4911 C   0  0  0  0  0  0  0  0  0  0  0  0
    9.4607    7.5646   16.0139 C   0  0  0  0  0  0  0  0  0  0  0  0
   10.4192    7.3157   15.0955 C   0  0  0  0  0  0  0  0  0  0  0  0
   10.2489    6.4227   23.0218 N   0  0  0  0  0  0  0  0  0  0  0  0
    7.2472    8.0746   23.5050 C   0  0  0  0  0  0  0  0  0  0  0  0
    9.2051    6.9101   23.4604 C   0  0  0  0  0  0  0  0  0  0  0  0
   11.9646    6.0299   21.4251 C   0  0  0  0  0  0  0  0  0  0  0  0
  1  5  1  0
  1 13  1  0
  2 20  2  0
  2 28  1  0
  2 29  1  0
  3 19  4  0
  3 25  4  0
  4 23  4  0
  4 27  1  0
  4 30  4  0
  5 17  1  0
  6  8  1  0
  6 29  1  0
  7 24  4  0
  7 26  4  0
  8 28  1  0
  9 13  2  0
 10 18  1  0
 10 21  4  0
 10 30  4  0
 11 17  2  0
 12 18  1  0
 13 15  1  0
 14 24  1  0
 15 25  1  0
 16 28  2  0
 17 20  1  0
 19 24  4  0
 20 23  1  0
 21 22  4  0
 22 23  4  0
 25 26  4  0
 27 29  2  0
M  END
$$$$

 Created by Python create_sdf_string function

 30 33  0  0  0  0  0  0  0  0999 V2000
    8.3036    9.8571   18.4133 C   0  0  0  0  0  0  0  0  0  0  0  0
    8.3694    7.6612   22.6703 C   0  0  0  0  0  0  0  0  0  0  0  0
    8.4143    6.6863   16.2273 C   0  0  0  0  0  0  0  0  0  0  0  0
   10.7581    6.5674   21.7636 C   0  0  0  0  0  0  0  0  0  0  0  0
    8.4452    8.7960   19.2958 O   0  0  0  0  0  0  0  0  0  0  0  0
    8.7122    6.7842   24.8569 C   0  0  0  0  0  0  0  0  0  0  0  0
   10.3400    6.1726   14.3081 C   0  0  0  0  0  0  0  0  0  0  0  0
    7.4297    7.5873   24.8962 C   0  0  0  0  0  0  0  0  0  0  0  0
    8.1566   10.0536   16.0516 O   0  0  0  0  0  0  0  0  0  0  0  0
   12.4989    6.2074   20.1776 C   0  0  0  0  0  0  0  0  0  0  0  0
    6.9192    9.1053   20.9073 O   0  0  0  0  0  0  0  0  0  0  0  0
   14.3979    6.0729   18.7784 C   0  0  0  0  0  0  0  0  0  0  0  0
    8.6811    9.5354   16.9998 C   0  0  0  0  0  0  0  0  0  0  0  0
    9.2512    4.2713   13.7653 O   0  0  0  0  0  0  0  0  0  0  0  0
    9.6495    8.6317   16.8332 N   0  0  0  0  0  0  0  0  0  0  0  0
    6.2934    8.6988   23.1988 O   0  0  0  0  0  0  0  0  0  0  0  0
    7.9806    8.6543   20.5437 C   0  0  0  0  0  0  0  0  0  0  0  0
   13.7270    5.7144   19.8610 O   0  0  0  0  0  0  0  0  0  0  0  0
    8.3351    5.5235   15.4478 C   0  0  0  0  0  0  0  0  0  0  0  0
    8.7700    7.8434   21.3915 C   0  0  0  0  0  0  0  0  0  0  0  0
   11.7856    6.8851   19.2401 C   0  0  0  0  0  0  0  0  0  0  0  0
   10.5281    7.4276   19.5649 C   0  0  0  0  0  0  0  0  0  0  0  0
   10.0256    7.2907   20.8484 C   0  0  0  0  0  0  0  0  0  0  0  0
    9.3113    5.3049   14.4911 C   0  0  0  0  0  0  0  0  0  0  0  0
    9.4607    7.5646   16.0139 C   0  0  0  0  0  0  0  0  0  0  0  0
   10.4192    7.3157   15.0955 C   0  0  0  0  0  0  0  0  0  0  0  0
   10.2489    6.4227   23.0218 N   0  0  0  0  0  0  0  0  0  0  0  0
    7.2472    8.0746   23.5050 C   0  0  0  0  0  0  0  0  0  0  0  0
    9.2051    6.9101   23.4604 C   0  0  0  0  0  0  0  0  0  0  0  0
   11.9646    6.0299   21.4251 C   0  0  0  0  0  0  0  0  0  0  0  0
  1  5  1  0
  1 13  1  0
  2 20  2  0
  2 28  1  0
  2 29  1  0
  3 19  4  0
  3 25  4  0
  4 23  4  0
  4 27  1  0
  4 30  4  0
  5 17  1  0
  6  8  1  0
  6 29  1  0
  7 24  4  0
  7 26  4  0
  8 28  1  0
  9 13  2  0
 10 18  1  0
 10 21  4  0
 10 30  4  0
 11 17  2  0
 12 18  1  0
 13 15  1  0
 14 24  1  0
 15 25  1  0
 16 28  2  0
 17 20  1  0
 19 24  4  0
 20 23  1  0
 21 22  4  0
 22 23  4  0
 25 26  4  0
 27 29  2  0
M  END
$$$$

 Created by Python create_sdf_string function

 30 33  0  0  0  0  0  0  0  0999 V2000
    8.3036    9.8571   18.4133 C   0  0  0  0  0  0  0  0  0  0  0  0
    8.3694    7.6612   22.6703 C   0  0  0  0  0  0  0  0  0  0  0  0
    8.4143    6.6863   16.2273 C   0  0  0  0  0  0  0  0  0  0  0  0
   10.7581    6.5674   21.7636 C   0  0  0  0  0  0  0  0  0  0  0  0
    8.4452    8.7960   19.2958 O   0  0  0  0  0  0  0  0  0  0  0  0
    8.7122    6.7842   24.8569 C   0  0  0  0  0  0  0  0  0  0  0  0
   10.3400    6.1726   14.3081 C   0  0  0  0  0  0  0  0  0  0  0  0
    7.4297    7.5873   24.8962 C   0  0  0  0  0  0  0  0  0  0  0  0
    8.1566   10.0536   16.0516 O   0  0  0  0  0  0  0  0  0  0  0  0
   12.4989    6.2074   20.1776 C   0  0  0  0  0  0  0  0  0  0  0  0
    6.9192    9.1053   20.9073 O   0  0  0  0  0  0  0  0  0  0  0  0
   14.3979    6.0729   18.7784 C   0  0  0  0  0  0  0  0  0  0  0  0
    8.6811    9.5354   16.9998 C   0  0  0  0  0  0  0  0  0  0  0  0
    9.2512    4.2713   13.7653 O   0  0  0  0  0  0  0  0  0  0  0  0
    9.6495    8.6317   16.8332 N   0  0  0  0  0  0  0  0  0  0  0  0
    6.2934    8.6988   23.1988 O   0  0  0  0  0  0  0  0  0  0  0  0
    7.9806    8.6543   20.5437 C   0  0  0  0  0  0  0  0  0  0  0  0
   13.7270    5.7144   19.8610 O   0  0  0  0  0  0  0  0  0  0  0  0
    8.3351    5.5235   15.4478 C   0  0  0  0  0  0  0  0  0  0  0  0
    8.7700    7.8434   21.3915 C   0  0  0  0  0  0  0  0  0  0  0  0
   11.7856    6.8851   19.2401 C   0  0  0  0  0  0  0  0  0  0  0  0
   10.5281    7.4276   19.5649 C   0  0  0  0  0  0  0  0  0  0  0  0
   10.0256    7.2907   20.8484 C   0  0  0  0  0  0  0  0  0  0  0  0
    9.3113    5.3049   14.4911 C   0  0  0  0  0  0  0  0  0  0  0  0
    9.4607    7.5646   16.0139 C   0  0  0  0  0  0  0  0  0  0  0  0
   10.4192    7.3157   15.0955 C   0  0  0  0  0  0  0  0  0  0  0  0
   10.2489    6.4227   23.0218 N   0  0  0  0  0  0  0  0  0  0  0  0
    7.2472    8.0746   23.5050 C   0  0  0  0  0  0  0  0  0  0  0  0
    9.2051    6.9101   23.4604 C   0  0  0  0  0  0  0  0  0  0  0  0
   11.9646    6.0299   21.4251 C   0  0  0  0  0  0  0  0  0  0  0  0
  1  5  1  0
  1 13  1  0
  2 20  2  0
  2 28  1  0
  2 29  1  0
  3 19  4  0
  3 25  4  0
  4 23  4  0
  4 27  1  0
  4 30  4  0
  5 17  1  0
  6  8  1  0
  6 29  1  0
  7 24  4  0
  7 26  4  0
  8 28  1  0
  9 13  2  0
 10 18  1  0
 10 21  4  0
 10 30  4  0
 11 17  2  0
 12 18  1  0
 13 15  1  0
 14 24  1  0
 15 25  1  0
 16 28  2  0
 17 20  1  0
 19 24  4  0
 20 23  1  0
 21 22  4  0
 22 23  4  0
 25 26  4  0
 27 29  2  0
M  END
$$$$

 Created by Python create_sdf_string function

 30 33  0  0  0  0  0  0  0  0999 V2000
    8.3036    9.8571   18.4133 C   0  0  0  0  0  0  0  0  0  0  0  0
    8.3694    7.6612   22.6703 C   0  0  0  0  0  0  0  0  0  0  0  0
    8.4143    6.6863   16.2273 C   0  0  0  0  0  0  0  0  0  0  0  0
   10.7581    6.5674   21.7636 C   0  0  0  0  0  0  0  0  0  0  0  0
    8.4452    8.7960   19.2958 O   0  0  0  0  0  0  0  0  0  0  0  0
    8.7122    6.7842   24.8569 C   0  0  0  0  0  0  0  0  0  0  0  0
   10.3400    6.1726   14.3081 C   0  0  0  0  0  0  0  0  0  0  0  0
    7.4297    7.5873   24.8962 C   0  0  0  0  0  0  0  0  0  0  0  0
    8.1566   10.0536   16.0516 O   0  0  0  0  0  0  0  0  0  0  0  0
   12.4989    6.2074   20.1776 C   0  0  0  0  0  0  0  0  0  0  0  0
    6.9192    9.1053   20.9073 O   0  0  0  0  0  0  0  0  0  0  0  0
   14.3979    6.0729   18.7784 C   0  0  0  0  0  0  0  0  0  0  0  0
    8.6811    9.5354   16.9998 C   0  0  0  0  0  0  0  0  0  0  0  0
    9.2512    4.2713   13.7653 O   0  0  0  0  0  0  0  0  0  0  0  0
    9.6495    8.6317   16.8332 N   0  0  0  0  0  0  0  0  0  0  0  0
    6.2934    8.6988   23.1988 O   0  0  0  0  0  0  0  0  0  0  0  0
    7.9806    8.6543   20.5437 C   0  0  0  0  0  0  0  0  0  0  0  0
   13.7270    5.7144   19.8610 O   0  0  0  0  0  0  0  0  0  0  0  0
    8.3351    5.5235   15.4478 C   0  0  0  0  0  0  0  0  0  0  0  0
    8.7700    7.8434   21.3915 C   0  0  0  0  0  0  0  0  0  0  0  0
   11.7856    6.8851   19.2401 C   0  0  0  0  0  0  0  0  0  0  0  0
   10.5281    7.4276   19.5649 C   0  0  0  0  0  0  0  0  0  0  0  0
   10.0256    7.2907   20.8484 C   0  0  0  0  0  0  0  0  0  0  0  0
    9.3113    5.3049   14.4911 C   0  0  0  0  0  0  0  0  0  0  0  0
    9.4607    7.5646   16.0139 C   0  0  0  0  0  0  0  0  0  0  0  0
   10.4192    7.3157   15.0955 C   0  0  0  0  0  0  0  0  0  0  0  0
   10.2489    6.4227   23.0218 N   0  0  0  0  0  0  0  0  0  0  0  0
    7.2472    8.0746   23.5050 C   0  0  0  0  0  0  0  0  0  0  0  0
    9.2051    6.9101   23.4604 C   0  0  0  0  0  0  0  0  0  0  0  0
   11.9646    6.0299   21.4251 C   0  0  0  0  0  0  0  0  0  0  0  0
  1  5  1  0
  1 13  1  0
  2 20  2  0
  2 28  1  0
  2 29  1  0
  3 19  4  0
  3 25  4  0
  4 23  4  0
  4 27  1  0
  4 30  4  0
  5 17  1  0
  6  8  1  0
  6 29  1  0
  7 24  4  0
  7 26  4  0
  8 28  1  0
  9 13  2  0
 10 18  1  0
 10 21  4  0
 10 30  4  0
 11 17  2  0
 12 18  1  0
 13 15  1  0
 14 24  1  0
 15 25  1  0
 16 28  2  0
 17 20  1  0
 19 24  4  0
 20 23  1  0
 21 22  4  0
 22 23  4  0
 25 26  4  0
 27 29  2  0
M  END
$$$$

 Created by Python create_sdf_string function

 30 33  0  0  0  0  0  0  0  0999 V2000
    8.3036    9.8571   18.4133 C   0  0  0  0  0  0  0  0  0  0  0  0
    8.3694    7.6612   22.6703 C   0  0  0  0  0  0  0  0  0  0  0  0
    8.4143    6.6863   16.2273 C   0  0  0  0  0  0  0  0  0  0  0  0
   10.7581    6.5674   21.7636 C   0  0  0  0  0  0  0  0  0  0  0  0
    8.4452    8.7960   19.2958 O   0  0  0  0  0  0  0  0  0  0  0  0
    8.7122    6.7842   24.8569 C   0  0  0  0  0  0  0  0  0  0  0  0
   10.3400    6.1726   14.3081 C   0  0  0  0  0  0  0  0  0  0  0  0
    7.4297    7.5873   24.8962 C   0  0  0  0  0  0  0  0  0  0  0  0
    8.1566   10.0536   16.0516 O   0  0  0  0  0  0  0  0  0  0  0  0
   12.4989    6.2074   20.1776 C   0  0  0  0  0  0  0  0  0  0  0  0
    6.9192    9.1053   20.9073 O   0  0  0  0  0  0  0  0  0  0  0  0
   14.3979    6.0729   18.7784 C   0  0  0  0  0  0  0  0  0  0  0  0
    8.6811    9.5354   16.9998 C   0  0  0  0  0  0  0  0  0  0  0  0
    9.2512    4.2713   13.7653 O   0  0  0  0  0  0  0  0  0  0  0  0
    9.6495    8.6317   16.8332 N   0  0  0  0  0  0  0  0  0  0  0  0
    6.2934    8.6988   23.1988 O   0  0  0  0  0  0  0  0  0  0  0  0
    7.9806    8.6543   20.5437 C   0  0  0  0  0  0  0  0  0  0  0  0
   13.7270    5.7144   19.8610 O   0  0  0  0  0  0  0  0  0  0  0  0
    8.3351    5.5235   15.4478 C   0  0  0  0  0  0  0  0  0  0  0  0
    8.7700    7.8434   21.3915 C   0  0  0  0  0  0  0  0  0  0  0  0
   11.7856    6.8851   19.2401 C   0  0  0  0  0  0  0  0  0  0  0  0
   10.5281    7.4276   19.5649 C   0  0  0  0  0  0  0  0  0  0  0  0
   10.0256    7.2907   20.8484 C   0  0  0  0  0  0  0  0  0  0  0  0
    9.3113    5.3049   14.4911 C   0  0  0  0  0  0  0  0  0  0  0  0
    9.4607    7.5646   16.0139 C   0  0  0  0  0  0  0  0  0  0  0  0
   10.4192    7.3157   15.0955 C   0  0  0  0  0  0  0  0  0  0  0  0
   10.2489    6.4227   23.0218 N   0  0  0  0  0  0  0  0  0  0  0  0
    7.2472    8.0746   23.5050 C   0  0  0  0  0  0  0  0  0  0  0  0
    9.2051    6.9101   23.4604 C   0  0  0  0  0  0  0  0  0  0  0  0
   11.9646    6.0299   21.4251 C   0  0  0  0  0  0  0  0  0  0  0  0
  1  5  1  0
  1 13  1  0
  2 20  2  0
  2 28  1  0
  2 29  1  0
  3 19  4  0
  3 25  4  0
  4 23  4  0
  4 27  1  0
  4 30  4  0
  5 17  1  0
  6  8  1  0
  6 29  1  0
  7 24  4  0
  7 26  4  0
  8 28  1  0
  9 13  2  0
 10 18  1  0
 10 21  4  0
 10 30  4  0
 11 17  2  0
 12 18  1  0
 13 15  1  0
 14 24  1  0
 15 25  1  0
 16 28  2  0
 17 20  1  0
 19 24  4  0
 20 23  1  0
 21 22  4  0
 22 23  4  0
 25 26  4  0
 27 29  2  0
M  END
$$$$

 Created by Python create_sdf_string function

 30 33  0  0  0  0  0  0  0  0999 V2000
    8.3036    9.8571   18.4133 C   0  0  0  0  0  0  0  0  0  0  0  0
    8.3694    7.6612   22.6703 C   0  0  0  0  0  0  0  0  0  0  0  0
    8.4143    6.6863   16.2273 C   0  0  0  0  0  0  0  0  0  0  0  0
   10.7581    6.5674   21.7636 C   0  0  0  0  0  0  0  0  0  0  0  0
    8.4452    8.7960   19.2958 O   0  0  0  0  0  0  0  0  0  0  0  0
    8.7122    6.7842   24.8569 C   0  0  0  0  0  0  0  0  0  0  0  0
   10.3400    6.1726   14.3081 C   0  0  0  0  0  0  0  0  0  0  0  0
    7.4297    7.5873   24.8962 C   0  0  0  0  0  0  0  0  0  0  0  0
    8.1566   10.0536   16.0516 O   0  0  0  0  0  0  0  0  0  0  0  0
   12.4989    6.2074   20.1776 C   0  0  0  0  0  0  0  0  0  0  0  0
    6.9192    9.1053   20.9073 O   0  0  0  0  0  0  0  0  0  0  0  0
   14.3979    6.0729   18.7784 C   0  0  0  0  0  0  0  0  0  0  0  0
    8.6811    9.5354   16.9998 C   0  0  0  0  0  0  0  0  0  0  0  0
    9.2512    4.2713   13.7653 O   0  0  0  0  0  0  0  0  0  0  0  0
    9.6495    8.6317   16.8332 N   0  0  0  0  0  0  0  0  0  0  0  0
    6.2934    8.6988   23.1988 O   0  0  0  0  0  0  0  0  0  0  0  0
    7.9806    8.6543   20.5437 C   0  0  0  0  0  0  0  0  0  0  0  0
   13.7270    5.7144   19.8610 O   0  0  0  0  0  0  0  0  0  0  0  0
    8.3351    5.5235   15.4478 C   0  0  0  0  0  0  0  0  0  0  0  0
    8.7700    7.8434   21.3915 C   0  0  0  0  0  0  0  0  0  0  0  0
   11.7856    6.8851   19.2401 C   0  0  0  0  0  0  0  0  0  0  0  0
   10.5281    7.4276   19.5649 C   0  0  0  0  0  0  0  0  0  0  0  0
   10.0256    7.2907   20.8484 C   0  0  0  0  0  0  0  0  0  0  0  0
    9.3113    5.3049   14.4911 C   0  0  0  0  0  0  0  0  0  0  0  0
    9.4607    7.5646   16.0139 C   0  0  0  0  0  0  0  0  0  0  0  0
   10.4192    7.3157   15.0955 C   0  0  0  0  0  0  0  0  0  0  0  0
   10.2489    6.4227   23.0218 N   0  0  0  0  0  0  0  0  0  0  0  0
    7.2472    8.0746   23.5050 C   0  0  0  0  0  0  0  0  0  0  0  0
    9.2051    6.9101   23.4604 C   0  0  0  0  0  0  0  0  0  0  0  0
   11.9646    6.0299   21.4251 C   0  0  0  0  0  0  0  0  0  0  0  0
  1  5  1  0
  1 13  1  0
  2 20  2  0
  2 28  1  0
  2 29  1  0
  3 19  4  0
  3 25  4  0
  4 23  4  0
  4 27  1  0
  4 30  4  0
  5 17  1  0
  6  8  1  0
  6 29  1  0
  7 24  4  0
  7 26  4  0
  8 28  1  0
  9 13  2  0
 10 18  1  0
 10 21  4  0
 10 30  4  0
 11 17  2  0
 12 18  1  0
 13 15  1  0
 14 24  1  0
 15 25  1  0
 16 28  2  0
 17 20  1  0
 19 24  4  0
 20 23  1  0
 21 22  4  0
 22 23  4  0
 25 26  4  0
 27 29  2  0
M  END
$$$$

 Created by Python create_sdf_string function

 30 33  0  0  0  0  0  0  0  0999 V2000
    8.3036    9.8571   18.4133 C   0  0  0  0  0  0  0  0  0  0  0  0
    8.3694    7.6612   22.6703 C   0  0  0  0  0  0  0  0  0  0  0  0
    8.4143    6.6863   16.2273 C   0  0  0  0  0  0  0  0  0  0  0  0
   10.7581    6.5674   21.7636 C   0  0  0  0  0  0  0  0  0  0  0  0
    8.4452    8.7960   19.2958 O   0  0  0  0  0  0  0  0  0  0  0  0
    8.7122    6.7842   24.8569 C   0  0  0  0  0  0  0  0  0  0  0  0
   10.3400    6.1726   14.3081 C   0  0  0  0  0  0  0  0  0  0  0  0
    7.4297    7.5873   24.8962 C   0  0  0  0  0  0  0  0  0  0  0  0
    8.1566   10.0536   16.0516 O   0  0  0  0  0  0  0  0  0  0  0  0
   12.4989    6.2074   20.1776 C   0  0  0  0  0  0  0  0  0  0  0  0
    6.9192    9.1053   20.9073 O   0  0  0  0  0  0  0  0  0  0  0  0
   14.3979    6.0729   18.7784 C   0  0  0  0  0  0  0  0  0  0  0  0
    8.6811    9.5354   16.9998 C   0  0  0  0  0  0  0  0  0  0  0  0
    9.2512    4.2713   13.7653 O   0  0  0  0  0  0  0  0  0  0  0  0
    9.6495    8.6317   16.8332 N   0  0  0  0  0  0  0  0  0  0  0  0
    6.2934    8.6988   23.1988 O   0  0  0  0  0  0  0  0  0  0  0  0
    7.9806    8.6543   20.5437 C   0  0  0  0  0  0  0  0  0  0  0  0
   13.7270    5.7144   19.8610 O   0  0  0  0  0  0  0  0  0  0  0  0
    8.3351    5.5235   15.4478 C   0  0  0  0  0  0  0  0  0  0  0  0
    8.7700    7.8434   21.3915 C   0  0  0  0  0  0  0  0  0  0  0  0
   11.7856    6.8851   19.2401 C   0  0  0  0  0  0  0  0  0  0  0  0
   10.5281    7.4276   19.5649 C   0  0  0  0  0  0  0  0  0  0  0  0
   10.0256    7.2907   20.8484 C   0  0  0  0  0  0  0  0  0  0  0  0
    9.3113    5.3049   14.4911 C   0  0  0  0  0  0  0  0  0  0  0  0
    9.4607    7.5646   16.0139 C   0  0  0  0  0  0  0  0  0  0  0  0
   10.4192    7.3157   15.0955 C   0  0  0  0  0  0  0  0  0  0  0  0
   10.2489    6.4227   23.0218 N   0  0  0  0  0  0  0  0  0  0  0  0
    7.2472    8.0746   23.5050 C   0  0  0  0  0  0  0  0  0  0  0  0
    9.2051    6.9101   23.4604 C   0  0  0  0  0  0  0  0  0  0  0  0
   11.9646    6.0299   21.4251 C   0  0  0  0  0  0  0  0  0  0  0  0
  1  5  1  0
  1 13  1  0
  2 20  2  0
  2 28  1  0
  2 29  1  0
  3 19  4  0
  3 25  4  0
  4 23  4  0
  4 27  1  0
  4 30  4  0
  5 17  1  0
  6  8  1  0
  6 29  1  0
  7 24  4  0
  7 26  4  0
  8 28  1  0
  9 13  2  0
 10 18  1  0
 10 21  4  0
 10 30  4  0
 11 17  2  0
 12 18  1  0
 13 15  1  0
 14 24  1  0
 15 25  1  0
 16 28  2  0
 17 20  1  0
 19 24  4  0
 20 23  1  0
 21 22  4  0
 22 23  4  0
 25 26  4  0
 27 29  2  0
M  END
$$$$

 Created by Python create_sdf_string function

 30 33  0  0  0  0  0  0  0  0999 V2000
    8.3036    9.8571   18.4133 C   0  0  0  0  0  0  0  0  0  0  0  0
    8.3694    7.6612   22.6703 C   0  0  0  0  0  0  0  0  0  0  0  0
    8.4143    6.6863   16.2273 C   0  0  0  0  0  0  0  0  0  0  0  0
   10.7581    6.5674   21.7636 C   0  0  0  0  0  0  0  0  0  0  0  0
    8.4452    8.7960   19.2958 O   0  0  0  0  0  0  0  0  0  0  0  0
    8.7122    6.7842   24.8569 C   0  0  0  0  0  0  0  0  0  0  0  0
   10.3400    6.1726   14.3081 C   0  0  0  0  0  0  0  0  0  0  0  0
    7.4297    7.5873   24.8962 C   0  0  0  0  0  0  0  0  0  0  0  0
    8.1566   10.0536   16.0516 O   0  0  0  0  0  0  0  0  0  0  0  0
   12.4989    6.2074   20.1776 C   0  0  0  0  0  0  0  0  0  0  0  0
    6.9192    9.1053   20.9073 O   0  0  0  0  0  0  0  0  0  0  0  0
   14.3979    6.0729   18.7784 C   0  0  0  0  0  0  0  0  0  0  0  0
    8.6811    9.5354   16.9998 C   0  0  0  0  0  0  0  0  0  0  0  0
    9.2512    4.2713   13.7653 O   0  0  0  0  0  0  0  0  0  0  0  0
    9.6495    8.6317   16.8332 N   0  0  0  0  0  0  0  0  0  0  0  0
    6.2934    8.6988   23.1988 O   0  0  0  0  0  0  0  0  0  0  0  0
    7.9806    8.6543   20.5437 C   0  0  0  0  0  0  0  0  0  0  0  0
   13.7270    5.7144   19.8610 O   0  0  0  0  0  0  0  0  0  0  0  0
    8.3351    5.5235   15.4478 C   0  0  0  0  0  0  0  0  0  0  0  0
    8.7700    7.8434   21.3915 C   0  0  0  0  0  0  0  0  0  0  0  0
   11.7856    6.8851   19.2401 C   0  0  0  0  0  0  0  0  0  0  0  0
   10.5281    7.4276   19.5649 C   0  0  0  0  0  0  0  0  0  0  0  0
   10.0256    7.2907   20.8484 C   0  0  0  0  0  0  0  0  0  0  0  0
    9.3113    5.3049   14.4911 C   0  0  0  0  0  0  0  0  0  0  0  0
    9.4607    7.5646   16.0139 C   0  0  0  0  0  0  0  0  0  0  0  0
   10.4192    7.3157   15.0955 C   0  0  0  0  0  0  0  0  0  0  0  0
   10.2489    6.4227   23.0218 N   0  0  0  0  0  0  0  0  0  0  0  0
    7.2472    8.0746   23.5050 C   0  0  0  0  0  0  0  0  0  0  0  0
    9.2051    6.9101   23.4604 C   0  0  0  0  0  0  0  0  0  0  0  0
   11.9646    6.0299   21.4251 C   0  0  0  0  0  0  0  0  0  0  0  0
  1  5  1  0
  1 13  1  0
  2 20  2  0
  2 28  1  0
  2 29  1  0
  3 19  4  0
  3 25  4  0
  4 23  4  0
  4 27  1  0
  4 30  4  0
  5 17  1  0
  6  8  1  0
  6 29  1  0
  7 24  4  0
  7 26  4  0
  8 28  1  0
  9 13  2  0
 10 18  1  0
 10 21  4  0
 10 30  4  0
 11 17  2  0
 12 18  1  0
 13 15  1  0
 14 24  1  0
 15 25  1  0
 16 28  2  0
 17 20  1  0
 19 24  4  0
 20 23  1  0
 21 22  4  0
 22 23  4  0
 25 26  4  0
 27 29  2  0
M  END
$$$$

 Created by Python create_sdf_string function

 30 33  0  0  0  0  0  0  0  0999 V2000
    8.3036    9.8571   18.4133 C   0  0  0  0  0  0  0  0  0  0  0  0
    8.3694    7.6612   22.6703 C   0  0  0  0  0  0  0  0  0  0  0  0
    8.4143    6.6863   16.2273 C   0  0  0  0  0  0  0  0  0  0  0  0
   10.7581    6.5674   21.7636 C   0  0  0  0  0  0  0  0  0  0  0  0
    8.4452    8.7960   19.2958 O   0  0  0  0  0  0  0  0  0  0  0  0
    8.7122    6.7842   24.8569 C   0  0  0  0  0  0  0  0  0  0  0  0
   10.3400    6.1726   14.3081 C   0  0  0  0  0  0  0  0  0  0  0  0
    7.4297    7.5873   24.8962 C   0  0  0  0  0  0  0  0  0  0  0  0
    8.1566   10.0536   16.0516 O   0  0  0  0  0  0  0  0  0  0  0  0
   12.4989    6.2074   20.1776 C   0  0  0  0  0  0  0  0  0  0  0  0
    6.9192    9.1053   20.9073 O   0  0  0  0  0  0  0  0  0  0  0  0
   14.3979    6.0729   18.7784 C   0  0  0  0  0  0  0  0  0  0  0  0
    8.6811    9.5354   16.9998 C   0  0  0  0  0  0  0  0  0  0  0  0
    9.2512    4.2713   13.7653 O   0  0  0  0  0  0  0  0  0  0  0  0
    9.6495    8.6317   16.8332 N   0  0  0  0  0  0  0  0  0  0  0  0
    6.2934    8.6988   23.1988 O   0  0  0  0  0  0  0  0  0  0  0  0
    7.9806    8.6543   20.5437 C   0  0  0  0  0  0  0  0  0  0  0  0
   13.7270    5.7144   19.8610 O   0  0  0  0  0  0  0  0  0  0  0  0
    8.3351    5.5235   15.4478 C   0  0  0  0  0  0  0  0  0  0  0  0
    8.7700    7.8434   21.3915 C   0  0  0  0  0  0  0  0  0  0  0  0
   11.7856    6.8851   19.2401 C   0  0  0  0  0  0  0  0  0  0  0  0
   10.5281    7.4276   19.5649 C   0  0  0  0  0  0  0  0  0  0  0  0
   10.0256    7.2907   20.8484 C   0  0  0  0  0  0  0  0  0  0  0  0
    9.3113    5.3049   14.4911 C   0  0  0  0  0  0  0  0  0  0  0  0
    9.4607    7.5646   16.0139 C   0  0  0  0  0  0  0  0  0  0  0  0
   10.4192    7.3157   15.0955 C   0  0  0  0  0  0  0  0  0  0  0  0
   10.2489    6.4227   23.0218 N   0  0  0  0  0  0  0  0  0  0  0  0
    7.2472    8.0746   23.5050 C   0  0  0  0  0  0  0  0  0  0  0  0
    9.2051    6.9101   23.4604 C   0  0  0  0  0  0  0  0  0  0  0  0
   11.9646    6.0299   21.4251 C   0  0  0  0  0  0  0  0  0  0  0  0
  1  5  1  0
  1 13  1  0
  2 20  2  0
  2 28  1  0
  2 29  1  0
  3 19  4  0
  3 25  4  0
  4 23  4  0
  4 27  1  0
  4 30  4  0
  5 17  1  0
  6  8  1  0
  6 29  1  0
  7 24  4  0
  7 26  4  0
  8 28  1  0
  9 13  2  0
 10 18  1  0
 10 21  4  0
 10 30  4  0
 11 17  2  0
 12 18  1  0
 13 15  1  0
 14 24  1  0
 15 25  1  0
 16 28  2  0
 17 20  1  0
 19 24  4  0
 20 23  1  0
 21 22  4  0
 22 23  4  0
 25 26  4  0
 27 29  2  0
M  END
$$$$

 Created by Python create_sdf_string function

 30 33  0  0  0  0  0  0  0  0999 V2000
    8.3036    9.8571   18.4133 C   0  0  0  0  0  0  0  0  0  0  0  0
    8.3694    7.6612   22.6703 C   0  0  0  0  0  0  0  0  0  0  0  0
    8.4143    6.6863   16.2273 C   0  0  0  0  0  0  0  0  0  0  0  0
   10.7581    6.5674   21.7636 C   0  0  0  0  0  0  0  0  0  0  0  0
    8.4452    8.7960   19.2958 O   0  0  0  0  0  0  0  0  0  0  0  0
    8.7122    6.7842   24.8569 C   0  0  0  0  0  0  0  0  0  0  0  0
   10.3400    6.1726   14.3081 C   0  0  0  0  0  0  0  0  0  0  0  0
    7.4297    7.5873   24.8962 C   0  0  0  0  0  0  0  0  0  0  0  0
    8.1566   10.0536   16.0516 O   0  0  0  0  0  0  0  0  0  0  0  0
   12.4989    6.2074   20.1776 C   0  0  0  0  0  0  0  0  0  0  0  0
    6.9192    9.1053   20.9073 O   0  0  0  0  0  0  0  0  0  0  0  0
   14.3979    6.0729   18.7784 C   0  0  0  0  0  0  0  0  0  0  0  0
    8.6811    9.5354   16.9998 C   0  0  0  0  0  0  0  0  0  0  0  0
    9.2512    4.2713   13.7653 O   0  0  0  0  0  0  0  0  0  0  0  0
    9.6495    8.6317   16.8332 N   0  0  0  0  0  0  0  0  0  0  0  0
    6.2934    8.6988   23.1988 O   0  0  0  0  0  0  0  0  0  0  0  0
    7.9806    8.6543   20.5437 C   0  0  0  0  0  0  0  0  0  0  0  0
   13.7270    5.7144   19.8610 O   0  0  0  0  0  0  0  0  0  0  0  0
    8.3351    5.5235   15.4478 C   0  0  0  0  0  0  0  0  0  0  0  0
    8.7700    7.8434   21.3915 C   0  0  0  0  0  0  0  0  0  0  0  0
   11.7856    6.8851   19.2401 C   0  0  0  0  0  0  0  0  0  0  0  0
   10.5281    7.4276   19.5649 C   0  0  0  0  0  0  0  0  0  0  0  0
   10.0256    7.2907   20.8484 C   0  0  0  0  0  0  0  0  0  0  0  0
    9.3113    5.3049   14.4911 C   0  0  0  0  0  0  0  0  0  0  0  0
    9.4607    7.5646   16.0139 C   0  0  0  0  0  0  0  0  0  0  0  0
   10.4192    7.3157   15.0955 C   0  0  0  0  0  0  0  0  0  0  0  0
   10.2489    6.4227   23.0218 N   0  0  0  0  0  0  0  0  0  0  0  0
    7.2472    8.0746   23.5050 C   0  0  0  0  0  0  0  0  0  0  0  0
    9.2051    6.9101   23.4604 C   0  0  0  0  0  0  0  0  0  0  0  0
   11.9646    6.0299   21.4251 C   0  0  0  0  0  0  0  0  0  0  0  0
  1  5  1  0
  1 13  1  0
  2 20  2  0
  2 28  1  0
  2 29  1  0
  3 19  4  0
  3 25  4  0
  4 23  4  0
  4 27  1  0
  4 30  4  0
  5 17  1  0
  6  8  1  0
  6 29  1  0
  7 24  4  0
  7 26  4  0
  8 28  1  0
  9 13  2  0
 10 18  1  0
 10 21  4  0
 10 30  4  0
 11 17  2  0
 12 18  1  0
 13 15  1  0
 14 24  1  0
 15 25  1  0
 16 28  2  0
 17 20  1  0
 19 24  4  0
 20 23  1  0
 21 22  4  0
 22 23  4  0
 25 26  4  0
 27 29  2  0
M  END
$$$$

 Created by Python create_sdf_string function

 30 33  0  0  0  0  0  0  0  0999 V2000
    8.3036    9.8571   18.4133 C   0  0  0  0  0  0  0  0  0  0  0  0
    8.3694    7.6612   22.6703 C   0  0  0  0  0  0  0  0  0  0  0  0
    8.4143    6.6863   16.2273 C   0  0  0  0  0  0  0  0  0  0  0  0
   10.7581    6.5674   21.7636 C   0  0  0  0  0  0  0  0  0  0  0  0
    8.4452    8.7960   19.2958 O   0  0  0  0  0  0  0  0  0  0  0  0
    8.7122    6.7842   24.8569 C   0  0  0  0  0  0  0  0  0  0  0  0
   10.3400    6.1726   14.3081 C   0  0  0  0  0  0  0  0  0  0  0  0
    7.4297    7.5873   24.8962 C   0  0  0  0  0  0  0  0  0  0  0  0
    8.1566   10.0536   16.0516 O   0  0  0  0  0  0  0  0  0  0  0  0
   12.4989    6.2074   20.1776 C   0  0  0  0  0  0  0  0  0  0  0  0
    6.9192    9.1053   20.9073 O   0  0  0  0  0  0  0  0  0  0  0  0
   14.3979    6.0729   18.7784 C   0  0  0  0  0  0  0  0  0  0  0  0
    8.6811    9.5354   16.9998 C   0  0  0  0  0  0  0  0  0  0  0  0
    9.2512    4.2713   13.7653 O   0  0  0  0  0  0  0  0  0  0  0  0
    9.6495    8.6317   16.8332 N   0  0  0  0  0  0  0  0  0  0  0  0
    6.2934    8.6988   23.1988 O   0  0  0  0  0  0  0  0  0  0  0  0
    7.9806    8.6543   20.5437 C   0  0  0  0  0  0  0  0  0  0  0  0
   13.7270    5.7144   19.8610 O   0  0  0  0  0  0  0  0  0  0  0  0
    8.3351    5.5235   15.4478 C   0  0  0  0  0  0  0  0  0  0  0  0
    8.7700    7.8434   21.3915 C   0  0  0  0  0  0  0  0  0  0  0  0
   11.7856    6.8851   19.2401 C   0  0  0  0  0  0  0  0  0  0  0  0
   10.5281    7.4276   19.5649 C   0  0  0  0  0  0  0  0  0  0  0  0
   10.0256    7.2907   20.8484 C   0  0  0  0  0  0  0  0  0  0  0  0
    9.3113    5.3049   14.4911 C   0  0  0  0  0  0  0  0  0  0  0  0
    9.4607    7.5646   16.0139 C   0  0  0  0  0  0  0  0  0  0  0  0
   10.4192    7.3157   15.0955 C   0  0  0  0  0  0  0  0  0  0  0  0
   10.2489    6.4227   23.0218 N   0  0  0  0  0  0  0  0  0  0  0  0
    7.2472    8.0746   23.5050 C   0  0  0  0  0  0  0  0  0  0  0  0
    9.2051    6.9101   23.4604 C   0  0  0  0  0  0  0  0  0  0  0  0
   11.9646    6.0299   21.4251 C   0  0  0  0  0  0  0  0  0  0  0  0
  1  5  1  0
  1 13  1  0
  2 20  2  0
  2 28  1  0
  2 29  1  0
  3 19  4  0
  3 25  4  0
  4 23  4  0
  4 27  1  0
  4 30  4  0
  5 17  1  0
  6  8  1  0
  6 29  1  0
  7 24  4  0
  7 26  4  0
  8 28  1  0
  9 13  2  0
 10 18  1  0
 10 21  4  0
 10 30  4  0
 11 17  2  0
 12 18  1  0
 13 15  1  0
 14 24  1  0
 15 25  1  0
 16 28  2  0
 17 20  1  0
 19 24  4  0
 20 23  1  0
 21 22  4  0
 22 23  4  0
 25 26  4  0
 27 29  2  0
M  END
$$$$

 Created by Python create_sdf_string function

 30 33  0  0  0  0  0  0  0  0999 V2000
    8.3036    9.8571   18.4133 C   0  0  0  0  0  0  0  0  0  0  0  0
    8.3694    7.6612   22.6703 C   0  0  0  0  0  0  0  0  0  0  0  0
    8.4143    6.6863   16.2273 C   0  0  0  0  0  0  0  0  0  0  0  0
   10.7581    6.5674   21.7636 C   0  0  0  0  0  0  0  0  0  0  0  0
    8.4452    8.7960   19.2958 O   0  0  0  0  0  0  0  0  0  0  0  0
    8.7122    6.7842   24.8569 C   0  0  0  0  0  0  0  0  0  0  0  0
   10.3400    6.1726   14.3081 C   0  0  0  0  0  0  0  0  0  0  0  0
    7.4297    7.5873   24.8962 C   0  0  0  0  0  0  0  0  0  0  0  0
    8.1566   10.0536   16.0516 O   0  0  0  0  0  0  0  0  0  0  0  0
   12.4989    6.2074   20.1776 C   0  0  0  0  0  0  0  0  0  0  0  0
    6.9192    9.1053   20.9073 O   0  0  0  0  0  0  0  0  0  0  0  0
   14.3979    6.0729   18.7784 C   0  0  0  0  0  0  0  0  0  0  0  0
    8.6811    9.5354   16.9998 C   0  0  0  0  0  0  0  0  0  0  0  0
    9.2512    4.2713   13.7653 O   0  0  0  0  0  0  0  0  0  0  0  0
    9.6495    8.6317   16.8332 N   0  0  0  0  0  0  0  0  0  0  0  0
    6.2934    8.6988   23.1988 O   0  0  0  0  0  0  0  0  0  0  0  0
    7.9806    8.6543   20.5437 C   0  0  0  0  0  0  0  0  0  0  0  0
   13.7270    5.7144   19.8610 O   0  0  0  0  0  0  0  0  0  0  0  0
    8.3351    5.5235   15.4478 C   0  0  0  0  0  0  0  0  0  0  0  0
    8.7700    7.8434   21.3915 C   0  0  0  0  0  0  0  0  0  0  0  0
   11.7856    6.8851   19.2401 C   0  0  0  0  0  0  0  0  0  0  0  0
   10.5281    7.4276   19.5649 C   0  0  0  0  0  0  0  0  0  0  0  0
   10.0256    7.2907   20.8484 C   0  0  0  0  0  0  0  0  0  0  0  0
    9.3113    5.3049   14.4911 C   0  0  0  0  0  0  0  0  0  0  0  0
    9.4607    7.5646   16.0139 C   0  0  0  0  0  0  0  0  0  0  0  0
   10.4192    7.3157   15.0955 C   0  0  0  0  0  0  0  0  0  0  0  0
   10.2489    6.4227   23.0218 N   0  0  0  0  0  0  0  0  0  0  0  0
    7.2472    8.0746   23.5050 C   0  0  0  0  0  0  0  0  0  0  0  0
    9.2051    6.9101   23.4604 C   0  0  0  0  0  0  0  0  0  0  0  0
   11.9646    6.0299   21.4251 C   0  0  0  0  0  0  0  0  0  0  0  0
  1  5  1  0
  1 13  1  0
  2 20  2  0
  2 28  1  0
  2 29  1  0
  3 19  4  0
  3 25  4  0
  4 23  4  0
  4 27  1  0
  4 30  4  0
  5 17  1  0
  6  8  1  0
  6 29  1  0
  7 24  4  0
  7 26  4  0
  8 28  1  0
  9 13  2  0
 10 18  1  0
 10 21  4  0
 10 30  4  0
 11 17  2  0
 12 18  1  0
 13 15  1  0
 14 24  1  0
 15 25  1  0
 16 28  2  0
 17 20  1  0
 19 24  4  0
 20 23  1  0
 21 22  4  0
 22 23  4  0
 25 26  4  0
 27 29  2  0
M  END
$$$$

 Created by Python create_sdf_string function

 30 33  0  0  0  0  0  0  0  0999 V2000
    8.3036    9.8571   18.4133 C   0  0  0  0  0  0  0  0  0  0  0  0
    8.3694    7.6612   22.6703 C   0  0  0  0  0  0  0  0  0  0  0  0
    8.4143    6.6863   16.2273 C   0  0  0  0  0  0  0  0  0  0  0  0
   10.7581    6.5674   21.7636 C   0  0  0  0  0  0  0  0  0  0  0  0
    8.4452    8.7960   19.2958 O   0  0  0  0  0  0  0  0  0  0  0  0
    8.7122    6.7842   24.8569 C   0  0  0  0  0  0  0  0  0  0  0  0
   10.3400    6.1726   14.3081 C   0  0  0  0  0  0  0  0  0  0  0  0
    7.4297    7.5873   24.8962 C   0  0  0  0  0  0  0  0  0  0  0  0
    8.1566   10.0536   16.0516 O   0  0  0  0  0  0  0  0  0  0  0  0
   12.4989    6.2074   20.1776 C   0  0  0  0  0  0  0  0  0  0  0  0
    6.9192    9.1053   20.9073 O   0  0  0  0  0  0  0  0  0  0  0  0
   14.3979    6.0729   18.7784 C   0  0  0  0  0  0  0  0  0  0  0  0
    8.6811    9.5354   16.9998 C   0  0  0  0  0  0  0  0  0  0  0  0
    9.2512    4.2713   13.7653 O   0  0  0  0  0  0  0  0  0  0  0  0
    9.6495    8.6317   16.8332 N   0  0  0  0  0  0  0  0  0  0  0  0
    6.2934    8.6988   23.1988 O   0  0  0  0  0  0  0  0  0  0  0  0
    7.9806    8.6543   20.5437 C   0  0  0  0  0  0  0  0  0  0  0  0
   13.7270    5.7144   19.8610 O   0  0  0  0  0  0  0  0  0  0  0  0
    8.3351    5.5235   15.4478 C   0  0  0  0  0  0  0  0  0  0  0  0
    8.7700    7.8434   21.3915 C   0  0  0  0  0  0  0  0  0  0  0  0
   11.7856    6.8851   19.2401 C   0  0  0  0  0  0  0  0  0  0  0  0
   10.5281    7.4276   19.5649 C   0  0  0  0  0  0  0  0  0  0  0  0
   10.0256    7.2907   20.8484 C   0  0  0  0  0  0  0  0  0  0  0  0
    9.3113    5.3049   14.4911 C   0  0  0  0  0  0  0  0  0  0  0  0
    9.4607    7.5646   16.0139 C   0  0  0  0  0  0  0  0  0  0  0  0
   10.4192    7.3157   15.0955 C   0  0  0  0  0  0  0  0  0  0  0  0
   10.2489    6.4227   23.0218 N   0  0  0  0  0  0  0  0  0  0  0  0
    7.2472    8.0746   23.5050 C   0  0  0  0  0  0  0  0  0  0  0  0
    9.2051    6.9101   23.4604 C   0  0  0  0  0  0  0  0  0  0  0  0
   11.9646    6.0299   21.4251 C   0  0  0  0  0  0  0  0  0  0  0  0
  1  5  1  0
  1 13  1  0
  2 20  2  0
  2 28  1  0
  2 29  1  0
  3 19  4  0
  3 25  4  0
  4 23  4  0
  4 27  1  0
  4 30  4  0
  5 17  1  0
  6  8  1  0
  6 29  1  0
  7 24  4  0
  7 26  4  0
  8 28  1  0
  9 13  2  0
 10 18  1  0
 10 21  4  0
 10 30  4  0
 11 17  2  0
 12 18  1  0
 13 15  1  0
 14 24  1  0
 15 25  1  0
 16 28  2  0
 17 20  1  0
 19 24  4  0
 20 23  1  0
 21 22  4  0
 22 23  4  0
 25 26  4  0
 27 29  2  0
M  END
$$$$

 Created by Python create_sdf_string function

 30 33  0  0  0  0  0  0  0  0999 V2000
    8.3036    9.8571   18.4133 C   0  0  0  0  0  0  0  0  0  0  0  0
    8.3694    7.6612   22.6703 C   0  0  0  0  0  0  0  0  0  0  0  0
    8.4143    6.6863   16.2273 C   0  0  0  0  0  0  0  0  0  0  0  0
   10.7581    6.5674   21.7636 C   0  0  0  0  0  0  0  0  0  0  0  0
    8.4452    8.7960   19.2958 O   0  0  0  0  0  0  0  0  0  0  0  0
    8.7122    6.7842   24.8569 C   0  0  0  0  0  0  0  0  0  0  0  0
   10.3400    6.1726   14.3081 C   0  0  0  0  0  0  0  0  0  0  0  0
    7.4297    7.5873   24.8962 C   0  0  0  0  0  0  0  0  0  0  0  0
    8.1566   10.0536   16.0516 O   0  0  0  0  0  0  0  0  0  0  0  0
   12.4989    6.2074   20.1776 C   0  0  0  0  0  0  0  0  0  0  0  0
    6.9192    9.1053   20.9073 O   0  0  0  0  0  0  0  0  0  0  0  0
   14.3979    6.0729   18.7784 C   0  0  0  0  0  0  0  0  0  0  0  0
    8.6811    9.5354   16.9998 C   0  0  0  0  0  0  0  0  0  0  0  0
    9.2512    4.2713   13.7653 O   0  0  0  0  0  0  0  0  0  0  0  0
    9.6495    8.6317   16.8332 N   0  0  0  0  0  0  0  0  0  0  0  0
    6.2934    8.6988   23.1988 O   0  0  0  0  0  0  0  0  0  0  0  0
    7.9806    8.6543   20.5437 C   0  0  0  0  0  0  0  0  0  0  0  0
   13.7270    5.7144   19.8610 O   0  0  0  0  0  0  0  0  0  0  0  0
    8.3351    5.5235   15.4478 C   0  0  0  0  0  0  0  0  0  0  0  0
    8.7700    7.8434   21.3915 C   0  0  0  0  0  0  0  0  0  0  0  0
   11.7856    6.8851   19.2401 C   0  0  0  0  0  0  0  0  0  0  0  0
   10.5281    7.4276   19.5649 C   0  0  0  0  0  0  0  0  0  0  0  0
   10.0256    7.2907   20.8484 C   0  0  0  0  0  0  0  0  0  0  0  0
    9.3113    5.3049   14.4911 C   0  0  0  0  0  0  0  0  0  0  0  0
    9.4607    7.5646   16.0139 C   0  0  0  0  0  0  0  0  0  0  0  0
   10.4192    7.3157   15.0955 C   0  0  0  0  0  0  0  0  0  0  0  0
   10.2489    6.4227   23.0218 N   0  0  0  0  0  0  0  0  0  0  0  0
    7.2472    8.0746   23.5050 C   0  0  0  0  0  0  0  0  0  0  0  0
    9.2051    6.9101   23.4604 C   0  0  0  0  0  0  0  0  0  0  0  0
   11.9646    6.0299   21.4251 C   0  0  0  0  0  0  0  0  0  0  0  0
  1  5  1  0
  1 13  1  0
  2 20  2  0
  2 28  1  0
  2 29  1  0
  3 19  4  0
  3 25  4  0
  4 23  4  0
  4 27  1  0
  4 30  4  0
  5 17  1  0
  6  8  1  0
  6 29  1  0
  7 24  4  0
  7 26  4  0
  8 28  1  0
  9 13  2  0
 10 18  1  0
 10 21  4  0
 10 30  4  0
 11 17  2  0
 12 18  1  0
 13 15  1  0
 14 24  1  0
 15 25  1  0
 16 28  2  0
 17 20  1  0
 19 24  4  0
 20 23  1  0
 21 22  4  0
 22 23  4  0
 25 26  4  0
 27 29  2  0
M  END
$$$$

 Created by Python create_sdf_string function

 30 33  0  0  0  0  0  0  0  0999 V2000
    8.3036    9.8571   18.4133 C   0  0  0  0  0  0  0  0  0  0  0  0
    8.3694    7.6612   22.6703 C   0  0  0  0  0  0  0  0  0  0  0  0
    8.4143    6.6863   16.2273 C   0  0  0  0  0  0  0  0  0  0  0  0
   10.7581    6.5674   21.7636 C   0  0  0  0  0  0  0  0  0  0  0  0
    8.4452    8.7960   19.2958 O   0  0  0  0  0  0  0  0  0  0  0  0
    8.7122    6.7842   24.8569 C   0  0  0  0  0  0  0  0  0  0  0  0
   10.3400    6.1726   14.3081 C   0  0  0  0  0  0  0  0  0  0  0  0
    7.4297    7.5873   24.8962 C   0  0  0  0  0  0  0  0  0  0  0  0
    8.1566   10.0536   16.0516 O   0  0  0  0  0  0  0  0  0  0  0  0
   12.4989    6.2074   20.1776 C   0  0  0  0  0  0  0  0  0  0  0  0
    6.9192    9.1053   20.9073 O   0  0  0  0  0  0  0  0  0  0  0  0
   14.3979    6.0729   18.7784 C   0  0  0  0  0  0  0  0  0  0  0  0
    8.6811    9.5354   16.9998 C   0  0  0  0  0  0  0  0  0  0  0  0
    9.2512    4.2713   13.7653 O   0  0  0  0  0  0  0  0  0  0  0  0
    9.6495    8.6317   16.8332 N   0  0  0  0  0  0  0  0  0  0  0  0
    6.2934    8.6988   23.1988 O   0  0  0  0  0  0  0  0  0  0  0  0
    7.9806    8.6543   20.5437 C   0  0  0  0  0  0  0  0  0  0  0  0
   13.7270    5.7144   19.8610 O   0  0  0  0  0  0  0  0  0  0  0  0
    8.3351    5.5235   15.4478 C   0  0  0  0  0  0  0  0  0  0  0  0
    8.7700    7.8434   21.3915 C   0  0  0  0  0  0  0  0  0  0  0  0
   11.7856    6.8851   19.2401 C   0  0  0  0  0  0  0  0  0  0  0  0
   10.5281    7.4276   19.5649 C   0  0  0  0  0  0  0  0  0  0  0  0
   10.0256    7.2907   20.8484 C   0  0  0  0  0  0  0  0  0  0  0  0
    9.3113    5.3049   14.4911 C   0  0  0  0  0  0  0  0  0  0  0  0
    9.4607    7.5646   16.0139 C   0  0  0  0  0  0  0  0  0  0  0  0
   10.4192    7.3157   15.0955 C   0  0  0  0  0  0  0  0  0  0  0  0
   10.2489    6.4227   23.0218 N   0  0  0  0  0  0  0  0  0  0  0  0
    7.2472    8.0746   23.5050 C   0  0  0  0  0  0  0  0  0  0  0  0
    9.2051    6.9101   23.4604 C   0  0  0  0  0  0  0  0  0  0  0  0
   11.9646    6.0299   21.4251 C   0  0  0  0  0  0  0  0  0  0  0  0
  1  5  1  0
  1 13  1  0
  2 20  2  0
  2 28  1  0
  2 29  1  0
  3 19  4  0
  3 25  4  0
  4 23  4  0
  4 27  1  0
  4 30  4  0
  5 17  1  0
  6  8  1  0
  6 29  1  0
  7 24  4  0
  7 26  4  0
  8 28  1  0
  9 13  2  0
 10 18  1  0
 10 21  4  0
 10 30  4  0
 11 17  2  0
 12 18  1  0
 13 15  1  0
 14 24  1  0
 15 25  1  0
 16 28  2  0
 17 20  1  0
 19 24  4  0
 20 23  1  0
 21 22  4  0
 22 23  4  0
 25 26  4  0
 27 29  2  0
M  END
$$$$

 Created by Python create_sdf_string function

 30 33  0  0  0  0  0  0  0  0999 V2000
    8.3036    9.8571   18.4133 C   0  0  0  0  0  0  0  0  0  0  0  0
    8.3694    7.6612   22.6703 C   0  0  0  0  0  0  0  0  0  0  0  0
    8.4143    6.6863   16.2273 C   0  0  0  0  0  0  0  0  0  0  0  0
   10.7581    6.5674   21.7636 C   0  0  0  0  0  0  0  0  0  0  0  0
    8.4452    8.7960   19.2958 O   0  0  0  0  0  0  0  0  0  0  0  0
    8.7122    6.7842   24.8569 C   0  0  0  0  0  0  0  0  0  0  0  0
   10.3400    6.1726   14.3081 C   0  0  0  0  0  0  0  0  0  0  0  0
    7.4297    7.5873   24.8962 C   0  0  0  0  0  0  0  0  0  0  0  0
    8.1566   10.0536   16.0516 O   0  0  0  0  0  0  0  0  0  0  0  0
   12.4989    6.2074   20.1776 C   0  0  0  0  0  0  0  0  0  0  0  0
    6.9192    9.1053   20.9073 O   0  0  0  0  0  0  0  0  0  0  0  0
   14.3979    6.0729   18.7784 C   0  0  0  0  0  0  0  0  0  0  0  0
    8.6811    9.5354   16.9998 C   0  0  0  0  0  0  0  0  0  0  0  0
    9.2512    4.2713   13.7653 O   0  0  0  0  0  0  0  0  0  0  0  0
    9.6495    8.6317   16.8332 N   0  0  0  0  0  0  0  0  0  0  0  0
    6.2934    8.6988   23.1988 O   0  0  0  0  0  0  0  0  0  0  0  0
    7.9806    8.6543   20.5437 C   0  0  0  0  0  0  0  0  0  0  0  0
   13.7270    5.7144   19.8610 O   0  0  0  0  0  0  0  0  0  0  0  0
    8.3351    5.5235   15.4478 C   0  0  0  0  0  0  0  0  0  0  0  0
    8.7700    7.8434   21.3915 C   0  0  0  0  0  0  0  0  0  0  0  0
   11.7856    6.8851   19.2401 C   0  0  0  0  0  0  0  0  0  0  0  0
   10.5281    7.4276   19.5649 C   0  0  0  0  0  0  0  0  0  0  0  0
   10.0256    7.2907   20.8484 C   0  0  0  0  0  0  0  0  0  0  0  0
    9.3113    5.3049   14.4911 C   0  0  0  0  0  0  0  0  0  0  0  0
    9.4607    7.5646   16.0139 C   0  0  0  0  0  0  0  0  0  0  0  0
   10.4192    7.3157   15.0955 C   0  0  0  0  0  0  0  0  0  0  0  0
   10.2489    6.4227   23.0218 N   0  0  0  0  0  0  0  0  0  0  0  0
    7.2472    8.0746   23.5050 C   0  0  0  0  0  0  0  0  0  0  0  0
    9.2051    6.9101   23.4604 C   0  0  0  0  0  0  0  0  0  0  0  0
   11.9646    6.0299   21.4251 C   0  0  0  0  0  0  0  0  0  0  0  0
  1  5  1  0
  1 13  1  0
  2 20  2  0
  2 28  1  0
  2 29  1  0
  3 19  4  0
  3 25  4  0
  4 23  4  0
  4 27  1  0
  4 30  4  0
  5 17  1  0
  6  8  1  0
  6 29  1  0
  7 24  4  0
  7 26  4  0
  8 28  1  0
  9 13  2  0
 10 18  1  0
 10 21  4  0
 10 30  4  0
 11 17  2  0
 12 18  1  0
 13 15  1  0
 14 24  1  0
 15 25  1  0
 16 28  2  0
 17 20  1  0
 19 24  4  0
 20 23  1  0
 21 22  4  0
 22 23  4  0
 25 26  4  0
 27 29  2  0
M  END
$$$$

 Created by Python create_sdf_string function

 30 33  0  0  0  0  0  0  0  0999 V2000
    8.3036    9.8571   18.4133 C   0  0  0  0  0  0  0  0  0  0  0  0
    8.3694    7.6612   22.6703 C   0  0  0  0  0  0  0  0  0  0  0  0
    8.4143    6.6863   16.2273 C   0  0  0  0  0  0  0  0  0  0  0  0
   10.7581    6.5674   21.7636 C   0  0  0  0  0  0  0  0  0  0  0  0
    8.4452    8.7960   19.2958 O   0  0  0  0  0  0  0  0  0  0  0  0
    8.7122    6.7842   24.8569 C   0  0  0  0  0  0  0  0  0  0  0  0
   10.3400    6.1726   14.3081 C   0  0  0  0  0  0  0  0  0  0  0  0
    7.4297    7.5873   24.8962 C   0  0  0  0  0  0  0  0  0  0  0  0
    8.1566   10.0536   16.0516 O   0  0  0  0  0  0  0  0  0  0  0  0
   12.4989    6.2074   20.1776 C   0  0  0  0  0  0  0  0  0  0  0  0
    6.9192    9.1053   20.9073 O   0  0  0  0  0  0  0  0  0  0  0  0
   14.3979    6.0729   18.7784 C   0  0  0  0  0  0  0  0  0  0  0  0
    8.6811    9.5354   16.9998 C   0  0  0  0  0  0  0  0  0  0  0  0
    9.2512    4.2713   13.7653 O   0  0  0  0  0  0  0  0  0  0  0  0
    9.6495    8.6317   16.8332 N   0  0  0  0  0  0  0  0  0  0  0  0
    6.2934    8.6988   23.1988 O   0  0  0  0  0  0  0  0  0  0  0  0
    7.9806    8.6543   20.5437 C   0  0  0  0  0  0  0  0  0  0  0  0
   13.7270    5.7144   19.8610 O   0  0  0  0  0  0  0  0  0  0  0  0
    8.3351    5.5235   15.4478 C   0  0  0  0  0  0  0  0  0  0  0  0
    8.7700    7.8434   21.3915 C   0  0  0  0  0  0  0  0  0  0  0  0
   11.7856    6.8851   19.2401 C   0  0  0  0  0  0  0  0  0  0  0  0
   10.5281    7.4276   19.5649 C   0  0  0  0  0  0  0  0  0  0  0  0
   10.0256    7.2907   20.8484 C   0  0  0  0  0  0  0  0  0  0  0  0
    9.3113    5.3049   14.4911 C   0  0  0  0  0  0  0  0  0  0  0  0
    9.4607    7.5646   16.0139 C   0  0  0  0  0  0  0  0  0  0  0  0
   10.4192    7.3157   15.0955 C   0  0  0  0  0  0  0  0  0  0  0  0
   10.2489    6.4227   23.0218 N   0  0  0  0  0  0  0  0  0  0  0  0
    7.2472    8.0746   23.5050 C   0  0  0  0  0  0  0  0  0  0  0  0
    9.2051    6.9101   23.4604 C   0  0  0  0  0  0  0  0  0  0  0  0
   11.9646    6.0299   21.4251 C   0  0  0  0  0  0  0  0  0  0  0  0
  1  5  1  0
  1 13  1  0
  2 20  2  0
  2 28  1  0
  2 29  1  0
  3 19  4  0
  3 25  4  0
  4 23  4  0
  4 27  1  0
  4 30  4  0
  5 17  1  0
  6  8  1  0
  6 29  1  0
  7 24  4  0
  7 26  4  0
  8 28  1  0
  9 13  2  0
 10 18  1  0
 10 21  4  0
 10 30  4  0
 11 17  2  0
 12 18  1  0
 13 15  1  0
 14 24  1  0
 15 25  1  0
 16 28  2  0
 17 20  1  0
 19 24  4  0
 20 23  1  0
 21 22  4  0
 22 23  4  0
 25 26  4  0
 27 29  2  0
M  END
$$$$

 Created by Python create_sdf_string function

 30 33  0  0  0  0  0  0  0  0999 V2000
    8.3036    9.8571   18.4133 C   0  0  0  0  0  0  0  0  0  0  0  0
    8.3694    7.6612   22.6703 C   0  0  0  0  0  0  0  0  0  0  0  0
    8.4143    6.6863   16.2273 C   0  0  0  0  0  0  0  0  0  0  0  0
   10.7581    6.5674   21.7636 C   0  0  0  0  0  0  0  0  0  0  0  0
    8.4452    8.7960   19.2958 O   0  0  0  0  0  0  0  0  0  0  0  0
    8.7122    6.7842   24.8569 C   0  0  0  0  0  0  0  0  0  0  0  0
   10.3400    6.1726   14.3081 C   0  0  0  0  0  0  0  0  0  0  0  0
    7.4297    7.5873   24.8962 C   0  0  0  0  0  0  0  0  0  0  0  0
    8.1566   10.0536   16.0516 O   0  0  0  0  0  0  0  0  0  0  0  0
   12.4989    6.2074   20.1776 C   0  0  0  0  0  0  0  0  0  0  0  0
    6.9192    9.1053   20.9073 O   0  0  0  0  0  0  0  0  0  0  0  0
   14.3979    6.0729   18.7784 C   0  0  0  0  0  0  0  0  0  0  0  0
    8.6811    9.5354   16.9998 C   0  0  0  0  0  0  0  0  0  0  0  0
    9.2512    4.2713   13.7653 O   0  0  0  0  0  0  0  0  0  0  0  0
    9.6495    8.6317   16.8332 N   0  0  0  0  0  0  0  0  0  0  0  0
    6.2934    8.6988   23.1988 O   0  0  0  0  0  0  0  0  0  0  0  0
    7.9806    8.6543   20.5437 C   0  0  0  0  0  0  0  0  0  0  0  0
   13.7270    5.7144   19.8610 O   0  0  0  0  0  0  0  0  0  0  0  0
    8.3351    5.5235   15.4478 C   0  0  0  0  0  0  0  0  0  0  0  0
    8.7700    7.8434   21.3915 C   0  0  0  0  0  0  0  0  0  0  0  0
   11.7856    6.8851   19.2401 C   0  0  0  0  0  0  0  0  0  0  0  0
   10.5281    7.4276   19.5649 C   0  0  0  0  0  0  0  0  0  0  0  0
   10.0256    7.2907   20.8484 C   0  0  0  0  0  0  0  0  0  0  0  0
    9.3113    5.3049   14.4911 C   0  0  0  0  0  0  0  0  0  0  0  0
    9.4607    7.5646   16.0139 C   0  0  0  0  0  0  0  0  0  0  0  0
   10.4192    7.3157   15.0955 C   0  0  0  0  0  0  0  0  0  0  0  0
   10.2489    6.4227   23.0218 N   0  0  0  0  0  0  0  0  0  0  0  0
    7.2472    8.0746   23.5050 C   0  0  0  0  0  0  0  0  0  0  0  0
    9.2051    6.9101   23.4604 C   0  0  0  0  0  0  0  0  0  0  0  0
   11.9646    6.0299   21.4251 C   0  0  0  0  0  0  0  0  0  0  0  0
  1  5  1  0
  1 13  1  0
  2 20  2  0
  2 28  1  0
  2 29  1  0
  3 19  4  0
  3 25  4  0
  4 23  4  0
  4 27  1  0
  4 30  4  0
  5 17  1  0
  6  8  1  0
  6 29  1  0
  7 24  4  0
  7 26  4  0
  8 28  1  0
  9 13  2  0
 10 18  1  0
 10 21  4  0
 10 30  4  0
 11 17  2  0
 12 18  1  0
 13 15  1  0
 14 24  1  0
 15 25  1  0
 16 28  2  0
 17 20  1  0
 19 24  4  0
 20 23  1  0
 21 22  4  0
 22 23  4  0
 25 26  4  0
 27 29  2  0
M  END
$$$$

 Created by Python create_sdf_string function

 30 33  0  0  0  0  0  0  0  0999 V2000
    8.3036    9.8571   18.4133 C   0  0  0  0  0  0  0  0  0  0  0  0
    8.3694    7.6612   22.6703 C   0  0  0  0  0  0  0  0  0  0  0  0
    8.4143    6.6863   16.2273 C   0  0  0  0  0  0  0  0  0  0  0  0
   10.7581    6.5674   21.7636 C   0  0  0  0  0  0  0  0  0  0  0  0
    8.4452    8.7960   19.2958 O   0  0  0  0  0  0  0  0  0  0  0  0
    8.7122    6.7842   24.8569 C   0  0  0  0  0  0  0  0  0  0  0  0
   10.3400    6.1726   14.3081 C   0  0  0  0  0  0  0  0  0  0  0  0
    7.4297    7.5873   24.8962 C   0  0  0  0  0  0  0  0  0  0  0  0
    8.1566   10.0536   16.0516 O   0  0  0  0  0  0  0  0  0  0  0  0
   12.4989    6.2074   20.1776 C   0  0  0  0  0  0  0  0  0  0  0  0
    6.9192    9.1053   20.9073 O   0  0  0  0  0  0  0  0  0  0  0  0
   14.3979    6.0729   18.7784 C   0  0  0  0  0  0  0  0  0  0  0  0
    8.6811    9.5354   16.9998 C   0  0  0  0  0  0  0  0  0  0  0  0
    9.2512    4.2713   13.7653 O   0  0  0  0  0  0  0  0  0  0  0  0
    9.6495    8.6317   16.8332 N   0  0  0  0  0  0  0  0  0  0  0  0
    6.2934    8.6988   23.1988 O   0  0  0  0  0  0  0  0  0  0  0  0
    7.9806    8.6543   20.5437 C   0  0  0  0  0  0  0  0  0  0  0  0
   13.7270    5.7144   19.8610 O   0  0  0  0  0  0  0  0  0  0  0  0
    8.3351    5.5235   15.4478 C   0  0  0  0  0  0  0  0  0  0  0  0
    8.7700    7.8434   21.3915 C   0  0  0  0  0  0  0  0  0  0  0  0
   11.7856    6.8851   19.2401 C   0  0  0  0  0  0  0  0  0  0  0  0
   10.5281    7.4276   19.5649 C   0  0  0  0  0  0  0  0  0  0  0  0
   10.0256    7.2907   20.8484 C   0  0  0  0  0  0  0  0  0  0  0  0
    9.3113    5.3049   14.4911 C   0  0  0  0  0  0  0  0  0  0  0  0
    9.4607    7.5646   16.0139 C   0  0  0  0  0  0  0  0  0  0  0  0
   10.4192    7.3157   15.0955 C   0  0  0  0  0  0  0  0  0  0  0  0
   10.2489    6.4227   23.0218 N   0  0  0  0  0  0  0  0  0  0  0  0
    7.2472    8.0746   23.5050 C   0  0  0  0  0  0  0  0  0  0  0  0
    9.2051    6.9101   23.4604 C   0  0  0  0  0  0  0  0  0  0  0  0
   11.9646    6.0299   21.4251 C   0  0  0  0  0  0  0  0  0  0  0  0
  1  5  1  0
  1 13  1  0
  2 20  2  0
  2 28  1  0
  2 29  1  0
  3 19  4  0
  3 25  4  0
  4 23  4  0
  4 27  1  0
  4 30  4  0
  5 17  1  0
  6  8  1  0
  6 29  1  0
  7 24  4  0
  7 26  4  0
  8 28  1  0
  9 13  2  0
 10 18  1  0
 10 21  4  0
 10 30  4  0
 11 17  2  0
 12 18  1  0
 13 15  1  0
 14 24  1  0
 15 25  1  0
 16 28  2  0
 17 20  1  0
 19 24  4  0
 20 23  1  0
 21 22  4  0
 22 23  4  0
 25 26  4  0
 27 29  2  0
M  END
$$$$

 Created by Python create_sdf_string function

 30 33  0  0  0  0  0  0  0  0999 V2000
    8.3036    9.8571   18.4133 C   0  0  0  0  0  0  0  0  0  0  0  0
    8.3694    7.6612   22.6703 C   0  0  0  0  0  0  0  0  0  0  0  0
    8.4143    6.6863   16.2273 C   0  0  0  0  0  0  0  0  0  0  0  0
   10.7581    6.5674   21.7636 C   0  0  0  0  0  0  0  0  0  0  0  0
    8.4452    8.7960   19.2958 O   0  0  0  0  0  0  0  0  0  0  0  0
    8.7122    6.7842   24.8569 C   0  0  0  0  0  0  0  0  0  0  0  0
   10.3400    6.1726   14.3081 C   0  0  0  0  0  0  0  0  0  0  0  0
    7.4297    7.5873   24.8962 C   0  0  0  0  0  0  0  0  0  0  0  0
    8.1566   10.0536   16.0516 O   0  0  0  0  0  0  0  0  0  0  0  0
   12.4989    6.2074   20.1776 C   0  0  0  0  0  0  0  0  0  0  0  0
    6.9192    9.1053   20.9073 O   0  0  0  0  0  0  0  0  0  0  0  0
   14.3979    6.0729   18.7784 C   0  0  0  0  0  0  0  0  0  0  0  0
    8.6811    9.5354   16.9998 C   0  0  0  0  0  0  0  0  0  0  0  0
    9.2512    4.2713   13.7653 O   0  0  0  0  0  0  0  0  0  0  0  0
    9.6495    8.6317   16.8332 N   0  0  0  0  0  0  0  0  0  0  0  0
    6.2934    8.6988   23.1988 O   0  0  0  0  0  0  0  0  0  0  0  0
    7.9806    8.6543   20.5437 C   0  0  0  0  0  0  0  0  0  0  0  0
   13.7270    5.7144   19.8610 O   0  0  0  0  0  0  0  0  0  0  0  0
    8.3351    5.5235   15.4478 C   0  0  0  0  0  0  0  0  0  0  0  0
    8.7700    7.8434   21.3915 C   0  0  0  0  0  0  0  0  0  0  0  0
   11.7856    6.8851   19.2401 C   0  0  0  0  0  0  0  0  0  0  0  0
   10.5281    7.4276   19.5649 C   0  0  0  0  0  0  0  0  0  0  0  0
   10.0256    7.2907   20.8484 C   0  0  0  0  0  0  0  0  0  0  0  0
    9.3113    5.3049   14.4911 C   0  0  0  0  0  0  0  0  0  0  0  0
    9.4607    7.5646   16.0139 C   0  0  0  0  0  0  0  0  0  0  0  0
   10.4192    7.3157   15.0955 C   0  0  0  0  0  0  0  0  0  0  0  0
   10.2489    6.4227   23.0218 N   0  0  0  0  0  0  0  0  0  0  0  0
    7.2472    8.0746   23.5050 C   0  0  0  0  0  0  0  0  0  0  0  0
    9.2051    6.9101   23.4604 C   0  0  0  0  0  0  0  0  0  0  0  0
   11.9646    6.0299   21.4251 C   0  0  0  0  0  0  0  0  0  0  0  0
  1  5  1  0
  1 13  1  0
  2 20  2  0
  2 28  1  0
  2 29  1  0
  3 19  4  0
  3 25  4  0
  4 23  4  0
  4 27  1  0
  4 30  4  0
  5 17  1  0
  6  8  1  0
  6 29  1  0
  7 24  4  0
  7 26  4  0
  8 28  1  0
  9 13  2  0
 10 18  1  0
 10 21  4  0
 10 30  4  0
 11 17  2  0
 12 18  1  0
 13 15  1  0
 14 24  1  0
 15 25  1  0
 16 28  2  0
 17 20  1  0
 19 24  4  0
 20 23  1  0
 21 22  4  0
 22 23  4  0
 25 26  4  0
 27 29  2  0
M  END
$$$$

 Created by Python create_sdf_string function

 30 33  0  0  0  0  0  0  0  0999 V2000
    8.3036    9.8571   18.4133 C   0  0  0  0  0  0  0  0  0  0  0  0
    8.3694    7.6612   22.6703 C   0  0  0  0  0  0  0  0  0  0  0  0
    8.4143    6.6863   16.2273 C   0  0  0  0  0  0  0  0  0  0  0  0
   10.7581    6.5674   21.7636 C   0  0  0  0  0  0  0  0  0  0  0  0
    8.4452    8.7960   19.2958 O   0  0  0  0  0  0  0  0  0  0  0  0
    8.7122    6.7842   24.8569 C   0  0  0  0  0  0  0  0  0  0  0  0
   10.3400    6.1726   14.3081 C   0  0  0  0  0  0  0  0  0  0  0  0
    7.4297    7.5873   24.8962 C   0  0  0  0  0  0  0  0  0  0  0  0
    8.1566   10.0536   16.0516 O   0  0  0  0  0  0  0  0  0  0  0  0
   12.4989    6.2074   20.1776 C   0  0  0  0  0  0  0  0  0  0  0  0
    6.9192    9.1053   20.9073 O   0  0  0  0  0  0  0  0  0  0  0  0
   14.3979    6.0729   18.7784 C   0  0  0  0  0  0  0  0  0  0  0  0
    8.6811    9.5354   16.9998 C   0  0  0  0  0  0  0  0  0  0  0  0
    9.2512    4.2713   13.7653 O   0  0  0  0  0  0  0  0  0  0  0  0
    9.6495    8.6317   16.8332 N   0  0  0  0  0  0  0  0  0  0  0  0
    6.2934    8.6988   23.1988 O   0  0  0  0  0  0  0  0  0  0  0  0
    7.9806    8.6543   20.5437 C   0  0  0  0  0  0  0  0  0  0  0  0
   13.7270    5.7144   19.8610 O   0  0  0  0  0  0  0  0  0  0  0  0
    8.3351    5.5235   15.4478 C   0  0  0  0  0  0  0  0  0  0  0  0
    8.7700    7.8434   21.3915 C   0  0  0  0  0  0  0  0  0  0  0  0
   11.7856    6.8851   19.2401 C   0  0  0  0  0  0  0  0  0  0  0  0
   10.5281    7.4276   19.5649 C   0  0  0  0  0  0  0  0  0  0  0  0
   10.0256    7.2907   20.8484 C   0  0  0  0  0  0  0  0  0  0  0  0
    9.3113    5.3049   14.4911 C   0  0  0  0  0  0  0  0  0  0  0  0
    9.4607    7.5646   16.0139 C   0  0  0  0  0  0  0  0  0  0  0  0
   10.4192    7.3157   15.0955 C   0  0  0  0  0  0  0  0  0  0  0  0
   10.2489    6.4227   23.0218 N   0  0  0  0  0  0  0  0  0  0  0  0
    7.2472    8.0746   23.5050 C   0  0  0  0  0  0  0  0  0  0  0  0
    9.2051    6.9101   23.4604 C   0  0  0  0  0  0  0  0  0  0  0  0
   11.9646    6.0299   21.4251 C   0  0  0  0  0  0  0  0  0  0  0  0
  1  5  1  0
  1 13  1  0
  2 20  2  0
  2 28  1  0
  2 29  1  0
  3 19  4  0
  3 25  4  0
  4 23  4  0
  4 27  1  0
  4 30  4  0
  5 17  1  0
  6  8  1  0
  6 29  1  0
  7 24  4  0
  7 26  4  0
  8 28  1  0
  9 13  2  0
 10 18  1  0
 10 21  4  0
 10 30  4  0
 11 17  2  0
 12 18  1  0
 13 15  1  0
 14 24  1  0
 15 25  1  0
 16 28  2  0
 17 20  1  0
 19 24  4  0
 20 23  1  0
 21 22  4  0
 22 23  4  0
 25 26  4  0
 27 29  2  0
M  END
$$$$

 Created by Python create_sdf_string function

 30 33  0  0  0  0  0  0  0  0999 V2000
    8.3036    9.8571   18.4133 C   0  0  0  0  0  0  0  0  0  0  0  0
    8.3694    7.6612   22.6703 C   0  0  0  0  0  0  0  0  0  0  0  0
    8.4143    6.6863   16.2273 C   0  0  0  0  0  0  0  0  0  0  0  0
   10.7581    6.5674   21.7636 C   0  0  0  0  0  0  0  0  0  0  0  0
    8.4452    8.7960   19.2958 O   0  0  0  0  0  0  0  0  0  0  0  0
    8.7122    6.7842   24.8569 C   0  0  0  0  0  0  0  0  0  0  0  0
   10.3400    6.1726   14.3081 C   0  0  0  0  0  0  0  0  0  0  0  0
    7.4297    7.5873   24.8962 C   0  0  0  0  0  0  0  0  0  0  0  0
    8.1566   10.0536   16.0516 O   0  0  0  0  0  0  0  0  0  0  0  0
   12.4989    6.2074   20.1776 C   0  0  0  0  0  0  0  0  0  0  0  0
    6.9192    9.1053   20.9073 O   0  0  0  0  0  0  0  0  0  0  0  0
   14.3979    6.0729   18.7784 C   0  0  0  0  0  0  0  0  0  0  0  0
    8.6811    9.5354   16.9998 C   0  0  0  0  0  0  0  0  0  0  0  0
    9.2512    4.2713   13.7653 O   0  0  0  0  0  0  0  0  0  0  0  0
    9.6495    8.6317   16.8332 N   0  0  0  0  0  0  0  0  0  0  0  0
    6.2934    8.6988   23.1988 O   0  0  0  0  0  0  0  0  0  0  0  0
    7.9806    8.6543   20.5437 C   0  0  0  0  0  0  0  0  0  0  0  0
   13.7270    5.7144   19.8610 O   0  0  0  0  0  0  0  0  0  0  0  0
    8.3351    5.5235   15.4478 C   0  0  0  0  0  0  0  0  0  0  0  0
    8.7700    7.8434   21.3915 C   0  0  0  0  0  0  0  0  0  0  0  0
   11.7856    6.8851   19.2401 C   0  0  0  0  0  0  0  0  0  0  0  0
   10.5281    7.4276   19.5649 C   0  0  0  0  0  0  0  0  0  0  0  0
   10.0256    7.2907   20.8484 C   0  0  0  0  0  0  0  0  0  0  0  0
    9.3113    5.3049   14.4911 C   0  0  0  0  0  0  0  0  0  0  0  0
    9.4607    7.5646   16.0139 C   0  0  0  0  0  0  0  0  0  0  0  0
   10.4192    7.3157   15.0955 C   0  0  0  0  0  0  0  0  0  0  0  0
   10.2489    6.4227   23.0218 N   0  0  0  0  0  0  0  0  0  0  0  0
    7.2472    8.0746   23.5050 C   0  0  0  0  0  0  0  0  0  0  0  0
    9.2051    6.9101   23.4604 C   0  0  0  0  0  0  0  0  0  0  0  0
   11.9646    6.0299   21.4251 C   0  0  0  0  0  0  0  0  0  0  0  0
  1  5  1  0
  1 13  1  0
  2 20  2  0
  2 28  1  0
  2 29  1  0
  3 19  4  0
  3 25  4  0
  4 23  4  0
  4 27  1  0
  4 30  4  0
  5 17  1  0
  6  8  1  0
  6 29  1  0
  7 24  4  0
  7 26  4  0
  8 28  1  0
  9 13  2  0
 10 18  1  0
 10 21  4  0
 10 30  4  0
 11 17  2  0
 12 18  1  0
 13 15  1  0
 14 24  1  0
 15 25  1  0
 16 28  2  0
 17 20  1  0
 19 24  4  0
 20 23  1  0
 21 22  4  0
 22 23  4  0
 25 26  4  0
 27 29  2  0
M  END
$$$$

 Created by Python create_sdf_string function

 30 33  0  0  0  0  0  0  0  0999 V2000
    8.3036    9.8571   18.4133 C   0  0  0  0  0  0  0  0  0  0  0  0
    8.3694    7.6612   22.6703 C   0  0  0  0  0  0  0  0  0  0  0  0
    8.4143    6.6863   16.2273 C   0  0  0  0  0  0  0  0  0  0  0  0
   10.7581    6.5674   21.7636 C   0  0  0  0  0  0  0  0  0  0  0  0
    8.4452    8.7960   19.2958 O   0  0  0  0  0  0  0  0  0  0  0  0
    8.7122    6.7842   24.8569 C   0  0  0  0  0  0  0  0  0  0  0  0
   10.3400    6.1726   14.3081 C   0  0  0  0  0  0  0  0  0  0  0  0
    7.4297    7.5873   24.8962 C   0  0  0  0  0  0  0  0  0  0  0  0
    8.1566   10.0536   16.0516 O   0  0  0  0  0  0  0  0  0  0  0  0
   12.4989    6.2074   20.1776 C   0  0  0  0  0  0  0  0  0  0  0  0
    6.9192    9.1053   20.9073 O   0  0  0  0  0  0  0  0  0  0  0  0
   14.3979    6.0729   18.7784 C   0  0  0  0  0  0  0  0  0  0  0  0
    8.6811    9.5354   16.9998 C   0  0  0  0  0  0  0  0  0  0  0  0
    9.2512    4.2713   13.7653 O   0  0  0  0  0  0  0  0  0  0  0  0
    9.6495    8.6317   16.8332 N   0  0  0  0  0  0  0  0  0  0  0  0
    6.2934    8.6988   23.1988 O   0  0  0  0  0  0  0  0  0  0  0  0
    7.9806    8.6543   20.5437 C   0  0  0  0  0  0  0  0  0  0  0  0
   13.7270    5.7144   19.8610 O   0  0  0  0  0  0  0  0  0  0  0  0
    8.3351    5.5235   15.4478 C   0  0  0  0  0  0  0  0  0  0  0  0
    8.7700    7.8434   21.3915 C   0  0  0  0  0  0  0  0  0  0  0  0
   11.7856    6.8851   19.2401 C   0  0  0  0  0  0  0  0  0  0  0  0
   10.5281    7.4276   19.5649 C   0  0  0  0  0  0  0  0  0  0  0  0
   10.0256    7.2907   20.8484 C   0  0  0  0  0  0  0  0  0  0  0  0
    9.3113    5.3049   14.4911 C   0  0  0  0  0  0  0  0  0  0  0  0
    9.4607    7.5646   16.0139 C   0  0  0  0  0  0  0  0  0  0  0  0
   10.4192    7.3157   15.0955 C   0  0  0  0  0  0  0  0  0  0  0  0
   10.2489    6.4227   23.0218 N   0  0  0  0  0  0  0  0  0  0  0  0
    7.2472    8.0746   23.5050 C   0  0  0  0  0  0  0  0  0  0  0  0
    9.2051    6.9101   23.4604 C   0  0  0  0  0  0  0  0  0  0  0  0
   11.9646    6.0299   21.4251 C   0  0  0  0  0  0  0  0  0  0  0  0
  1  5  1  0
  1 13  1  0
  2 20  2  0
  2 28  1  0
  2 29  1  0
  3 19  4  0
  3 25  4  0
  4 23  4  0
  4 27  1  0
  4 30  4  0
  5 17  1  0
  6  8  1  0
  6 29  1  0
  7 24  4  0
  7 26  4  0
  8 28  1  0
  9 13  2  0
 10 18  1  0
 10 21  4  0
 10 30  4  0
 11 17  2  0
 12 18  1  0
 13 15  1  0
 14 24  1  0
 15 25  1  0
 16 28  2  0
 17 20  1  0
 19 24  4  0
 20 23  1  0
 21 22  4  0
 22 23  4  0
 25 26  4  0
 27 29  2  0
M  END
$$$$

 Created by Python create_sdf_string function

 30 33  0  0  0  0  0  0  0  0999 V2000
    8.3036    9.8571   18.4133 C   0  0  0  0  0  0  0  0  0  0  0  0
    8.3694    7.6612   22.6703 C   0  0  0  0  0  0  0  0  0  0  0  0
    8.4143    6.6863   16.2273 C   0  0  0  0  0  0  0  0  0  0  0  0
   10.7581    6.5674   21.7636 C   0  0  0  0  0  0  0  0  0  0  0  0
    8.4452    8.7960   19.2958 O   0  0  0  0  0  0  0  0  0  0  0  0
    8.7122    6.7842   24.8569 C   0  0  0  0  0  0  0  0  0  0  0  0
   10.3400    6.1726   14.3081 C   0  0  0  0  0  0  0  0  0  0  0  0
    7.4297    7.5873   24.8962 C   0  0  0  0  0  0  0  0  0  0  0  0
    8.1566   10.0536   16.0516 O   0  0  0  0  0  0  0  0  0  0  0  0
   12.4989    6.2074   20.1776 C   0  0  0  0  0  0  0  0  0  0  0  0
    6.9192    9.1053   20.9073 O   0  0  0  0  0  0  0  0  0  0  0  0
   14.3979    6.0729   18.7784 C   0  0  0  0  0  0  0  0  0  0  0  0
    8.6811    9.5354   16.9998 C   0  0  0  0  0  0  0  0  0  0  0  0
    9.2512    4.2713   13.7653 O   0  0  0  0  0  0  0  0  0  0  0  0
    9.6495    8.6317   16.8332 N   0  0  0  0  0  0  0  0  0  0  0  0
    6.2934    8.6988   23.1988 O   0  0  0  0  0  0  0  0  0  0  0  0
    7.9806    8.6543   20.5437 C   0  0  0  0  0  0  0  0  0  0  0  0
   13.7270    5.7144   19.8610 O   0  0  0  0  0  0  0  0  0  0  0  0
    8.3351    5.5235   15.4478 C   0  0  0  0  0  0  0  0  0  0  0  0
    8.7700    7.8434   21.3915 C   0  0  0  0  0  0  0  0  0  0  0  0
   11.7856    6.8851   19.2401 C   0  0  0  0  0  0  0  0  0  0  0  0
   10.5281    7.4276   19.5649 C   0  0  0  0  0  0  0  0  0  0  0  0
   10.0256    7.2907   20.8484 C   0  0  0  0  0  0  0  0  0  0  0  0
    9.3113    5.3049   14.4911 C   0  0  0  0  0  0  0  0  0  0  0  0
    9.4607    7.5646   16.0139 C   0  0  0  0  0  0  0  0  0  0  0  0
   10.4192    7.3157   15.0955 C   0  0  0  0  0  0  0  0  0  0  0  0
   10.2489    6.4227   23.0218 N   0  0  0  0  0  0  0  0  0  0  0  0
    7.2472    8.0746   23.5050 C   0  0  0  0  0  0  0  0  0  0  0  0
    9.2051    6.9101   23.4604 C   0  0  0  0  0  0  0  0  0  0  0  0
   11.9646    6.0299   21.4251 C   0  0  0  0  0  0  0  0  0  0  0  0
  1  5  1  0
  1 13  1  0
  2 20  2  0
  2 28  1  0
  2 29  1  0
  3 19  4  0
  3 25  4  0
  4 23  4  0
  4 27  1  0
  4 30  4  0
  5 17  1  0
  6  8  1  0
  6 29  1  0
  7 24  4  0
  7 26  4  0
  8 28  1  0
  9 13  2  0
 10 18  1  0
 10 21  4  0
 10 30  4  0
 11 17  2  0
 12 18  1  0
 13 15  1  0
 14 24  1  0
 15 25  1  0
 16 28  2  0
 17 20  1  0
 19 24  4  0
 20 23  1  0
 21 22  4  0
 22 23  4  0
 25 26  4  0
 27 29  2  0
M  END
$$$$

 Created by Python create_sdf_string function

 30 33  0  0  0  0  0  0  0  0999 V2000
    8.3036    9.8571   18.4133 C   0  0  0  0  0  0  0  0  0  0  0  0
    8.3694    7.6612   22.6703 C   0  0  0  0  0  0  0  0  0  0  0  0
    8.4143    6.6863   16.2273 C   0  0  0  0  0  0  0  0  0  0  0  0
   10.7581    6.5674   21.7636 C   0  0  0  0  0  0  0  0  0  0  0  0
    8.4452    8.7960   19.2958 O   0  0  0  0  0  0  0  0  0  0  0  0
    8.7122    6.7842   24.8569 C   0  0  0  0  0  0  0  0  0  0  0  0
   10.3400    6.1726   14.3081 C   0  0  0  0  0  0  0  0  0  0  0  0
    7.4297    7.5873   24.8962 C   0  0  0  0  0  0  0  0  0  0  0  0
    8.1566   10.0536   16.0516 O   0  0  0  0  0  0  0  0  0  0  0  0
   12.4989    6.2074   20.1776 C   0  0  0  0  0  0  0  0  0  0  0  0
    6.9192    9.1053   20.9073 O   0  0  0  0  0  0  0  0  0  0  0  0
   14.3979    6.0729   18.7784 C   0  0  0  0  0  0  0  0  0  0  0  0
    8.6811    9.5354   16.9998 C   0  0  0  0  0  0  0  0  0  0  0  0
    9.2512    4.2713   13.7653 O   0  0  0  0  0  0  0  0  0  0  0  0
    9.6495    8.6317   16.8332 N   0  0  0  0  0  0  0  0  0  0  0  0
    6.2934    8.6988   23.1988 O   0  0  0  0  0  0  0  0  0  0  0  0
    7.9806    8.6543   20.5437 C   0  0  0  0  0  0  0  0  0  0  0  0
   13.7270    5.7144   19.8610 O   0  0  0  0  0  0  0  0  0  0  0  0
    8.3351    5.5235   15.4478 C   0  0  0  0  0  0  0  0  0  0  0  0
    8.7700    7.8434   21.3915 C   0  0  0  0  0  0  0  0  0  0  0  0
   11.7856    6.8851   19.2401 C   0  0  0  0  0  0  0  0  0  0  0  0
   10.5281    7.4276   19.5649 C   0  0  0  0  0  0  0  0  0  0  0  0
   10.0256    7.2907   20.8484 C   0  0  0  0  0  0  0  0  0  0  0  0
    9.3113    5.3049   14.4911 C   0  0  0  0  0  0  0  0  0  0  0  0
    9.4607    7.5646   16.0139 C   0  0  0  0  0  0  0  0  0  0  0  0
   10.4192    7.3157   15.0955 C   0  0  0  0  0  0  0  0  0  0  0  0
   10.2489    6.4227   23.0218 N   0  0  0  0  0  0  0  0  0  0  0  0
    7.2472    8.0746   23.5050 C   0  0  0  0  0  0  0  0  0  0  0  0
    9.2051    6.9101   23.4604 C   0  0  0  0  0  0  0  0  0  0  0  0
   11.9646    6.0299   21.4251 C   0  0  0  0  0  0  0  0  0  0  0  0
  1  5  1  0
  1 13  1  0
  2 20  2  0
  2 28  1  0
  2 29  1  0
  3 19  4  0
  3 25  4  0
  4 23  4  0
  4 27  1  0
  4 30  4  0
  5 17  1  0
  6  8  1  0
  6 29  1  0
  7 24  4  0
  7 26  4  0
  8 28  1  0
  9 13  2  0
 10 18  1  0
 10 21  4  0
 10 30  4  0
 11 17  2  0
 12 18  1  0
 13 15  1  0
 14 24  1  0
 15 25  1  0
 16 28  2  0
 17 20  1  0
 19 24  4  0
 20 23  1  0
 21 22  4  0
 22 23  4  0
 25 26  4  0
 27 29  2  0
M  END
$$$$

 Created by Python create_sdf_string function

 30 33  0  0  0  0  0  0  0  0999 V2000
    8.3036    9.8571   18.4133 C   0  0  0  0  0  0  0  0  0  0  0  0
    8.3694    7.6612   22.6703 C   0  0  0  0  0  0  0  0  0  0  0  0
    8.4143    6.6863   16.2273 C   0  0  0  0  0  0  0  0  0  0  0  0
   10.7581    6.5674   21.7636 C   0  0  0  0  0  0  0  0  0  0  0  0
    8.4452    8.7960   19.2958 O   0  0  0  0  0  0  0  0  0  0  0  0
    8.7122    6.7842   24.8569 C   0  0  0  0  0  0  0  0  0  0  0  0
   10.3400    6.1726   14.3081 C   0  0  0  0  0  0  0  0  0  0  0  0
    7.4297    7.5873   24.8962 C   0  0  0  0  0  0  0  0  0  0  0  0
    8.1566   10.0536   16.0516 O   0  0  0  0  0  0  0  0  0  0  0  0
   12.4989    6.2074   20.1776 C   0  0  0  0  0  0  0  0  0  0  0  0
    6.9192    9.1053   20.9073 O   0  0  0  0  0  0  0  0  0  0  0  0
   14.3979    6.0729   18.7784 C   0  0  0  0  0  0  0  0  0  0  0  0
    8.6811    9.5354   16.9998 C   0  0  0  0  0  0  0  0  0  0  0  0
    9.2512    4.2713   13.7653 O   0  0  0  0  0  0  0  0  0  0  0  0
    9.6495    8.6317   16.8332 N   0  0  0  0  0  0  0  0  0  0  0  0
    6.2934    8.6988   23.1988 O   0  0  0  0  0  0  0  0  0  0  0  0
    7.9806    8.6543   20.5437 C   0  0  0  0  0  0  0  0  0  0  0  0
   13.7270    5.7144   19.8610 O   0  0  0  0  0  0  0  0  0  0  0  0
    8.3351    5.5235   15.4478 C   0  0  0  0  0  0  0  0  0  0  0  0
    8.7700    7.8434   21.3915 C   0  0  0  0  0  0  0  0  0  0  0  0
   11.7856    6.8851   19.2401 C   0  0  0  0  0  0  0  0  0  0  0  0
   10.5281    7.4276   19.5649 C   0  0  0  0  0  0  0  0  0  0  0  0
   10.0256    7.2907   20.8484 C   0  0  0  0  0  0  0  0  0  0  0  0
    9.3113    5.3049   14.4911 C   0  0  0  0  0  0  0  0  0  0  0  0
    9.4607    7.5646   16.0139 C   0  0  0  0  0  0  0  0  0  0  0  0
   10.4192    7.3157   15.0955 C   0  0  0  0  0  0  0  0  0  0  0  0
   10.2489    6.4227   23.0218 N   0  0  0  0  0  0  0  0  0  0  0  0
    7.2472    8.0746   23.5050 C   0  0  0  0  0  0  0  0  0  0  0  0
    9.2051    6.9101   23.4604 C   0  0  0  0  0  0  0  0  0  0  0  0
   11.9646    6.0299   21.4251 C   0  0  0  0  0  0  0  0  0  0  0  0
  1  5  1  0
  1 13  1  0
  2 20  2  0
  2 28  1  0
  2 29  1  0
  3 19  4  0
  3 25  4  0
  4 23  4  0
  4 27  1  0
  4 30  4  0
  5 17  1  0
  6  8  1  0
  6 29  1  0
  7 24  4  0
  7 26  4  0
  8 28  1  0
  9 13  2  0
 10 18  1  0
 10 21  4  0
 10 30  4  0
 11 17  2  0
 12 18  1  0
 13 15  1  0
 14 24  1  0
 15 25  1  0
 16 28  2  0
 17 20  1  0
 19 24  4  0
 20 23  1  0
 21 22  4  0
 22 23  4  0
 25 26  4  0
 27 29  2  0
M  END
$$$$

 Created by Python create_sdf_string function

 30 33  0  0  0  0  0  0  0  0999 V2000
    8.3036    9.8571   18.4133 C   0  0  0  0  0  0  0  0  0  0  0  0
    8.3694    7.6612   22.6703 C   0  0  0  0  0  0  0  0  0  0  0  0
    8.4143    6.6863   16.2273 C   0  0  0  0  0  0  0  0  0  0  0  0
   10.7581    6.5674   21.7636 C   0  0  0  0  0  0  0  0  0  0  0  0
    8.4452    8.7960   19.2958 O   0  0  0  0  0  0  0  0  0  0  0  0
    8.7122    6.7842   24.8569 C   0  0  0  0  0  0  0  0  0  0  0  0
   10.3400    6.1726   14.3081 C   0  0  0  0  0  0  0  0  0  0  0  0
    7.4297    7.5873   24.8962 C   0  0  0  0  0  0  0  0  0  0  0  0
    8.1566   10.0536   16.0516 O   0  0  0  0  0  0  0  0  0  0  0  0
   12.4989    6.2074   20.1776 C   0  0  0  0  0  0  0  0  0  0  0  0
    6.9192    9.1053   20.9073 O   0  0  0  0  0  0  0  0  0  0  0  0
   14.3979    6.0729   18.7784 C   0  0  0  0  0  0  0  0  0  0  0  0
    8.6811    9.5354   16.9998 C   0  0  0  0  0  0  0  0  0  0  0  0
    9.2512    4.2713   13.7653 O   0  0  0  0  0  0  0  0  0  0  0  0
    9.6495    8.6317   16.8332 N   0  0  0  0  0  0  0  0  0  0  0  0
    6.2934    8.6988   23.1988 O   0  0  0  0  0  0  0  0  0  0  0  0
    7.9806    8.6543   20.5437 C   0  0  0  0  0  0  0  0  0  0  0  0
   13.7270    5.7144   19.8610 O   0  0  0  0  0  0  0  0  0  0  0  0
    8.3351    5.5235   15.4478 C   0  0  0  0  0  0  0  0  0  0  0  0
    8.7700    7.8434   21.3915 C   0  0  0  0  0  0  0  0  0  0  0  0
   11.7856    6.8851   19.2401 C   0  0  0  0  0  0  0  0  0  0  0  0
   10.5281    7.4276   19.5649 C   0  0  0  0  0  0  0  0  0  0  0  0
   10.0256    7.2907   20.8484 C   0  0  0  0  0  0  0  0  0  0  0  0
    9.3113    5.3049   14.4911 C   0  0  0  0  0  0  0  0  0  0  0  0
    9.4607    7.5646   16.0139 C   0  0  0  0  0  0  0  0  0  0  0  0
   10.4192    7.3157   15.0955 C   0  0  0  0  0  0  0  0  0  0  0  0
   10.2489    6.4227   23.0218 N   0  0  0  0  0  0  0  0  0  0  0  0
    7.2472    8.0746   23.5050 C   0  0  0  0  0  0  0  0  0  0  0  0
    9.2051    6.9101   23.4604 C   0  0  0  0  0  0  0  0  0  0  0  0
   11.9646    6.0299   21.4251 C   0  0  0  0  0  0  0  0  0  0  0  0
  1  5  1  0
  1 13  1  0
  2 20  2  0
  2 28  1  0
  2 29  1  0
  3 19  4  0
  3 25  4  0
  4 23  4  0
  4 27  1  0
  4 30  4  0
  5 17  1  0
  6  8  1  0
  6 29  1  0
  7 24  4  0
  7 26  4  0
  8 28  1  0
  9 13  2  0
 10 18  1  0
 10 21  4  0
 10 30  4  0
 11 17  2  0
 12 18  1  0
 13 15  1  0
 14 24  1  0
 15 25  1  0
 16 28  2  0
 17 20  1  0
 19 24  4  0
 20 23  1  0
 21 22  4  0
 22 23  4  0
 25 26  4  0
 27 29  2  0
M  END
$$$$

 Created by Python create_sdf_string function

 30 33  0  0  0  0  0  0  0  0999 V2000
    8.3036    9.8571   18.4133 C   0  0  0  0  0  0  0  0  0  0  0  0
    8.3694    7.6612   22.6703 C   0  0  0  0  0  0  0  0  0  0  0  0
    8.4143    6.6863   16.2273 C   0  0  0  0  0  0  0  0  0  0  0  0
   10.7581    6.5674   21.7636 C   0  0  0  0  0  0  0  0  0  0  0  0
    8.4452    8.7960   19.2958 O   0  0  0  0  0  0  0  0  0  0  0  0
    8.7122    6.7842   24.8569 C   0  0  0  0  0  0  0  0  0  0  0  0
   10.3400    6.1726   14.3081 C   0  0  0  0  0  0  0  0  0  0  0  0
    7.4297    7.5873   24.8962 C   0  0  0  0  0  0  0  0  0  0  0  0
    8.1566   10.0536   16.0516 O   0  0  0  0  0  0  0  0  0  0  0  0
   12.4989    6.2074   20.1776 C   0  0  0  0  0  0  0  0  0  0  0  0
    6.9192    9.1053   20.9073 O   0  0  0  0  0  0  0  0  0  0  0  0
   14.3979    6.0729   18.7784 C   0  0  0  0  0  0  0  0  0  0  0  0
    8.6811    9.5354   16.9998 C   0  0  0  0  0  0  0  0  0  0  0  0
    9.2512    4.2713   13.7653 O   0  0  0  0  0  0  0  0  0  0  0  0
    9.6495    8.6317   16.8332 N   0  0  0  0  0  0  0  0  0  0  0  0
    6.2934    8.6988   23.1988 O   0  0  0  0  0  0  0  0  0  0  0  0
    7.9806    8.6543   20.5437 C   0  0  0  0  0  0  0  0  0  0  0  0
   13.7270    5.7144   19.8610 O   0  0  0  0  0  0  0  0  0  0  0  0
    8.3351    5.5235   15.4478 C   0  0  0  0  0  0  0  0  0  0  0  0
    8.7700    7.8434   21.3915 C   0  0  0  0  0  0  0  0  0  0  0  0
   11.7856    6.8851   19.2401 C   0  0  0  0  0  0  0  0  0  0  0  0
   10.5281    7.4276   19.5649 C   0  0  0  0  0  0  0  0  0  0  0  0
   10.0256    7.2907   20.8484 C   0  0  0  0  0  0  0  0  0  0  0  0
    9.3113    5.3049   14.4911 C   0  0  0  0  0  0  0  0  0  0  0  0
    9.4607    7.5646   16.0139 C   0  0  0  0  0  0  0  0  0  0  0  0
   10.4192    7.3157   15.0955 C   0  0  0  0  0  0  0  0  0  0  0  0
   10.2489    6.4227   23.0218 N   0  0  0  0  0  0  0  0  0  0  0  0
    7.2472    8.0746   23.5050 C   0  0  0  0  0  0  0  0  0  0  0  0
    9.2051    6.9101   23.4604 C   0  0  0  0  0  0  0  0  0  0  0  0
   11.9646    6.0299   21.4251 C   0  0  0  0  0  0  0  0  0  0  0  0
  1  5  1  0
  1 13  1  0
  2 20  2  0
  2 28  1  0
  2 29  1  0
  3 19  4  0
  3 25  4  0
  4 23  4  0
  4 27  1  0
  4 30  4  0
  5 17  1  0
  6  8  1  0
  6 29  1  0
  7 24  4  0
  7 26  4  0
  8 28  1  0
  9 13  2  0
 10 18  1  0
 10 21  4  0
 10 30  4  0
 11 17  2  0
 12 18  1  0
 13 15  1  0
 14 24  1  0
 15 25  1  0
 16 28  2  0
 17 20  1  0
 19 24  4  0
 20 23  1  0
 21 22  4  0
 22 23  4  0
 25 26  4  0
 27 29  2  0
M  END
$$$$

 Created by Python create_sdf_string function

 30 33  0  0  0  0  0  0  0  0999 V2000
    8.3036    9.8571   18.4133 C   0  0  0  0  0  0  0  0  0  0  0  0
    8.3694    7.6612   22.6703 C   0  0  0  0  0  0  0  0  0  0  0  0
    8.4143    6.6863   16.2273 C   0  0  0  0  0  0  0  0  0  0  0  0
   10.7581    6.5674   21.7636 C   0  0  0  0  0  0  0  0  0  0  0  0
    8.4452    8.7960   19.2958 O   0  0  0  0  0  0  0  0  0  0  0  0
    8.7122    6.7842   24.8569 C   0  0  0  0  0  0  0  0  0  0  0  0
   10.3400    6.1726   14.3081 C   0  0  0  0  0  0  0  0  0  0  0  0
    7.4297    7.5873   24.8962 C   0  0  0  0  0  0  0  0  0  0  0  0
    8.1566   10.0536   16.0516 O   0  0  0  0  0  0  0  0  0  0  0  0
   12.4989    6.2074   20.1776 C   0  0  0  0  0  0  0  0  0  0  0  0
    6.9192    9.1053   20.9073 O   0  0  0  0  0  0  0  0  0  0  0  0
   14.3979    6.0729   18.7784 C   0  0  0  0  0  0  0  0  0  0  0  0
    8.6811    9.5354   16.9998 C   0  0  0  0  0  0  0  0  0  0  0  0
    9.2512    4.2713   13.7653 O   0  0  0  0  0  0  0  0  0  0  0  0
    9.6495    8.6317   16.8332 N   0  0  0  0  0  0  0  0  0  0  0  0
    6.2934    8.6988   23.1988 O   0  0  0  0  0  0  0  0  0  0  0  0
    7.9806    8.6543   20.5437 C   0  0  0  0  0  0  0  0  0  0  0  0
   13.7270    5.7144   19.8610 O   0  0  0  0  0  0  0  0  0  0  0  0
    8.3351    5.5235   15.4478 C   0  0  0  0  0  0  0  0  0  0  0  0
    8.7700    7.8434   21.3915 C   0  0  0  0  0  0  0  0  0  0  0  0
   11.7856    6.8851   19.2401 C   0  0  0  0  0  0  0  0  0  0  0  0
   10.5281    7.4276   19.5649 C   0  0  0  0  0  0  0  0  0  0  0  0
   10.0256    7.2907   20.8484 C   0  0  0  0  0  0  0  0  0  0  0  0
    9.3113    5.3049   14.4911 C   0  0  0  0  0  0  0  0  0  0  0  0
    9.4607    7.5646   16.0139 C   0  0  0  0  0  0  0  0  0  0  0  0
   10.4192    7.3157   15.0955 C   0  0  0  0  0  0  0  0  0  0  0  0
   10.2489    6.4227   23.0218 N   0  0  0  0  0  0  0  0  0  0  0  0
    7.2472    8.0746   23.5050 C   0  0  0  0  0  0  0  0  0  0  0  0
    9.2051    6.9101   23.4604 C   0  0  0  0  0  0  0  0  0  0  0  0
   11.9646    6.0299   21.4251 C   0  0  0  0  0  0  0  0  0  0  0  0
  1  5  1  0
  1 13  1  0
  2 20  2  0
  2 28  1  0
  2 29  1  0
  3 19  4  0
  3 25  4  0
  4 23  4  0
  4 27  1  0
  4 30  4  0
  5 17  1  0
  6  8  1  0
  6 29  1  0
  7 24  4  0
  7 26  4  0
  8 28  1  0
  9 13  2  0
 10 18  1  0
 10 21  4  0
 10 30  4  0
 11 17  2  0
 12 18  1  0
 13 15  1  0
 14 24  1  0
 15 25  1  0
 16 28  2  0
 17 20  1  0
 19 24  4  0
 20 23  1  0
 21 22  4  0
 22 23  4  0
 25 26  4  0
 27 29  2  0
M  END
$$$$

 Created by Python create_sdf_string function

 30 33  0  0  0  0  0  0  0  0999 V2000
    8.3036    9.8571   18.4133 C   0  0  0  0  0  0  0  0  0  0  0  0
    8.3694    7.6612   22.6703 C   0  0  0  0  0  0  0  0  0  0  0  0
    8.4143    6.6863   16.2273 C   0  0  0  0  0  0  0  0  0  0  0  0
   10.7581    6.5674   21.7636 C   0  0  0  0  0  0  0  0  0  0  0  0
    8.4452    8.7960   19.2958 O   0  0  0  0  0  0  0  0  0  0  0  0
    8.7122    6.7842   24.8569 C   0  0  0  0  0  0  0  0  0  0  0  0
   10.3400    6.1726   14.3081 C   0  0  0  0  0  0  0  0  0  0  0  0
    7.4297    7.5873   24.8962 C   0  0  0  0  0  0  0  0  0  0  0  0
    8.1566   10.0536   16.0516 O   0  0  0  0  0  0  0  0  0  0  0  0
   12.4989    6.2074   20.1776 C   0  0  0  0  0  0  0  0  0  0  0  0
    6.9192    9.1053   20.9073 O   0  0  0  0  0  0  0  0  0  0  0  0
   14.3979    6.0729   18.7784 C   0  0  0  0  0  0  0  0  0  0  0  0
    8.6811    9.5354   16.9998 C   0  0  0  0  0  0  0  0  0  0  0  0
    9.2512    4.2713   13.7653 O   0  0  0  0  0  0  0  0  0  0  0  0
    9.6495    8.6317   16.8332 N   0  0  0  0  0  0  0  0  0  0  0  0
    6.2934    8.6988   23.1988 O   0  0  0  0  0  0  0  0  0  0  0  0
    7.9806    8.6543   20.5437 C   0  0  0  0  0  0  0  0  0  0  0  0
   13.7270    5.7144   19.8610 O   0  0  0  0  0  0  0  0  0  0  0  0
    8.3351    5.5235   15.4478 C   0  0  0  0  0  0  0  0  0  0  0  0
    8.7700    7.8434   21.3915 C   0  0  0  0  0  0  0  0  0  0  0  0
   11.7856    6.8851   19.2401 C   0  0  0  0  0  0  0  0  0  0  0  0
   10.5281    7.4276   19.5649 C   0  0  0  0  0  0  0  0  0  0  0  0
   10.0256    7.2907   20.8484 C   0  0  0  0  0  0  0  0  0  0  0  0
    9.3113    5.3049   14.4911 C   0  0  0  0  0  0  0  0  0  0  0  0
    9.4607    7.5646   16.0139 C   0  0  0  0  0  0  0  0  0  0  0  0
   10.4192    7.3157   15.0955 C   0  0  0  0  0  0  0  0  0  0  0  0
   10.2489    6.4227   23.0218 N   0  0  0  0  0  0  0  0  0  0  0  0
    7.2472    8.0746   23.5050 C   0  0  0  0  0  0  0  0  0  0  0  0
    9.2051    6.9101   23.4604 C   0  0  0  0  0  0  0  0  0  0  0  0
   11.9646    6.0299   21.4251 C   0  0  0  0  0  0  0  0  0  0  0  0
  1  5  1  0
  1 13  1  0
  2 20  2  0
  2 28  1  0
  2 29  1  0
  3 19  4  0
  3 25  4  0
  4 23  4  0
  4 27  1  0
  4 30  4  0
  5 17  1  0
  6  8  1  0
  6 29  1  0
  7 24  4  0
  7 26  4  0
  8 28  1  0
  9 13  2  0
 10 18  1  0
 10 21  4  0
 10 30  4  0
 11 17  2  0
 12 18  1  0
 13 15  1  0
 14 24  1  0
 15 25  1  0
 16 28  2  0
 17 20  1  0
 19 24  4  0
 20 23  1  0
 21 22  4  0
 22 23  4  0
 25 26  4  0
 27 29  2  0
M  END
$$$$

 Created by Python create_sdf_string function

 30 33  0  0  0  0  0  0  0  0999 V2000
    8.3036    9.8571   18.4133 C   0  0  0  0  0  0  0  0  0  0  0  0
    8.3694    7.6612   22.6703 C   0  0  0  0  0  0  0  0  0  0  0  0
    8.4143    6.6863   16.2273 C   0  0  0  0  0  0  0  0  0  0  0  0
   10.7581    6.5674   21.7636 C   0  0  0  0  0  0  0  0  0  0  0  0
    8.4452    8.7960   19.2958 O   0  0  0  0  0  0  0  0  0  0  0  0
    8.7122    6.7842   24.8569 C   0  0  0  0  0  0  0  0  0  0  0  0
   10.3400    6.1726   14.3081 C   0  0  0  0  0  0  0  0  0  0  0  0
    7.4297    7.5873   24.8962 C   0  0  0  0  0  0  0  0  0  0  0  0
    8.1566   10.0536   16.0516 O   0  0  0  0  0  0  0  0  0  0  0  0
   12.4989    6.2074   20.1776 C   0  0  0  0  0  0  0  0  0  0  0  0
    6.9192    9.1053   20.9073 O   0  0  0  0  0  0  0  0  0  0  0  0
   14.3979    6.0729   18.7784 C   0  0  0  0  0  0  0  0  0  0  0  0
    8.6811    9.5354   16.9998 C   0  0  0  0  0  0  0  0  0  0  0  0
    9.2512    4.2713   13.7653 O   0  0  0  0  0  0  0  0  0  0  0  0
    9.6495    8.6317   16.8332 N   0  0  0  0  0  0  0  0  0  0  0  0
    6.2934    8.6988   23.1988 O   0  0  0  0  0  0  0  0  0  0  0  0
    7.9806    8.6543   20.5437 C   0  0  0  0  0  0  0  0  0  0  0  0
   13.7270    5.7144   19.8610 O   0  0  0  0  0  0  0  0  0  0  0  0
    8.3351    5.5235   15.4478 C   0  0  0  0  0  0  0  0  0  0  0  0
    8.7700    7.8434   21.3915 C   0  0  0  0  0  0  0  0  0  0  0  0
   11.7856    6.8851   19.2401 C   0  0  0  0  0  0  0  0  0  0  0  0
   10.5281    7.4276   19.5649 C   0  0  0  0  0  0  0  0  0  0  0  0
   10.0256    7.2907   20.8484 C   0  0  0  0  0  0  0  0  0  0  0  0
    9.3113    5.3049   14.4911 C   0  0  0  0  0  0  0  0  0  0  0  0
    9.4607    7.5646   16.0139 C   0  0  0  0  0  0  0  0  0  0  0  0
   10.4192    7.3157   15.0955 C   0  0  0  0  0  0  0  0  0  0  0  0
   10.2489    6.4227   23.0218 N   0  0  0  0  0  0  0  0  0  0  0  0
    7.2472    8.0746   23.5050 C   0  0  0  0  0  0  0  0  0  0  0  0
    9.2051    6.9101   23.4604 C   0  0  0  0  0  0  0  0  0  0  0  0
   11.9646    6.0299   21.4251 C   0  0  0  0  0  0  0  0  0  0  0  0
  1  5  1  0
  1 13  1  0
  2 20  2  0
  2 28  1  0
  2 29  1  0
  3 19  4  0
  3 25  4  0
  4 23  4  0
  4 27  1  0
  4 30  4  0
  5 17  1  0
  6  8  1  0
  6 29  1  0
  7 24  4  0
  7 26  4  0
  8 28  1  0
  9 13  2  0
 10 18  1  0
 10 21  4  0
 10 30  4  0
 11 17  2  0
 12 18  1  0
 13 15  1  0
 14 24  1  0
 15 25  1  0
 16 28  2  0
 17 20  1  0
 19 24  4  0
 20 23  1  0
 21 22  4  0
 22 23  4  0
 25 26  4  0
 27 29  2  0
M  END
$$$$

 Created by Python create_sdf_string function

 30 33  0  0  0  0  0  0  0  0999 V2000
    8.3036    9.8571   18.4133 C   0  0  0  0  0  0  0  0  0  0  0  0
    8.3694    7.6612   22.6703 C   0  0  0  0  0  0  0  0  0  0  0  0
    8.4143    6.6863   16.2273 C   0  0  0  0  0  0  0  0  0  0  0  0
   10.7581    6.5674   21.7636 C   0  0  0  0  0  0  0  0  0  0  0  0
    8.4452    8.7960   19.2958 O   0  0  0  0  0  0  0  0  0  0  0  0
    8.7122    6.7842   24.8569 C   0  0  0  0  0  0  0  0  0  0  0  0
   10.3400    6.1726   14.3081 C   0  0  0  0  0  0  0  0  0  0  0  0
    7.4297    7.5873   24.8962 C   0  0  0  0  0  0  0  0  0  0  0  0
    8.1566   10.0536   16.0516 O   0  0  0  0  0  0  0  0  0  0  0  0
   12.4989    6.2074   20.1776 C   0  0  0  0  0  0  0  0  0  0  0  0
    6.9192    9.1053   20.9073 O   0  0  0  0  0  0  0  0  0  0  0  0
   14.3979    6.0729   18.7784 C   0  0  0  0  0  0  0  0  0  0  0  0
    8.6811    9.5354   16.9998 C   0  0  0  0  0  0  0  0  0  0  0  0
    9.2512    4.2713   13.7653 O   0  0  0  0  0  0  0  0  0  0  0  0
    9.6495    8.6317   16.8332 N   0  0  0  0  0  0  0  0  0  0  0  0
    6.2934    8.6988   23.1988 O   0  0  0  0  0  0  0  0  0  0  0  0
    7.9806    8.6543   20.5437 C   0  0  0  0  0  0  0  0  0  0  0  0
   13.7270    5.7144   19.8610 O   0  0  0  0  0  0  0  0  0  0  0  0
    8.3351    5.5235   15.4478 C   0  0  0  0  0  0  0  0  0  0  0  0
    8.7700    7.8434   21.3915 C   0  0  0  0  0  0  0  0  0  0  0  0
   11.7856    6.8851   19.2401 C   0  0  0  0  0  0  0  0  0  0  0  0
   10.5281    7.4276   19.5649 C   0  0  0  0  0  0  0  0  0  0  0  0
   10.0256    7.2907   20.8484 C   0  0  0  0  0  0  0  0  0  0  0  0
    9.3113    5.3049   14.4911 C   0  0  0  0  0  0  0  0  0  0  0  0
    9.4607    7.5646   16.0139 C   0  0  0  0  0  0  0  0  0  0  0  0
   10.4192    7.3157   15.0955 C   0  0  0  0  0  0  0  0  0  0  0  0
   10.2489    6.4227   23.0218 N   0  0  0  0  0  0  0  0  0  0  0  0
    7.2472    8.0746   23.5050 C   0  0  0  0  0  0  0  0  0  0  0  0
    9.2051    6.9101   23.4604 C   0  0  0  0  0  0  0  0  0  0  0  0
   11.9646    6.0299   21.4251 C   0  0  0  0  0  0  0  0  0  0  0  0
  1  5  1  0
  1 13  1  0
  2 20  2  0
  2 28  1  0
  2 29  1  0
  3 19  4  0
  3 25  4  0
  4 23  4  0
  4 27  1  0
  4 30  4  0
  5 17  1  0
  6  8  1  0
  6 29  1  0
  7 24  4  0
  7 26  4  0
  8 28  1  0
  9 13  2  0
 10 18  1  0
 10 21  4  0
 10 30  4  0
 11 17  2  0
 12 18  1  0
 13 15  1  0
 14 24  1  0
 15 25  1  0
 16 28  2  0
 17 20  1  0
 19 24  4  0
 20 23  1  0
 21 22  4  0
 22 23  4  0
 25 26  4  0
 27 29  2  0
M  END
$$$$

 Created by Python create_sdf_string function

 30 33  0  0  0  0  0  0  0  0999 V2000
    8.3036    9.8571   18.4133 C   0  0  0  0  0  0  0  0  0  0  0  0
    8.3694    7.6612   22.6703 C   0  0  0  0  0  0  0  0  0  0  0  0
    8.4143    6.6863   16.2273 C   0  0  0  0  0  0  0  0  0  0  0  0
   10.7581    6.5674   21.7636 C   0  0  0  0  0  0  0  0  0  0  0  0
    8.4452    8.7960   19.2958 O   0  0  0  0  0  0  0  0  0  0  0  0
    8.7122    6.7842   24.8569 C   0  0  0  0  0  0  0  0  0  0  0  0
   10.3400    6.1726   14.3081 C   0  0  0  0  0  0  0  0  0  0  0  0
    7.4297    7.5873   24.8962 C   0  0  0  0  0  0  0  0  0  0  0  0
    8.1566   10.0536   16.0516 O   0  0  0  0  0  0  0  0  0  0  0  0
   12.4989    6.2074   20.1776 C   0  0  0  0  0  0  0  0  0  0  0  0
    6.9192    9.1053   20.9073 O   0  0  0  0  0  0  0  0  0  0  0  0
   14.3979    6.0729   18.7784 C   0  0  0  0  0  0  0  0  0  0  0  0
    8.6811    9.5354   16.9998 C   0  0  0  0  0  0  0  0  0  0  0  0
    9.2512    4.2713   13.7653 O   0  0  0  0  0  0  0  0  0  0  0  0
    9.6495    8.6317   16.8332 N   0  0  0  0  0  0  0  0  0  0  0  0
    6.2934    8.6988   23.1988 O   0  0  0  0  0  0  0  0  0  0  0  0
    7.9806    8.6543   20.5437 C   0  0  0  0  0  0  0  0  0  0  0  0
   13.7270    5.7144   19.8610 O   0  0  0  0  0  0  0  0  0  0  0  0
    8.3351    5.5235   15.4478 C   0  0  0  0  0  0  0  0  0  0  0  0
    8.7700    7.8434   21.3915 C   0  0  0  0  0  0  0  0  0  0  0  0
   11.7856    6.8851   19.2401 C   0  0  0  0  0  0  0  0  0  0  0  0
   10.5281    7.4276   19.5649 C   0  0  0  0  0  0  0  0  0  0  0  0
   10.0256    7.2907   20.8484 C   0  0  0  0  0  0  0  0  0  0  0  0
    9.3113    5.3049   14.4911 C   0  0  0  0  0  0  0  0  0  0  0  0
    9.4607    7.5646   16.0139 C   0  0  0  0  0  0  0  0  0  0  0  0
   10.4192    7.3157   15.0955 C   0  0  0  0  0  0  0  0  0  0  0  0
   10.2489    6.4227   23.0218 N   0  0  0  0  0  0  0  0  0  0  0  0
    7.2472    8.0746   23.5050 C   0  0  0  0  0  0  0  0  0  0  0  0
    9.2051    6.9101   23.4604 C   0  0  0  0  0  0  0  0  0  0  0  0
   11.9646    6.0299   21.4251 C   0  0  0  0  0  0  0  0  0  0  0  0
  1  5  1  0
  1 13  1  0
  2 20  2  0
  2 28  1  0
  2 29  1  0
  3 19  4  0
  3 25  4  0
  4 23  4  0
  4 27  1  0
  4 30  4  0
  5 17  1  0
  6  8  1  0
  6 29  1  0
  7 24  4  0
  7 26  4  0
  8 28  1  0
  9 13  2  0
 10 18  1  0
 10 21  4  0
 10 30  4  0
 11 17  2  0
 12 18  1  0
 13 15  1  0
 14 24  1  0
 15 25  1  0
 16 28  2  0
 17 20  1  0
 19 24  4  0
 20 23  1  0
 21 22  4  0
 22 23  4  0
 25 26  4  0
 27 29  2  0
M  END
$$$$

 Created by Python create_sdf_string function

 30 33  0  0  0  0  0  0  0  0999 V2000
    8.3036    9.8571   18.4133 C   0  0  0  0  0  0  0  0  0  0  0  0
    8.3694    7.6612   22.6703 C   0  0  0  0  0  0  0  0  0  0  0  0
    8.4143    6.6863   16.2273 C   0  0  0  0  0  0  0  0  0  0  0  0
   10.7581    6.5674   21.7636 C   0  0  0  0  0  0  0  0  0  0  0  0
    8.4452    8.7960   19.2958 O   0  0  0  0  0  0  0  0  0  0  0  0
    8.7122    6.7842   24.8569 C   0  0  0  0  0  0  0  0  0  0  0  0
   10.3400    6.1726   14.3081 C   0  0  0  0  0  0  0  0  0  0  0  0
    7.4297    7.5873   24.8962 C   0  0  0  0  0  0  0  0  0  0  0  0
    8.1566   10.0536   16.0516 O   0  0  0  0  0  0  0  0  0  0  0  0
   12.4989    6.2074   20.1776 C   0  0  0  0  0  0  0  0  0  0  0  0
    6.9192    9.1053   20.9073 O   0  0  0  0  0  0  0  0  0  0  0  0
   14.3979    6.0729   18.7784 C   0  0  0  0  0  0  0  0  0  0  0  0
    8.6811    9.5354   16.9998 C   0  0  0  0  0  0  0  0  0  0  0  0
    9.2512    4.2713   13.7653 O   0  0  0  0  0  0  0  0  0  0  0  0
    9.6495    8.6317   16.8332 N   0  0  0  0  0  0  0  0  0  0  0  0
    6.2934    8.6988   23.1988 O   0  0  0  0  0  0  0  0  0  0  0  0
    7.9806    8.6543   20.5437 C   0  0  0  0  0  0  0  0  0  0  0  0
   13.7270    5.7144   19.8610 O   0  0  0  0  0  0  0  0  0  0  0  0
    8.3351    5.5235   15.4478 C   0  0  0  0  0  0  0  0  0  0  0  0
    8.7700    7.8434   21.3915 C   0  0  0  0  0  0  0  0  0  0  0  0
   11.7856    6.8851   19.2401 C   0  0  0  0  0  0  0  0  0  0  0  0
   10.5281    7.4276   19.5649 C   0  0  0  0  0  0  0  0  0  0  0  0
   10.0256    7.2907   20.8484 C   0  0  0  0  0  0  0  0  0  0  0  0
    9.3113    5.3049   14.4911 C   0  0  0  0  0  0  0  0  0  0  0  0
    9.4607    7.5646   16.0139 C   0  0  0  0  0  0  0  0  0  0  0  0
   10.4192    7.3157   15.0955 C   0  0  0  0  0  0  0  0  0  0  0  0
   10.2489    6.4227   23.0218 N   0  0  0  0  0  0  0  0  0  0  0  0
    7.2472    8.0746   23.5050 C   0  0  0  0  0  0  0  0  0  0  0  0
    9.2051    6.9101   23.4604 C   0  0  0  0  0  0  0  0  0  0  0  0
   11.9646    6.0299   21.4251 C   0  0  0  0  0  0  0  0  0  0  0  0
  1  5  1  0
  1 13  1  0
  2 20  2  0
  2 28  1  0
  2 29  1  0
  3 19  4  0
  3 25  4  0
  4 23  4  0
  4 27  1  0
  4 30  4  0
  5 17  1  0
  6  8  1  0
  6 29  1  0
  7 24  4  0
  7 26  4  0
  8 28  1  0
  9 13  2  0
 10 18  1  0
 10 21  4  0
 10 30  4  0
 11 17  2  0
 12 18  1  0
 13 15  1  0
 14 24  1  0
 15 25  1  0
 16 28  2  0
 17 20  1  0
 19 24  4  0
 20 23  1  0
 21 22  4  0
 22 23  4  0
 25 26  4  0
 27 29  2  0
M  END
$$$$

 Created by Python create_sdf_string function

 30 33  0  0  0  0  0  0  0  0999 V2000
    8.3036    9.8571   18.4133 C   0  0  0  0  0  0  0  0  0  0  0  0
    8.3694    7.6612   22.6703 C   0  0  0  0  0  0  0  0  0  0  0  0
    8.4143    6.6863   16.2273 C   0  0  0  0  0  0  0  0  0  0  0  0
   10.7581    6.5674   21.7636 C   0  0  0  0  0  0  0  0  0  0  0  0
    8.4452    8.7960   19.2958 O   0  0  0  0  0  0  0  0  0  0  0  0
    8.7122    6.7842   24.8569 C   0  0  0  0  0  0  0  0  0  0  0  0
   10.3400    6.1726   14.3081 C   0  0  0  0  0  0  0  0  0  0  0  0
    7.4297    7.5873   24.8962 C   0  0  0  0  0  0  0  0  0  0  0  0
    8.1566   10.0536   16.0516 O   0  0  0  0  0  0  0  0  0  0  0  0
   12.4989    6.2074   20.1776 C   0  0  0  0  0  0  0  0  0  0  0  0
    6.9192    9.1053   20.9073 O   0  0  0  0  0  0  0  0  0  0  0  0
   14.3979    6.0729   18.7784 C   0  0  0  0  0  0  0  0  0  0  0  0
    8.6811    9.5354   16.9998 C   0  0  0  0  0  0  0  0  0  0  0  0
    9.2512    4.2713   13.7653 O   0  0  0  0  0  0  0  0  0  0  0  0
    9.6495    8.6317   16.8332 N   0  0  0  0  0  0  0  0  0  0  0  0
    6.2934    8.6988   23.1988 O   0  0  0  0  0  0  0  0  0  0  0  0
    7.9806    8.6543   20.5437 C   0  0  0  0  0  0  0  0  0  0  0  0
   13.7270    5.7144   19.8610 O   0  0  0  0  0  0  0  0  0  0  0  0
    8.3351    5.5235   15.4478 C   0  0  0  0  0  0  0  0  0  0  0  0
    8.7700    7.8434   21.3915 C   0  0  0  0  0  0  0  0  0  0  0  0
   11.7856    6.8851   19.2401 C   0  0  0  0  0  0  0  0  0  0  0  0
   10.5281    7.4276   19.5649 C   0  0  0  0  0  0  0  0  0  0  0  0
   10.0256    7.2907   20.8484 C   0  0  0  0  0  0  0  0  0  0  0  0
    9.3113    5.3049   14.4911 C   0  0  0  0  0  0  0  0  0  0  0  0
    9.4607    7.5646   16.0139 C   0  0  0  0  0  0  0  0  0  0  0  0
   10.4192    7.3157   15.0955 C   0  0  0  0  0  0  0  0  0  0  0  0
   10.2489    6.4227   23.0218 N   0  0  0  0  0  0  0  0  0  0  0  0
    7.2472    8.0746   23.5050 C   0  0  0  0  0  0  0  0  0  0  0  0
    9.2051    6.9101   23.4604 C   0  0  0  0  0  0  0  0  0  0  0  0
   11.9646    6.0299   21.4251 C   0  0  0  0  0  0  0  0  0  0  0  0
  1  5  1  0
  1 13  1  0
  2 20  2  0
  2 28  1  0
  2 29  1  0
  3 19  4  0
  3 25  4  0
  4 23  4  0
  4 27  1  0
  4 30  4  0
  5 17  1  0
  6  8  1  0
  6 29  1  0
  7 24  4  0
  7 26  4  0
  8 28  1  0
  9 13  2  0
 10 18  1  0
 10 21  4  0
 10 30  4  0
 11 17  2  0
 12 18  1  0
 13 15  1  0
 14 24  1  0
 15 25  1  0
 16 28  2  0
 17 20  1  0
 19 24  4  0
 20 23  1  0
 21 22  4  0
 22 23  4  0
 25 26  4  0
 27 29  2  0
M  END
$$$$

 Created by Python create_sdf_string function

 30 33  0  0  0  0  0  0  0  0999 V2000
    8.3036    9.8571   18.4133 C   0  0  0  0  0  0  0  0  0  0  0  0
    8.3694    7.6612   22.6703 C   0  0  0  0  0  0  0  0  0  0  0  0
    8.4143    6.6863   16.2273 C   0  0  0  0  0  0  0  0  0  0  0  0
   10.7581    6.5674   21.7636 C   0  0  0  0  0  0  0  0  0  0  0  0
    8.4452    8.7960   19.2958 O   0  0  0  0  0  0  0  0  0  0  0  0
    8.7122    6.7842   24.8569 C   0  0  0  0  0  0  0  0  0  0  0  0
   10.3400    6.1726   14.3081 C   0  0  0  0  0  0  0  0  0  0  0  0
    7.4297    7.5873   24.8962 C   0  0  0  0  0  0  0  0  0  0  0  0
    8.1566   10.0536   16.0516 O   0  0  0  0  0  0  0  0  0  0  0  0
   12.4989    6.2074   20.1776 C   0  0  0  0  0  0  0  0  0  0  0  0
    6.9192    9.1053   20.9073 O   0  0  0  0  0  0  0  0  0  0  0  0
   14.3979    6.0729   18.7784 C   0  0  0  0  0  0  0  0  0  0  0  0
    8.6811    9.5354   16.9998 C   0  0  0  0  0  0  0  0  0  0  0  0
    9.2512    4.2713   13.7653 O   0  0  0  0  0  0  0  0  0  0  0  0
    9.6495    8.6317   16.8332 N   0  0  0  0  0  0  0  0  0  0  0  0
    6.2934    8.6988   23.1988 O   0  0  0  0  0  0  0  0  0  0  0  0
    7.9806    8.6543   20.5437 C   0  0  0  0  0  0  0  0  0  0  0  0
   13.7270    5.7144   19.8610 O   0  0  0  0  0  0  0  0  0  0  0  0
    8.3351    5.5235   15.4478 C   0  0  0  0  0  0  0  0  0  0  0  0
    8.7700    7.8434   21.3915 C   0  0  0  0  0  0  0  0  0  0  0  0
   11.7856    6.8851   19.2401 C   0  0  0  0  0  0  0  0  0  0  0  0
   10.5281    7.4276   19.5649 C   0  0  0  0  0  0  0  0  0  0  0  0
   10.0256    7.2907   20.8484 C   0  0  0  0  0  0  0  0  0  0  0  0
    9.3113    5.3049   14.4911 C   0  0  0  0  0  0  0  0  0  0  0  0
    9.4607    7.5646   16.0139 C   0  0  0  0  0  0  0  0  0  0  0  0
   10.4192    7.3157   15.0955 C   0  0  0  0  0  0  0  0  0  0  0  0
   10.2489    6.4227   23.0218 N   0  0  0  0  0  0  0  0  0  0  0  0
    7.2472    8.0746   23.5050 C   0  0  0  0  0  0  0  0  0  0  0  0
    9.2051    6.9101   23.4604 C   0  0  0  0  0  0  0  0  0  0  0  0
   11.9646    6.0299   21.4251 C   0  0  0  0  0  0  0  0  0  0  0  0
  1  5  1  0
  1 13  1  0
  2 20  2  0
  2 28  1  0
  2 29  1  0
  3 19  4  0
  3 25  4  0
  4 23  4  0
  4 27  1  0
  4 30  4  0
  5 17  1  0
  6  8  1  0
  6 29  1  0
  7 24  4  0
  7 26  4  0
  8 28  1  0
  9 13  2  0
 10 18  1  0
 10 21  4  0
 10 30  4  0
 11 17  2  0
 12 18  1  0
 13 15  1  0
 14 24  1  0
 15 25  1  0
 16 28  2  0
 17 20  1  0
 19 24  4  0
 20 23  1  0
 21 22  4  0
 22 23  4  0
 25 26  4  0
 27 29  2  0
M  END
$$$$

 Created by Python create_sdf_string function

 30 33  0  0  0  0  0  0  0  0999 V2000
    8.3036    9.8571   18.4133 C   0  0  0  0  0  0  0  0  0  0  0  0
    8.3694    7.6612   22.6703 C   0  0  0  0  0  0  0  0  0  0  0  0
    8.4143    6.6863   16.2273 C   0  0  0  0  0  0  0  0  0  0  0  0
   10.7581    6.5674   21.7636 C   0  0  0  0  0  0  0  0  0  0  0  0
    8.4452    8.7960   19.2958 O   0  0  0  0  0  0  0  0  0  0  0  0
    8.7122    6.7842   24.8569 C   0  0  0  0  0  0  0  0  0  0  0  0
   10.3400    6.1726   14.3081 C   0  0  0  0  0  0  0  0  0  0  0  0
    7.4297    7.5873   24.8962 C   0  0  0  0  0  0  0  0  0  0  0  0
    8.1566   10.0536   16.0516 O   0  0  0  0  0  0  0  0  0  0  0  0
   12.4989    6.2074   20.1776 C   0  0  0  0  0  0  0  0  0  0  0  0
    6.9192    9.1053   20.9073 O   0  0  0  0  0  0  0  0  0  0  0  0
   14.3979    6.0729   18.7784 C   0  0  0  0  0  0  0  0  0  0  0  0
    8.6811    9.5354   16.9998 C   0  0  0  0  0  0  0  0  0  0  0  0
    9.2512    4.2713   13.7653 O   0  0  0  0  0  0  0  0  0  0  0  0
    9.6495    8.6317   16.8332 N   0  0  0  0  0  0  0  0  0  0  0  0
    6.2934    8.6988   23.1988 O   0  0  0  0  0  0  0  0  0  0  0  0
    7.9806    8.6543   20.5437 C   0  0  0  0  0  0  0  0  0  0  0  0
   13.7270    5.7144   19.8610 O   0  0  0  0  0  0  0  0  0  0  0  0
    8.3351    5.5235   15.4478 C   0  0  0  0  0  0  0  0  0  0  0  0
    8.7700    7.8434   21.3915 C   0  0  0  0  0  0  0  0  0  0  0  0
   11.7856    6.8851   19.2401 C   0  0  0  0  0  0  0  0  0  0  0  0
   10.5281    7.4276   19.5649 C   0  0  0  0  0  0  0  0  0  0  0  0
   10.0256    7.2907   20.8484 C   0  0  0  0  0  0  0  0  0  0  0  0
    9.3113    5.3049   14.4911 C   0  0  0  0  0  0  0  0  0  0  0  0
    9.4607    7.5646   16.0139 C   0  0  0  0  0  0  0  0  0  0  0  0
   10.4192    7.3157   15.0955 C   0  0  0  0  0  0  0  0  0  0  0  0
   10.2489    6.4227   23.0218 N   0  0  0  0  0  0  0  0  0  0  0  0
    7.2472    8.0746   23.5050 C   0  0  0  0  0  0  0  0  0  0  0  0
    9.2051    6.9101   23.4604 C   0  0  0  0  0  0  0  0  0  0  0  0
   11.9646    6.0299   21.4251 C   0  0  0  0  0  0  0  0  0  0  0  0
  1  5  1  0
  1 13  1  0
  2 20  2  0
  2 28  1  0
  2 29  1  0
  3 19  4  0
  3 25  4  0
  4 23  4  0
  4 27  1  0
  4 30  4  0
  5 17  1  0
  6  8  1  0
  6 29  1  0
  7 24  4  0
  7 26  4  0
  8 28  1  0
  9 13  2  0
 10 18  1  0
 10 21  4  0
 10 30  4  0
 11 17  2  0
 12 18  1  0
 13 15  1  0
 14 24  1  0
 15 25  1  0
 16 28  2  0
 17 20  1  0
 19 24  4  0
 20 23  1  0
 21 22  4  0
 22 23  4  0
 25 26  4  0
 27 29  2  0
M  END
$$$$

 Created by Python create_sdf_string function

 30 33  0  0  0  0  0  0  0  0999 V2000
    8.3036    9.8571   18.4133 C   0  0  0  0  0  0  0  0  0  0  0  0
    8.3694    7.6612   22.6703 C   0  0  0  0  0  0  0  0  0  0  0  0
    8.4143    6.6863   16.2273 C   0  0  0  0  0  0  0  0  0  0  0  0
   10.7581    6.5674   21.7636 C   0  0  0  0  0  0  0  0  0  0  0  0
    8.4452    8.7960   19.2958 O   0  0  0  0  0  0  0  0  0  0  0  0
    8.7122    6.7842   24.8569 C   0  0  0  0  0  0  0  0  0  0  0  0
   10.3400    6.1726   14.3081 C   0  0  0  0  0  0  0  0  0  0  0  0
    7.4297    7.5873   24.8962 C   0  0  0  0  0  0  0  0  0  0  0  0
    8.1566   10.0536   16.0516 O   0  0  0  0  0  0  0  0  0  0  0  0
   12.4989    6.2074   20.1776 C   0  0  0  0  0  0  0  0  0  0  0  0
    6.9192    9.1053   20.9073 O   0  0  0  0  0  0  0  0  0  0  0  0
   14.3979    6.0729   18.7784 C   0  0  0  0  0  0  0  0  0  0  0  0
    8.6811    9.5354   16.9998 C   0  0  0  0  0  0  0  0  0  0  0  0
    9.2512    4.2713   13.7653 O   0  0  0  0  0  0  0  0  0  0  0  0
    9.6495    8.6317   16.8332 N   0  0  0  0  0  0  0  0  0  0  0  0
    6.2934    8.6988   23.1988 O   0  0  0  0  0  0  0  0  0  0  0  0
    7.9806    8.6543   20.5437 C   0  0  0  0  0  0  0  0  0  0  0  0
   13.7270    5.7144   19.8610 O   0  0  0  0  0  0  0  0  0  0  0  0
    8.3351    5.5235   15.4478 C   0  0  0  0  0  0  0  0  0  0  0  0
    8.7700    7.8434   21.3915 C   0  0  0  0  0  0  0  0  0  0  0  0
   11.7856    6.8851   19.2401 C   0  0  0  0  0  0  0  0  0  0  0  0
   10.5281    7.4276   19.5649 C   0  0  0  0  0  0  0  0  0  0  0  0
   10.0256    7.2907   20.8484 C   0  0  0  0  0  0  0  0  0  0  0  0
    9.3113    5.3049   14.4911 C   0  0  0  0  0  0  0  0  0  0  0  0
    9.4607    7.5646   16.0139 C   0  0  0  0  0  0  0  0  0  0  0  0
   10.4192    7.3157   15.0955 C   0  0  0  0  0  0  0  0  0  0  0  0
   10.2489    6.4227   23.0218 N   0  0  0  0  0  0  0  0  0  0  0  0
    7.2472    8.0746   23.5050 C   0  0  0  0  0  0  0  0  0  0  0  0
    9.2051    6.9101   23.4604 C   0  0  0  0  0  0  0  0  0  0  0  0
   11.9646    6.0299   21.4251 C   0  0  0  0  0  0  0  0  0  0  0  0
  1  5  1  0
  1 13  1  0
  2 20  2  0
  2 28  1  0
  2 29  1  0
  3 19  4  0
  3 25  4  0
  4 23  4  0
  4 27  1  0
  4 30  4  0
  5 17  1  0
  6  8  1  0
  6 29  1  0
  7 24  4  0
  7 26  4  0
  8 28  1  0
  9 13  2  0
 10 18  1  0
 10 21  4  0
 10 30  4  0
 11 17  2  0
 12 18  1  0
 13 15  1  0
 14 24  1  0
 15 25  1  0
 16 28  2  0
 17 20  1  0
 19 24  4  0
 20 23  1  0
 21 22  4  0
 22 23  4  0
 25 26  4  0
 27 29  2  0
M  END
$$$$

 Created by Python create_sdf_string function

 30 33  0  0  0  0  0  0  0  0999 V2000
    8.3036    9.8571   18.4133 C   0  0  0  0  0  0  0  0  0  0  0  0
    8.3694    7.6612   22.6703 C   0  0  0  0  0  0  0  0  0  0  0  0
    8.4143    6.6863   16.2273 C   0  0  0  0  0  0  0  0  0  0  0  0
   10.7581    6.5674   21.7636 C   0  0  0  0  0  0  0  0  0  0  0  0
    8.4452    8.7960   19.2958 O   0  0  0  0  0  0  0  0  0  0  0  0
    8.7122    6.7842   24.8569 C   0  0  0  0  0  0  0  0  0  0  0  0
   10.3400    6.1726   14.3081 C   0  0  0  0  0  0  0  0  0  0  0  0
    7.4297    7.5873   24.8962 C   0  0  0  0  0  0  0  0  0  0  0  0
    8.1566   10.0536   16.0516 O   0  0  0  0  0  0  0  0  0  0  0  0
   12.4989    6.2074   20.1776 C   0  0  0  0  0  0  0  0  0  0  0  0
    6.9192    9.1053   20.9073 O   0  0  0  0  0  0  0  0  0  0  0  0
   14.3979    6.0729   18.7784 C   0  0  0  0  0  0  0  0  0  0  0  0
    8.6811    9.5354   16.9998 C   0  0  0  0  0  0  0  0  0  0  0  0
    9.2512    4.2713   13.7653 O   0  0  0  0  0  0  0  0  0  0  0  0
    9.6495    8.6317   16.8332 N   0  0  0  0  0  0  0  0  0  0  0  0
    6.2934    8.6988   23.1988 O   0  0  0  0  0  0  0  0  0  0  0  0
    7.9806    8.6543   20.5437 C   0  0  0  0  0  0  0  0  0  0  0  0
   13.7270    5.7144   19.8610 O   0  0  0  0  0  0  0  0  0  0  0  0
    8.3351    5.5235   15.4478 C   0  0  0  0  0  0  0  0  0  0  0  0
    8.7700    7.8434   21.3915 C   0  0  0  0  0  0  0  0  0  0  0  0
   11.7856    6.8851   19.2401 C   0  0  0  0  0  0  0  0  0  0  0  0
   10.5281    7.4276   19.5649 C   0  0  0  0  0  0  0  0  0  0  0  0
   10.0256    7.2907   20.8484 C   0  0  0  0  0  0  0  0  0  0  0  0
    9.3113    5.3049   14.4911 C   0  0  0  0  0  0  0  0  0  0  0  0
    9.4607    7.5646   16.0139 C   0  0  0  0  0  0  0  0  0  0  0  0
   10.4192    7.3157   15.0955 C   0  0  0  0  0  0  0  0  0  0  0  0
   10.2489    6.4227   23.0218 N   0  0  0  0  0  0  0  0  0  0  0  0
    7.2472    8.0746   23.5050 C   0  0  0  0  0  0  0  0  0  0  0  0
    9.2051    6.9101   23.4604 C   0  0  0  0  0  0  0  0  0  0  0  0
   11.9646    6.0299   21.4251 C   0  0  0  0  0  0  0  0  0  0  0  0
  1  5  1  0
  1 13  1  0
  2 20  2  0
  2 28  1  0
  2 29  1  0
  3 19  4  0
  3 25  4  0
  4 23  4  0
  4 27  1  0
  4 30  4  0
  5 17  1  0
  6  8  1  0
  6 29  1  0
  7 24  4  0
  7 26  4  0
  8 28  1  0
  9 13  2  0
 10 18  1  0
 10 21  4  0
 10 30  4  0
 11 17  2  0
 12 18  1  0
 13 15  1  0
 14 24  1  0
 15 25  1  0
 16 28  2  0
 17 20  1  0
 19 24  4  0
 20 23  1  0
 21 22  4  0
 22 23  4  0
 25 26  4  0
 27 29  2  0
M  END
$$$$

 Created by Python create_sdf_string function

 30 33  0  0  0  0  0  0  0  0999 V2000
    8.3036    9.8571   18.4133 C   0  0  0  0  0  0  0  0  0  0  0  0
    8.3694    7.6612   22.6703 C   0  0  0  0  0  0  0  0  0  0  0  0
    8.4143    6.6863   16.2273 C   0  0  0  0  0  0  0  0  0  0  0  0
   10.7581    6.5674   21.7636 C   0  0  0  0  0  0  0  0  0  0  0  0
    8.4452    8.7960   19.2958 O   0  0  0  0  0  0  0  0  0  0  0  0
    8.7122    6.7842   24.8569 C   0  0  0  0  0  0  0  0  0  0  0  0
   10.3400    6.1726   14.3081 C   0  0  0  0  0  0  0  0  0  0  0  0
    7.4297    7.5873   24.8962 C   0  0  0  0  0  0  0  0  0  0  0  0
    8.1566   10.0536   16.0516 O   0  0  0  0  0  0  0  0  0  0  0  0
   12.4989    6.2074   20.1776 C   0  0  0  0  0  0  0  0  0  0  0  0
    6.9192    9.1053   20.9073 O   0  0  0  0  0  0  0  0  0  0  0  0
   14.3979    6.0729   18.7784 C   0  0  0  0  0  0  0  0  0  0  0  0
    8.6811    9.5354   16.9998 C   0  0  0  0  0  0  0  0  0  0  0  0
    9.2512    4.2713   13.7653 O   0  0  0  0  0  0  0  0  0  0  0  0
    9.6495    8.6317   16.8332 N   0  0  0  0  0  0  0  0  0  0  0  0
    6.2934    8.6988   23.1988 O   0  0  0  0  0  0  0  0  0  0  0  0
    7.9806    8.6543   20.5437 C   0  0  0  0  0  0  0  0  0  0  0  0
   13.7270    5.7144   19.8610 O   0  0  0  0  0  0  0  0  0  0  0  0
    8.3351    5.5235   15.4478 C   0  0  0  0  0  0  0  0  0  0  0  0
    8.7700    7.8434   21.3915 C   0  0  0  0  0  0  0  0  0  0  0  0
   11.7856    6.8851   19.2401 C   0  0  0  0  0  0  0  0  0  0  0  0
   10.5281    7.4276   19.5649 C   0  0  0  0  0  0  0  0  0  0  0  0
   10.0256    7.2907   20.8484 C   0  0  0  0  0  0  0  0  0  0  0  0
    9.3113    5.3049   14.4911 C   0  0  0  0  0  0  0  0  0  0  0  0
    9.4607    7.5646   16.0139 C   0  0  0  0  0  0  0  0  0  0  0  0
   10.4192    7.3157   15.0955 C   0  0  0  0  0  0  0  0  0  0  0  0
   10.2489    6.4227   23.0218 N   0  0  0  0  0  0  0  0  0  0  0  0
    7.2472    8.0746   23.5050 C   0  0  0  0  0  0  0  0  0  0  0  0
    9.2051    6.9101   23.4604 C   0  0  0  0  0  0  0  0  0  0  0  0
   11.9646    6.0299   21.4251 C   0  0  0  0  0  0  0  0  0  0  0  0
  1  5  1  0
  1 13  1  0
  2 20  2  0
  2 28  1  0
  2 29  1  0
  3 19  4  0
  3 25  4  0
  4 23  4  0
  4 27  1  0
  4 30  4  0
  5 17  1  0
  6  8  1  0
  6 29  1  0
  7 24  4  0
  7 26  4  0
  8 28  1  0
  9 13  2  0
 10 18  1  0
 10 21  4  0
 10 30  4  0
 11 17  2  0
 12 18  1  0
 13 15  1  0
 14 24  1  0
 15 25  1  0
 16 28  2  0
 17 20  1  0
 19 24  4  0
 20 23  1  0
 21 22  4  0
 22 23  4  0
 25 26  4  0
 27 29  2  0
M  END
$$$$

 Created by Python create_sdf_string function

 30 33  0  0  0  0  0  0  0  0999 V2000
    8.3036    9.8571   18.4133 C   0  0  0  0  0  0  0  0  0  0  0  0
    8.3694    7.6612   22.6703 C   0  0  0  0  0  0  0  0  0  0  0  0
    8.4143    6.6863   16.2273 C   0  0  0  0  0  0  0  0  0  0  0  0
   10.7581    6.5674   21.7636 C   0  0  0  0  0  0  0  0  0  0  0  0
    8.4452    8.7960   19.2958 O   0  0  0  0  0  0  0  0  0  0  0  0
    8.7122    6.7842   24.8569 C   0  0  0  0  0  0  0  0  0  0  0  0
   10.3400    6.1726   14.3081 C   0  0  0  0  0  0  0  0  0  0  0  0
    7.4297    7.5873   24.8962 C   0  0  0  0  0  0  0  0  0  0  0  0
    8.1566   10.0536   16.0516 O   0  0  0  0  0  0  0  0  0  0  0  0
   12.4989    6.2074   20.1776 C   0  0  0  0  0  0  0  0  0  0  0  0
    6.9192    9.1053   20.9073 O   0  0  0  0  0  0  0  0  0  0  0  0
   14.3979    6.0729   18.7784 C   0  0  0  0  0  0  0  0  0  0  0  0
    8.6811    9.5354   16.9998 C   0  0  0  0  0  0  0  0  0  0  0  0
    9.2512    4.2713   13.7653 O   0  0  0  0  0  0  0  0  0  0  0  0
    9.6495    8.6317   16.8332 N   0  0  0  0  0  0  0  0  0  0  0  0
    6.2934    8.6988   23.1988 O   0  0  0  0  0  0  0  0  0  0  0  0
    7.9806    8.6543   20.5437 C   0  0  0  0  0  0  0  0  0  0  0  0
   13.7270    5.7144   19.8610 O   0  0  0  0  0  0  0  0  0  0  0  0
    8.3351    5.5235   15.4478 C   0  0  0  0  0  0  0  0  0  0  0  0
    8.7700    7.8434   21.3915 C   0  0  0  0  0  0  0  0  0  0  0  0
   11.7856    6.8851   19.2401 C   0  0  0  0  0  0  0  0  0  0  0  0
   10.5281    7.4276   19.5649 C   0  0  0  0  0  0  0  0  0  0  0  0
   10.0256    7.2907   20.8484 C   0  0  0  0  0  0  0  0  0  0  0  0
    9.3113    5.3049   14.4911 C   0  0  0  0  0  0  0  0  0  0  0  0
    9.4607    7.5646   16.0139 C   0  0  0  0  0  0  0  0  0  0  0  0
   10.4192    7.3157   15.0955 C   0  0  0  0  0  0  0  0  0  0  0  0
   10.2489    6.4227   23.0218 N   0  0  0  0  0  0  0  0  0  0  0  0
    7.2472    8.0746   23.5050 C   0  0  0  0  0  0  0  0  0  0  0  0
    9.2051    6.9101   23.4604 C   0  0  0  0  0  0  0  0  0  0  0  0
   11.9646    6.0299   21.4251 C   0  0  0  0  0  0  0  0  0  0  0  0
  1  5  1  0
  1 13  1  0
  2 20  2  0
  2 28  1  0
  2 29  1  0
  3 19  4  0
  3 25  4  0
  4 23  4  0
  4 27  1  0
  4 30  4  0
  5 17  1  0
  6  8  1  0
  6 29  1  0
  7 24  4  0
  7 26  4  0
  8 28  1  0
  9 13  2  0
 10 18  1  0
 10 21  4  0
 10 30  4  0
 11 17  2  0
 12 18  1  0
 13 15  1  0
 14 24  1  0
 15 25  1  0
 16 28  2  0
 17 20  1  0
 19 24  4  0
 20 23  1  0
 21 22  4  0
 22 23  4  0
 25 26  4  0
 27 29  2  0
M  END
$$$$

 Created by Python create_sdf_string function

 30 33  0  0  0  0  0  0  0  0999 V2000
    8.3036    9.8571   18.4133 C   0  0  0  0  0  0  0  0  0  0  0  0
    8.3694    7.6612   22.6703 C   0  0  0  0  0  0  0  0  0  0  0  0
    8.4143    6.6863   16.2273 C   0  0  0  0  0  0  0  0  0  0  0  0
   10.7581    6.5674   21.7636 C   0  0  0  0  0  0  0  0  0  0  0  0
    8.4452    8.7960   19.2958 O   0  0  0  0  0  0  0  0  0  0  0  0
    8.7122    6.7842   24.8569 C   0  0  0  0  0  0  0  0  0  0  0  0
   10.3400    6.1726   14.3081 C   0  0  0  0  0  0  0  0  0  0  0  0
    7.4297    7.5873   24.8962 C   0  0  0  0  0  0  0  0  0  0  0  0
    8.1566   10.0536   16.0516 O   0  0  0  0  0  0  0  0  0  0  0  0
   12.4989    6.2074   20.1776 C   0  0  0  0  0  0  0  0  0  0  0  0
    6.9192    9.1053   20.9073 O   0  0  0  0  0  0  0  0  0  0  0  0
   14.3979    6.0729   18.7784 C   0  0  0  0  0  0  0  0  0  0  0  0
    8.6811    9.5354   16.9998 C   0  0  0  0  0  0  0  0  0  0  0  0
    9.2512    4.2713   13.7653 O   0  0  0  0  0  0  0  0  0  0  0  0
    9.6495    8.6317   16.8332 N   0  0  0  0  0  0  0  0  0  0  0  0
    6.2934    8.6988   23.1988 O   0  0  0  0  0  0  0  0  0  0  0  0
    7.9806    8.6543   20.5437 C   0  0  0  0  0  0  0  0  0  0  0  0
   13.7270    5.7144   19.8610 O   0  0  0  0  0  0  0  0  0  0  0  0
    8.3351    5.5235   15.4478 C   0  0  0  0  0  0  0  0  0  0  0  0
    8.7700    7.8434   21.3915 C   0  0  0  0  0  0  0  0  0  0  0  0
   11.7856    6.8851   19.2401 C   0  0  0  0  0  0  0  0  0  0  0  0
   10.5281    7.4276   19.5649 C   0  0  0  0  0  0  0  0  0  0  0  0
   10.0256    7.2907   20.8484 C   0  0  0  0  0  0  0  0  0  0  0  0
    9.3113    5.3049   14.4911 C   0  0  0  0  0  0  0  0  0  0  0  0
    9.4607    7.5646   16.0139 C   0  0  0  0  0  0  0  0  0  0  0  0
   10.4192    7.3157   15.0955 C   0  0  0  0  0  0  0  0  0  0  0  0
   10.2489    6.4227   23.0218 N   0  0  0  0  0  0  0  0  0  0  0  0
    7.2472    8.0746   23.5050 C   0  0  0  0  0  0  0  0  0  0  0  0
    9.2051    6.9101   23.4604 C   0  0  0  0  0  0  0  0  0  0  0  0
   11.9646    6.0299   21.4251 C   0  0  0  0  0  0  0  0  0  0  0  0
  1  5  1  0
  1 13  1  0
  2 20  2  0
  2 28  1  0
  2 29  1  0
  3 19  4  0
  3 25  4  0
  4 23  4  0
  4 27  1  0
  4 30  4  0
  5 17  1  0
  6  8  1  0
  6 29  1  0
  7 24  4  0
  7 26  4  0
  8 28  1  0
  9 13  2  0
 10 18  1  0
 10 21  4  0
 10 30  4  0
 11 17  2  0
 12 18  1  0
 13 15  1  0
 14 24  1  0
 15 25  1  0
 16 28  2  0
 17 20  1  0
 19 24  4  0
 20 23  1  0
 21 22  4  0
 22 23  4  0
 25 26  4  0
 27 29  2  0
M  END
$$$$

 Created by Python create_sdf_string function

 30 33  0  0  0  0  0  0  0  0999 V2000
    8.3036    9.8571   18.4133 C   0  0  0  0  0  0  0  0  0  0  0  0
    8.3694    7.6612   22.6703 C   0  0  0  0  0  0  0  0  0  0  0  0
    8.4143    6.6863   16.2273 C   0  0  0  0  0  0  0  0  0  0  0  0
   10.7581    6.5674   21.7636 C   0  0  0  0  0  0  0  0  0  0  0  0
    8.4452    8.7960   19.2958 O   0  0  0  0  0  0  0  0  0  0  0  0
    8.7122    6.7842   24.8569 C   0  0  0  0  0  0  0  0  0  0  0  0
   10.3400    6.1726   14.3081 C   0  0  0  0  0  0  0  0  0  0  0  0
    7.4297    7.5873   24.8962 C   0  0  0  0  0  0  0  0  0  0  0  0
    8.1566   10.0536   16.0516 O   0  0  0  0  0  0  0  0  0  0  0  0
   12.4989    6.2074   20.1776 C   0  0  0  0  0  0  0  0  0  0  0  0
    6.9192    9.1053   20.9073 O   0  0  0  0  0  0  0  0  0  0  0  0
   14.3979    6.0729   18.7784 C   0  0  0  0  0  0  0  0  0  0  0  0
    8.6811    9.5354   16.9998 C   0  0  0  0  0  0  0  0  0  0  0  0
    9.2512    4.2713   13.7653 O   0  0  0  0  0  0  0  0  0  0  0  0
    9.6495    8.6317   16.8332 N   0  0  0  0  0  0  0  0  0  0  0  0
    6.2934    8.6988   23.1988 O   0  0  0  0  0  0  0  0  0  0  0  0
    7.9806    8.6543   20.5437 C   0  0  0  0  0  0  0  0  0  0  0  0
   13.7270    5.7144   19.8610 O   0  0  0  0  0  0  0  0  0  0  0  0
    8.3351    5.5235   15.4478 C   0  0  0  0  0  0  0  0  0  0  0  0
    8.7700    7.8434   21.3915 C   0  0  0  0  0  0  0  0  0  0  0  0
   11.7856    6.8851   19.2401 C   0  0  0  0  0  0  0  0  0  0  0  0
   10.5281    7.4276   19.5649 C   0  0  0  0  0  0  0  0  0  0  0  0
   10.0256    7.2907   20.8484 C   0  0  0  0  0  0  0  0  0  0  0  0
    9.3113    5.3049   14.4911 C   0  0  0  0  0  0  0  0  0  0  0  0
    9.4607    7.5646   16.0139 C   0  0  0  0  0  0  0  0  0  0  0  0
   10.4192    7.3157   15.0955 C   0  0  0  0  0  0  0  0  0  0  0  0
   10.2489    6.4227   23.0218 N   0  0  0  0  0  0  0  0  0  0  0  0
    7.2472    8.0746   23.5050 C   0  0  0  0  0  0  0  0  0  0  0  0
    9.2051    6.9101   23.4604 C   0  0  0  0  0  0  0  0  0  0  0  0
   11.9646    6.0299   21.4251 C   0  0  0  0  0  0  0  0  0  0  0  0
  1  5  1  0
  1 13  1  0
  2 20  2  0
  2 28  1  0
  2 29  1  0
  3 19  4  0
  3 25  4  0
  4 23  4  0
  4 27  1  0
  4 30  4  0
  5 17  1  0
  6  8  1  0
  6 29  1  0
  7 24  4  0
  7 26  4  0
  8 28  1  0
  9 13  2  0
 10 18  1  0
 10 21  4  0
 10 30  4  0
 11 17  2  0
 12 18  1  0
 13 15  1  0
 14 24  1  0
 15 25  1  0
 16 28  2  0
 17 20  1  0
 19 24  4  0
 20 23  1  0
 21 22  4  0
 22 23  4  0
 25 26  4  0
 27 29  2  0
M  END
$$$$

 Created by Python create_sdf_string function

 30 33  0  0  0  0  0  0  0  0999 V2000
    8.3036    9.8571   18.4133 C   0  0  0  0  0  0  0  0  0  0  0  0
    8.3694    7.6612   22.6703 C   0  0  0  0  0  0  0  0  0  0  0  0
    8.4143    6.6863   16.2273 C   0  0  0  0  0  0  0  0  0  0  0  0
   10.7581    6.5674   21.7636 C   0  0  0  0  0  0  0  0  0  0  0  0
    8.4452    8.7960   19.2958 O   0  0  0  0  0  0  0  0  0  0  0  0
    8.7122    6.7842   24.8569 C   0  0  0  0  0  0  0  0  0  0  0  0
   10.3400    6.1726   14.3081 C   0  0  0  0  0  0  0  0  0  0  0  0
    7.4297    7.5873   24.8962 C   0  0  0  0  0  0  0  0  0  0  0  0
    8.1566   10.0536   16.0516 O   0  0  0  0  0  0  0  0  0  0  0  0
   12.4989    6.2074   20.1776 C   0  0  0  0  0  0  0  0  0  0  0  0
    6.9192    9.1053   20.9073 O   0  0  0  0  0  0  0  0  0  0  0  0
   14.3979    6.0729   18.7784 C   0  0  0  0  0  0  0  0  0  0  0  0
    8.6811    9.5354   16.9998 C   0  0  0  0  0  0  0  0  0  0  0  0
    9.2512    4.2713   13.7653 O   0  0  0  0  0  0  0  0  0  0  0  0
    9.6495    8.6317   16.8332 N   0  0  0  0  0  0  0  0  0  0  0  0
    6.2934    8.6988   23.1988 O   0  0  0  0  0  0  0  0  0  0  0  0
    7.9806    8.6543   20.5437 C   0  0  0  0  0  0  0  0  0  0  0  0
   13.7270    5.7144   19.8610 O   0  0  0  0  0  0  0  0  0  0  0  0
    8.3351    5.5235   15.4478 C   0  0  0  0  0  0  0  0  0  0  0  0
    8.7700    7.8434   21.3915 C   0  0  0  0  0  0  0  0  0  0  0  0
   11.7856    6.8851   19.2401 C   0  0  0  0  0  0  0  0  0  0  0  0
   10.5281    7.4276   19.5649 C   0  0  0  0  0  0  0  0  0  0  0  0
   10.0256    7.2907   20.8484 C   0  0  0  0  0  0  0  0  0  0  0  0
    9.3113    5.3049   14.4911 C   0  0  0  0  0  0  0  0  0  0  0  0
    9.4607    7.5646   16.0139 C   0  0  0  0  0  0  0  0  0  0  0  0
   10.4192    7.3157   15.0955 C   0  0  0  0  0  0  0  0  0  0  0  0
   10.2489    6.4227   23.0218 N   0  0  0  0  0  0  0  0  0  0  0  0
    7.2472    8.0746   23.5050 C   0  0  0  0  0  0  0  0  0  0  0  0
    9.2051    6.9101   23.4604 C   0  0  0  0  0  0  0  0  0  0  0  0
   11.9646    6.0299   21.4251 C   0  0  0  0  0  0  0  0  0  0  0  0
  1  5  1  0
  1 13  1  0
  2 20  2  0
  2 28  1  0
  2 29  1  0
  3 19  4  0
  3 25  4  0
  4 23  4  0
  4 27  1  0
  4 30  4  0
  5 17  1  0
  6  8  1  0
  6 29  1  0
  7 24  4  0
  7 26  4  0
  8 28  1  0
  9 13  2  0
 10 18  1  0
 10 21  4  0
 10 30  4  0
 11 17  2  0
 12 18  1  0
 13 15  1  0
 14 24  1  0
 15 25  1  0
 16 28  2  0
 17 20  1  0
 19 24  4  0
 20 23  1  0
 21 22  4  0
 22 23  4  0
 25 26  4  0
 27 29  2  0
M  END
$$$$

 Created by Python create_sdf_string function

 30 33  0  0  0  0  0  0  0  0999 V2000
    8.3036    9.8571   18.4133 C   0  0  0  0  0  0  0  0  0  0  0  0
    8.3694    7.6612   22.6703 C   0  0  0  0  0  0  0  0  0  0  0  0
    8.4143    6.6863   16.2273 C   0  0  0  0  0  0  0  0  0  0  0  0
   10.7581    6.5674   21.7636 C   0  0  0  0  0  0  0  0  0  0  0  0
    8.4452    8.7960   19.2958 O   0  0  0  0  0  0  0  0  0  0  0  0
    8.7122    6.7842   24.8569 C   0  0  0  0  0  0  0  0  0  0  0  0
   10.3400    6.1726   14.3081 C   0  0  0  0  0  0  0  0  0  0  0  0
    7.4297    7.5873   24.8962 C   0  0  0  0  0  0  0  0  0  0  0  0
    8.1566   10.0536   16.0516 O   0  0  0  0  0  0  0  0  0  0  0  0
   12.4989    6.2074   20.1776 C   0  0  0  0  0  0  0  0  0  0  0  0
    6.9192    9.1053   20.9073 O   0  0  0  0  0  0  0  0  0  0  0  0
   14.3979    6.0729   18.7784 C   0  0  0  0  0  0  0  0  0  0  0  0
    8.6811    9.5354   16.9998 C   0  0  0  0  0  0  0  0  0  0  0  0
    9.2512    4.2713   13.7653 O   0  0  0  0  0  0  0  0  0  0  0  0
    9.6495    8.6317   16.8332 N   0  0  0  0  0  0  0  0  0  0  0  0
    6.2934    8.6988   23.1988 O   0  0  0  0  0  0  0  0  0  0  0  0
    7.9806    8.6543   20.5437 C   0  0  0  0  0  0  0  0  0  0  0  0
   13.7270    5.7144   19.8610 O   0  0  0  0  0  0  0  0  0  0  0  0
    8.3351    5.5235   15.4478 C   0  0  0  0  0  0  0  0  0  0  0  0
    8.7700    7.8434   21.3915 C   0  0  0  0  0  0  0  0  0  0  0  0
   11.7856    6.8851   19.2401 C   0  0  0  0  0  0  0  0  0  0  0  0
   10.5281    7.4276   19.5649 C   0  0  0  0  0  0  0  0  0  0  0  0
   10.0256    7.2907   20.8484 C   0  0  0  0  0  0  0  0  0  0  0  0
    9.3113    5.3049   14.4911 C   0  0  0  0  0  0  0  0  0  0  0  0
    9.4607    7.5646   16.0139 C   0  0  0  0  0  0  0  0  0  0  0  0
   10.4192    7.3157   15.0955 C   0  0  0  0  0  0  0  0  0  0  0  0
   10.2489    6.4227   23.0218 N   0  0  0  0  0  0  0  0  0  0  0  0
    7.2472    8.0746   23.5050 C   0  0  0  0  0  0  0  0  0  0  0  0
    9.2051    6.9101   23.4604 C   0  0  0  0  0  0  0  0  0  0  0  0
   11.9646    6.0299   21.4251 C   0  0  0  0  0  0  0  0  0  0  0  0
  1  5  1  0
  1 13  1  0
  2 20  2  0
  2 28  1  0
  2 29  1  0
  3 19  4  0
  3 25  4  0
  4 23  4  0
  4 27  1  0
  4 30  4  0
  5 17  1  0
  6  8  1  0
  6 29  1  0
  7 24  4  0
  7 26  4  0
  8 28  1  0
  9 13  2  0
 10 18  1  0
 10 21  4  0
 10 30  4  0
 11 17  2  0
 12 18  1  0
 13 15  1  0
 14 24  1  0
 15 25  1  0
 16 28  2  0
 17 20  1  0
 19 24  4  0
 20 23  1  0
 21 22  4  0
 22 23  4  0
 25 26  4  0
 27 29  2  0
M  END
$$$$

 Created by Python create_sdf_string function

 30 33  0  0  0  0  0  0  0  0999 V2000
    8.3036    9.8571   18.4133 C   0  0  0  0  0  0  0  0  0  0  0  0
    8.3694    7.6612   22.6703 C   0  0  0  0  0  0  0  0  0  0  0  0
    8.4143    6.6863   16.2273 C   0  0  0  0  0  0  0  0  0  0  0  0
   10.7581    6.5674   21.7636 C   0  0  0  0  0  0  0  0  0  0  0  0
    8.4452    8.7960   19.2958 O   0  0  0  0  0  0  0  0  0  0  0  0
    8.7122    6.7842   24.8569 C   0  0  0  0  0  0  0  0  0  0  0  0
   10.3400    6.1726   14.3081 C   0  0  0  0  0  0  0  0  0  0  0  0
    7.4297    7.5873   24.8962 C   0  0  0  0  0  0  0  0  0  0  0  0
    8.1566   10.0536   16.0516 O   0  0  0  0  0  0  0  0  0  0  0  0
   12.4989    6.2074   20.1776 C   0  0  0  0  0  0  0  0  0  0  0  0
    6.9192    9.1053   20.9073 O   0  0  0  0  0  0  0  0  0  0  0  0
   14.3979    6.0729   18.7784 C   0  0  0  0  0  0  0  0  0  0  0  0
    8.6811    9.5354   16.9998 C   0  0  0  0  0  0  0  0  0  0  0  0
    9.2512    4.2713   13.7653 O   0  0  0  0  0  0  0  0  0  0  0  0
    9.6495    8.6317   16.8332 N   0  0  0  0  0  0  0  0  0  0  0  0
    6.2934    8.6988   23.1988 O   0  0  0  0  0  0  0  0  0  0  0  0
    7.9806    8.6543   20.5437 C   0  0  0  0  0  0  0  0  0  0  0  0
   13.7270    5.7144   19.8610 O   0  0  0  0  0  0  0  0  0  0  0  0
    8.3351    5.5235   15.4478 C   0  0  0  0  0  0  0  0  0  0  0  0
    8.7700    7.8434   21.3915 C   0  0  0  0  0  0  0  0  0  0  0  0
   11.7856    6.8851   19.2401 C   0  0  0  0  0  0  0  0  0  0  0  0
   10.5281    7.4276   19.5649 C   0  0  0  0  0  0  0  0  0  0  0  0
   10.0256    7.2907   20.8484 C   0  0  0  0  0  0  0  0  0  0  0  0
    9.3113    5.3049   14.4911 C   0  0  0  0  0  0  0  0  0  0  0  0
    9.4607    7.5646   16.0139 C   0  0  0  0  0  0  0  0  0  0  0  0
   10.4192    7.3157   15.0955 C   0  0  0  0  0  0  0  0  0  0  0  0
   10.2489    6.4227   23.0218 N   0  0  0  0  0  0  0  0  0  0  0  0
    7.2472    8.0746   23.5050 C   0  0  0  0  0  0  0  0  0  0  0  0
    9.2051    6.9101   23.4604 C   0  0  0  0  0  0  0  0  0  0  0  0
   11.9646    6.0299   21.4251 C   0  0  0  0  0  0  0  0  0  0  0  0
  1  5  1  0
  1 13  1  0
  2 20  2  0
  2 28  1  0
  2 29  1  0
  3 19  4  0
  3 25  4  0
  4 23  4  0
  4 27  1  0
  4 30  4  0
  5 17  1  0
  6  8  1  0
  6 29  1  0
  7 24  4  0
  7 26  4  0
  8 28  1  0
  9 13  2  0
 10 18  1  0
 10 21  4  0
 10 30  4  0
 11 17  2  0
 12 18  1  0
 13 15  1  0
 14 24  1  0
 15 25  1  0
 16 28  2  0
 17 20  1  0
 19 24  4  0
 20 23  1  0
 21 22  4  0
 22 23  4  0
 25 26  4  0
 27 29  2  0
M  END
$$$$

 Created by Python create_sdf_string function

 30 33  0  0  0  0  0  0  0  0999 V2000
    8.3036    9.8571   18.4133 C   0  0  0  0  0  0  0  0  0  0  0  0
    8.3694    7.6612   22.6703 C   0  0  0  0  0  0  0  0  0  0  0  0
    8.4143    6.6863   16.2273 C   0  0  0  0  0  0  0  0  0  0  0  0
   10.7581    6.5674   21.7636 C   0  0  0  0  0  0  0  0  0  0  0  0
    8.4452    8.7960   19.2958 O   0  0  0  0  0  0  0  0  0  0  0  0
    8.7122    6.7842   24.8569 C   0  0  0  0  0  0  0  0  0  0  0  0
   10.3400    6.1726   14.3081 C   0  0  0  0  0  0  0  0  0  0  0  0
    7.4297    7.5873   24.8962 C   0  0  0  0  0  0  0  0  0  0  0  0
    8.1566   10.0536   16.0516 O   0  0  0  0  0  0  0  0  0  0  0  0
   12.4989    6.2074   20.1776 C   0  0  0  0  0  0  0  0  0  0  0  0
    6.9192    9.1053   20.9073 O   0  0  0  0  0  0  0  0  0  0  0  0
   14.3979    6.0729   18.7784 C   0  0  0  0  0  0  0  0  0  0  0  0
    8.6811    9.5354   16.9998 C   0  0  0  0  0  0  0  0  0  0  0  0
    9.2512    4.2713   13.7653 O   0  0  0  0  0  0  0  0  0  0  0  0
    9.6495    8.6317   16.8332 N   0  0  0  0  0  0  0  0  0  0  0  0
    6.2934    8.6988   23.1988 O   0  0  0  0  0  0  0  0  0  0  0  0
    7.9806    8.6543   20.5437 C   0  0  0  0  0  0  0  0  0  0  0  0
   13.7270    5.7144   19.8610 O   0  0  0  0  0  0  0  0  0  0  0  0
    8.3351    5.5235   15.4478 C   0  0  0  0  0  0  0  0  0  0  0  0
    8.7700    7.8434   21.3915 C   0  0  0  0  0  0  0  0  0  0  0  0
   11.7856    6.8851   19.2401 C   0  0  0  0  0  0  0  0  0  0  0  0
   10.5281    7.4276   19.5649 C   0  0  0  0  0  0  0  0  0  0  0  0
   10.0256    7.2907   20.8484 C   0  0  0  0  0  0  0  0  0  0  0  0
    9.3113    5.3049   14.4911 C   0  0  0  0  0  0  0  0  0  0  0  0
    9.4607    7.5646   16.0139 C   0  0  0  0  0  0  0  0  0  0  0  0
   10.4192    7.3157   15.0955 C   0  0  0  0  0  0  0  0  0  0  0  0
   10.2489    6.4227   23.0218 N   0  0  0  0  0  0  0  0  0  0  0  0
    7.2472    8.0746   23.5050 C   0  0  0  0  0  0  0  0  0  0  0  0
    9.2051    6.9101   23.4604 C   0  0  0  0  0  0  0  0  0  0  0  0
   11.9646    6.0299   21.4251 C   0  0  0  0  0  0  0  0  0  0  0  0
  1  5  1  0
  1 13  1  0
  2 20  2  0
  2 28  1  0
  2 29  1  0
  3 19  4  0
  3 25  4  0
  4 23  4  0
  4 27  1  0
  4 30  4  0
  5 17  1  0
  6  8  1  0
  6 29  1  0
  7 24  4  0
  7 26  4  0
  8 28  1  0
  9 13  2  0
 10 18  1  0
 10 21  4  0
 10 30  4  0
 11 17  2  0
 12 18  1  0
 13 15  1  0
 14 24  1  0
 15 25  1  0
 16 28  2  0
 17 20  1  0
 19 24  4  0
 20 23  1  0
 21 22  4  0
 22 23  4  0
 25 26  4  0
 27 29  2  0
M  END
$$$$

 Created by Python create_sdf_string function

 30 33  0  0  0  0  0  0  0  0999 V2000
    8.3036    9.8571   18.4133 C   0  0  0  0  0  0  0  0  0  0  0  0
    8.3694    7.6612   22.6703 C   0  0  0  0  0  0  0  0  0  0  0  0
    8.4143    6.6863   16.2273 C   0  0  0  0  0  0  0  0  0  0  0  0
   10.7581    6.5674   21.7636 C   0  0  0  0  0  0  0  0  0  0  0  0
    8.4452    8.7960   19.2958 O   0  0  0  0  0  0  0  0  0  0  0  0
    8.7122    6.7842   24.8569 C   0  0  0  0  0  0  0  0  0  0  0  0
   10.3400    6.1726   14.3081 C   0  0  0  0  0  0  0  0  0  0  0  0
    7.4297    7.5873   24.8962 C   0  0  0  0  0  0  0  0  0  0  0  0
    8.1566   10.0536   16.0516 O   0  0  0  0  0  0  0  0  0  0  0  0
   12.4989    6.2074   20.1776 C   0  0  0  0  0  0  0  0  0  0  0  0
    6.9192    9.1053   20.9073 O   0  0  0  0  0  0  0  0  0  0  0  0
   14.3979    6.0729   18.7784 C   0  0  0  0  0  0  0  0  0  0  0  0
    8.6811    9.5354   16.9998 C   0  0  0  0  0  0  0  0  0  0  0  0
    9.2512    4.2713   13.7653 O   0  0  0  0  0  0  0  0  0  0  0  0
    9.6495    8.6317   16.8332 N   0  0  0  0  0  0  0  0  0  0  0  0
    6.2934    8.6988   23.1988 O   0  0  0  0  0  0  0  0  0  0  0  0
    7.9806    8.6543   20.5437 C   0  0  0  0  0  0  0  0  0  0  0  0
   13.7270    5.7144   19.8610 O   0  0  0  0  0  0  0  0  0  0  0  0
    8.3351    5.5235   15.4478 C   0  0  0  0  0  0  0  0  0  0  0  0
    8.7700    7.8434   21.3915 C   0  0  0  0  0  0  0  0  0  0  0  0
   11.7856    6.8851   19.2401 C   0  0  0  0  0  0  0  0  0  0  0  0
   10.5281    7.4276   19.5649 C   0  0  0  0  0  0  0  0  0  0  0  0
   10.0256    7.2907   20.8484 C   0  0  0  0  0  0  0  0  0  0  0  0
    9.3113    5.3049   14.4911 C   0  0  0  0  0  0  0  0  0  0  0  0
    9.4607    7.5646   16.0139 C   0  0  0  0  0  0  0  0  0  0  0  0
   10.4192    7.3157   15.0955 C   0  0  0  0  0  0  0  0  0  0  0  0
   10.2489    6.4227   23.0218 N   0  0  0  0  0  0  0  0  0  0  0  0
    7.2472    8.0746   23.5050 C   0  0  0  0  0  0  0  0  0  0  0  0
    9.2051    6.9101   23.4604 C   0  0  0  0  0  0  0  0  0  0  0  0
   11.9646    6.0299   21.4251 C   0  0  0  0  0  0  0  0  0  0  0  0
  1  5  1  0
  1 13  1  0
  2 20  2  0
  2 28  1  0
  2 29  1  0
  3 19  4  0
  3 25  4  0
  4 23  4  0
  4 27  1  0
  4 30  4  0
  5 17  1  0
  6  8  1  0
  6 29  1  0
  7 24  4  0
  7 26  4  0
  8 28  1  0
  9 13  2  0
 10 18  1  0
 10 21  4  0
 10 30  4  0
 11 17  2  0
 12 18  1  0
 13 15  1  0
 14 24  1  0
 15 25  1  0
 16 28  2  0
 17 20  1  0
 19 24  4  0
 20 23  1  0
 21 22  4  0
 22 23  4  0
 25 26  4  0
 27 29  2  0
M  END
$$$$

 Created by Python create_sdf_string function

 30 33  0  0  0  0  0  0  0  0999 V2000
    8.3036    9.8571   18.4133 C   0  0  0  0  0  0  0  0  0  0  0  0
    8.3694    7.6612   22.6703 C   0  0  0  0  0  0  0  0  0  0  0  0
    8.4143    6.6863   16.2273 C   0  0  0  0  0  0  0  0  0  0  0  0
   10.7581    6.5674   21.7636 C   0  0  0  0  0  0  0  0  0  0  0  0
    8.4452    8.7960   19.2958 O   0  0  0  0  0  0  0  0  0  0  0  0
    8.7122    6.7842   24.8569 C   0  0  0  0  0  0  0  0  0  0  0  0
   10.3400    6.1726   14.3081 C   0  0  0  0  0  0  0  0  0  0  0  0
    7.4297    7.5873   24.8962 C   0  0  0  0  0  0  0  0  0  0  0  0
    8.1566   10.0536   16.0516 O   0  0  0  0  0  0  0  0  0  0  0  0
   12.4989    6.2074   20.1776 C   0  0  0  0  0  0  0  0  0  0  0  0
    6.9192    9.1053   20.9073 O   0  0  0  0  0  0  0  0  0  0  0  0
   14.3979    6.0729   18.7784 C   0  0  0  0  0  0  0  0  0  0  0  0
    8.6811    9.5354   16.9998 C   0  0  0  0  0  0  0  0  0  0  0  0
    9.2512    4.2713   13.7653 O   0  0  0  0  0  0  0  0  0  0  0  0
    9.6495    8.6317   16.8332 N   0  0  0  0  0  0  0  0  0  0  0  0
    6.2934    8.6988   23.1988 O   0  0  0  0  0  0  0  0  0  0  0  0
    7.9806    8.6543   20.5437 C   0  0  0  0  0  0  0  0  0  0  0  0
   13.7270    5.7144   19.8610 O   0  0  0  0  0  0  0  0  0  0  0  0
    8.3351    5.5235   15.4478 C   0  0  0  0  0  0  0  0  0  0  0  0
    8.7700    7.8434   21.3915 C   0  0  0  0  0  0  0  0  0  0  0  0
   11.7856    6.8851   19.2401 C   0  0  0  0  0  0  0  0  0  0  0  0
   10.5281    7.4276   19.5649 C   0  0  0  0  0  0  0  0  0  0  0  0
   10.0256    7.2907   20.8484 C   0  0  0  0  0  0  0  0  0  0  0  0
    9.3113    5.3049   14.4911 C   0  0  0  0  0  0  0  0  0  0  0  0
    9.4607    7.5646   16.0139 C   0  0  0  0  0  0  0  0  0  0  0  0
   10.4192    7.3157   15.0955 C   0  0  0  0  0  0  0  0  0  0  0  0
   10.2489    6.4227   23.0218 N   0  0  0  0  0  0  0  0  0  0  0  0
    7.2472    8.0746   23.5050 C   0  0  0  0  0  0  0  0  0  0  0  0
    9.2051    6.9101   23.4604 C   0  0  0  0  0  0  0  0  0  0  0  0
   11.9646    6.0299   21.4251 C   0  0  0  0  0  0  0  0  0  0  0  0
  1  5  1  0
  1 13  1  0
  2 20  2  0
  2 28  1  0
  2 29  1  0
  3 19  4  0
  3 25  4  0
  4 23  4  0
  4 27  1  0
  4 30  4  0
  5 17  1  0
  6  8  1  0
  6 29  1  0
  7 24  4  0
  7 26  4  0
  8 28  1  0
  9 13  2  0
 10 18  1  0
 10 21  4  0
 10 30  4  0
 11 17  2  0
 12 18  1  0
 13 15  1  0
 14 24  1  0
 15 25  1  0
 16 28  2  0
 17 20  1  0
 19 24  4  0
 20 23  1  0
 21 22  4  0
 22 23  4  0
 25 26  4  0
 27 29  2  0
M  END
$$$$

 Created by Python create_sdf_string function

 30 33  0  0  0  0  0  0  0  0999 V2000
    8.3036    9.8571   18.4133 C   0  0  0  0  0  0  0  0  0  0  0  0
    8.3694    7.6612   22.6703 C   0  0  0  0  0  0  0  0  0  0  0  0
    8.4143    6.6863   16.2273 C   0  0  0  0  0  0  0  0  0  0  0  0
   10.7581    6.5674   21.7636 C   0  0  0  0  0  0  0  0  0  0  0  0
    8.4452    8.7960   19.2958 O   0  0  0  0  0  0  0  0  0  0  0  0
    8.7122    6.7842   24.8569 C   0  0  0  0  0  0  0  0  0  0  0  0
   10.3400    6.1726   14.3081 C   0  0  0  0  0  0  0  0  0  0  0  0
    7.4297    7.5873   24.8962 C   0  0  0  0  0  0  0  0  0  0  0  0
    8.1566   10.0536   16.0516 O   0  0  0  0  0  0  0  0  0  0  0  0
   12.4989    6.2074   20.1776 C   0  0  0  0  0  0  0  0  0  0  0  0
    6.9192    9.1053   20.9073 O   0  0  0  0  0  0  0  0  0  0  0  0
   14.3979    6.0729   18.7784 C   0  0  0  0  0  0  0  0  0  0  0  0
    8.6811    9.5354   16.9998 C   0  0  0  0  0  0  0  0  0  0  0  0
    9.2512    4.2713   13.7653 O   0  0  0  0  0  0  0  0  0  0  0  0
    9.6495    8.6317   16.8332 N   0  0  0  0  0  0  0  0  0  0  0  0
    6.2934    8.6988   23.1988 O   0  0  0  0  0  0  0  0  0  0  0  0
    7.9806    8.6543   20.5437 C   0  0  0  0  0  0  0  0  0  0  0  0
   13.7270    5.7144   19.8610 O   0  0  0  0  0  0  0  0  0  0  0  0
    8.3351    5.5235   15.4478 C   0  0  0  0  0  0  0  0  0  0  0  0
    8.7700    7.8434   21.3915 C   0  0  0  0  0  0  0  0  0  0  0  0
   11.7856    6.8851   19.2401 C   0  0  0  0  0  0  0  0  0  0  0  0
   10.5281    7.4276   19.5649 C   0  0  0  0  0  0  0  0  0  0  0  0
   10.0256    7.2907   20.8484 C   0  0  0  0  0  0  0  0  0  0  0  0
    9.3113    5.3049   14.4911 C   0  0  0  0  0  0  0  0  0  0  0  0
    9.4607    7.5646   16.0139 C   0  0  0  0  0  0  0  0  0  0  0  0
   10.4192    7.3157   15.0955 C   0  0  0  0  0  0  0  0  0  0  0  0
   10.2489    6.4227   23.0218 N   0  0  0  0  0  0  0  0  0  0  0  0
    7.2472    8.0746   23.5050 C   0  0  0  0  0  0  0  0  0  0  0  0
    9.2051    6.9101   23.4604 C   0  0  0  0  0  0  0  0  0  0  0  0
   11.9646    6.0299   21.4251 C   0  0  0  0  0  0  0  0  0  0  0  0
  1  5  1  0
  1 13  1  0
  2 20  2  0
  2 28  1  0
  2 29  1  0
  3 19  4  0
  3 25  4  0
  4 23  4  0
  4 27  1  0
  4 30  4  0
  5 17  1  0
  6  8  1  0
  6 29  1  0
  7 24  4  0
  7 26  4  0
  8 28  1  0
  9 13  2  0
 10 18  1  0
 10 21  4  0
 10 30  4  0
 11 17  2  0
 12 18  1  0
 13 15  1  0
 14 24  1  0
 15 25  1  0
 16 28  2  0
 17 20  1  0
 19 24  4  0
 20 23  1  0
 21 22  4  0
 22 23  4  0
 25 26  4  0
 27 29  2  0
M  END
$$$$

 Created by Python create_sdf_string function

 30 33  0  0  0  0  0  0  0  0999 V2000
    8.3036    9.8571   18.4133 C   0  0  0  0  0  0  0  0  0  0  0  0
    8.3694    7.6612   22.6703 C   0  0  0  0  0  0  0  0  0  0  0  0
    8.4143    6.6863   16.2273 C   0  0  0  0  0  0  0  0  0  0  0  0
   10.7581    6.5674   21.7636 C   0  0  0  0  0  0  0  0  0  0  0  0
    8.4452    8.7960   19.2958 O   0  0  0  0  0  0  0  0  0  0  0  0
    8.7122    6.7842   24.8569 C   0  0  0  0  0  0  0  0  0  0  0  0
   10.3400    6.1726   14.3081 C   0  0  0  0  0  0  0  0  0  0  0  0
    7.4297    7.5873   24.8962 C   0  0  0  0  0  0  0  0  0  0  0  0
    8.1566   10.0536   16.0516 O   0  0  0  0  0  0  0  0  0  0  0  0
   12.4989    6.2074   20.1776 C   0  0  0  0  0  0  0  0  0  0  0  0
    6.9192    9.1053   20.9073 O   0  0  0  0  0  0  0  0  0  0  0  0
   14.3979    6.0729   18.7784 C   0  0  0  0  0  0  0  0  0  0  0  0
    8.6811    9.5354   16.9998 C   0  0  0  0  0  0  0  0  0  0  0  0
    9.2512    4.2713   13.7653 O   0  0  0  0  0  0  0  0  0  0  0  0
    9.6495    8.6317   16.8332 N   0  0  0  0  0  0  0  0  0  0  0  0
    6.2934    8.6988   23.1988 O   0  0  0  0  0  0  0  0  0  0  0  0
    7.9806    8.6543   20.5437 C   0  0  0  0  0  0  0  0  0  0  0  0
   13.7270    5.7144   19.8610 O   0  0  0  0  0  0  0  0  0  0  0  0
    8.3351    5.5235   15.4478 C   0  0  0  0  0  0  0  0  0  0  0  0
    8.7700    7.8434   21.3915 C   0  0  0  0  0  0  0  0  0  0  0  0
   11.7856    6.8851   19.2401 C   0  0  0  0  0  0  0  0  0  0  0  0
   10.5281    7.4276   19.5649 C   0  0  0  0  0  0  0  0  0  0  0  0
   10.0256    7.2907   20.8484 C   0  0  0  0  0  0  0  0  0  0  0  0
    9.3113    5.3049   14.4911 C   0  0  0  0  0  0  0  0  0  0  0  0
    9.4607    7.5646   16.0139 C   0  0  0  0  0  0  0  0  0  0  0  0
   10.4192    7.3157   15.0955 C   0  0  0  0  0  0  0  0  0  0  0  0
   10.2489    6.4227   23.0218 N   0  0  0  0  0  0  0  0  0  0  0  0
    7.2472    8.0746   23.5050 C   0  0  0  0  0  0  0  0  0  0  0  0
    9.2051    6.9101   23.4604 C   0  0  0  0  0  0  0  0  0  0  0  0
   11.9646    6.0299   21.4251 C   0  0  0  0  0  0  0  0  0  0  0  0
  1  5  1  0
  1 13  1  0
  2 20  2  0
  2 28  1  0
  2 29  1  0
  3 19  4  0
  3 25  4  0
  4 23  4  0
  4 27  1  0
  4 30  4  0
  5 17  1  0
  6  8  1  0
  6 29  1  0
  7 24  4  0
  7 26  4  0
  8 28  1  0
  9 13  2  0
 10 18  1  0
 10 21  4  0
 10 30  4  0
 11 17  2  0
 12 18  1  0
 13 15  1  0
 14 24  1  0
 15 25  1  0
 16 28  2  0
 17 20  1  0
 19 24  4  0
 20 23  1  0
 21 22  4  0
 22 23  4  0
 25 26  4  0
 27 29  2  0
M  END
$$$$

 Created by Python create_sdf_string function

 30 33  0  0  0  0  0  0  0  0999 V2000
    8.3036    9.8571   18.4133 C   0  0  0  0  0  0  0  0  0  0  0  0
    8.3694    7.6612   22.6703 C   0  0  0  0  0  0  0  0  0  0  0  0
    8.4143    6.6863   16.2273 C   0  0  0  0  0  0  0  0  0  0  0  0
   10.7581    6.5674   21.7636 C   0  0  0  0  0  0  0  0  0  0  0  0
    8.4452    8.7960   19.2958 O   0  0  0  0  0  0  0  0  0  0  0  0
    8.7122    6.7842   24.8569 C   0  0  0  0  0  0  0  0  0  0  0  0
   10.3400    6.1726   14.3081 C   0  0  0  0  0  0  0  0  0  0  0  0
    7.4297    7.5873   24.8962 C   0  0  0  0  0  0  0  0  0  0  0  0
    8.1566   10.0536   16.0516 O   0  0  0  0  0  0  0  0  0  0  0  0
   12.4989    6.2074   20.1776 C   0  0  0  0  0  0  0  0  0  0  0  0
    6.9192    9.1053   20.9073 O   0  0  0  0  0  0  0  0  0  0  0  0
   14.3979    6.0729   18.7784 C   0  0  0  0  0  0  0  0  0  0  0  0
    8.6811    9.5354   16.9998 C   0  0  0  0  0  0  0  0  0  0  0  0
    9.2512    4.2713   13.7653 O   0  0  0  0  0  0  0  0  0  0  0  0
    9.6495    8.6317   16.8332 N   0  0  0  0  0  0  0  0  0  0  0  0
    6.2934    8.6988   23.1988 O   0  0  0  0  0  0  0  0  0  0  0  0
    7.9806    8.6543   20.5437 C   0  0  0  0  0  0  0  0  0  0  0  0
   13.7270    5.7144   19.8610 O   0  0  0  0  0  0  0  0  0  0  0  0
    8.3351    5.5235   15.4478 C   0  0  0  0  0  0  0  0  0  0  0  0
    8.7700    7.8434   21.3915 C   0  0  0  0  0  0  0  0  0  0  0  0
   11.7856    6.8851   19.2401 C   0  0  0  0  0  0  0  0  0  0  0  0
   10.5281    7.4276   19.5649 C   0  0  0  0  0  0  0  0  0  0  0  0
   10.0256    7.2907   20.8484 C   0  0  0  0  0  0  0  0  0  0  0  0
    9.3113    5.3049   14.4911 C   0  0  0  0  0  0  0  0  0  0  0  0
    9.4607    7.5646   16.0139 C   0  0  0  0  0  0  0  0  0  0  0  0
   10.4192    7.3157   15.0955 C   0  0  0  0  0  0  0  0  0  0  0  0
   10.2489    6.4227   23.0218 N   0  0  0  0  0  0  0  0  0  0  0  0
    7.2472    8.0746   23.5050 C   0  0  0  0  0  0  0  0  0  0  0  0
    9.2051    6.9101   23.4604 C   0  0  0  0  0  0  0  0  0  0  0  0
   11.9646    6.0299   21.4251 C   0  0  0  0  0  0  0  0  0  0  0  0
  1  5  1  0
  1 13  1  0
  2 20  2  0
  2 28  1  0
  2 29  1  0
  3 19  4  0
  3 25  4  0
  4 23  4  0
  4 27  1  0
  4 30  4  0
  5 17  1  0
  6  8  1  0
  6 29  1  0
  7 24  4  0
  7 26  4  0
  8 28  1  0
  9 13  2  0
 10 18  1  0
 10 21  4  0
 10 30  4  0
 11 17  2  0
 12 18  1  0
 13 15  1  0
 14 24  1  0
 15 25  1  0
 16 28  2  0
 17 20  1  0
 19 24  4  0
 20 23  1  0
 21 22  4  0
 22 23  4  0
 25 26  4  0
 27 29  2  0
M  END
$$$$

 Created by Python create_sdf_string function

 30 33  0  0  0  0  0  0  0  0999 V2000
    8.3036    9.8571   18.4133 C   0  0  0  0  0  0  0  0  0  0  0  0
    8.3694    7.6612   22.6703 C   0  0  0  0  0  0  0  0  0  0  0  0
    8.4143    6.6863   16.2273 C   0  0  0  0  0  0  0  0  0  0  0  0
   10.7581    6.5674   21.7636 C   0  0  0  0  0  0  0  0  0  0  0  0
    8.4452    8.7960   19.2958 O   0  0  0  0  0  0  0  0  0  0  0  0
    8.7122    6.7842   24.8569 C   0  0  0  0  0  0  0  0  0  0  0  0
   10.3400    6.1726   14.3081 C   0  0  0  0  0  0  0  0  0  0  0  0
    7.4297    7.5873   24.8962 C   0  0  0  0  0  0  0  0  0  0  0  0
    8.1566   10.0536   16.0516 O   0  0  0  0  0  0  0  0  0  0  0  0
   12.4989    6.2074   20.1776 C   0  0  0  0  0  0  0  0  0  0  0  0
    6.9192    9.1053   20.9073 O   0  0  0  0  0  0  0  0  0  0  0  0
   14.3979    6.0729   18.7784 C   0  0  0  0  0  0  0  0  0  0  0  0
    8.6811    9.5354   16.9998 C   0  0  0  0  0  0  0  0  0  0  0  0
    9.2512    4.2713   13.7653 O   0  0  0  0  0  0  0  0  0  0  0  0
    9.6495    8.6317   16.8332 N   0  0  0  0  0  0  0  0  0  0  0  0
    6.2934    8.6988   23.1988 O   0  0  0  0  0  0  0  0  0  0  0  0
    7.9806    8.6543   20.5437 C   0  0  0  0  0  0  0  0  0  0  0  0
   13.7270    5.7144   19.8610 O   0  0  0  0  0  0  0  0  0  0  0  0
    8.3351    5.5235   15.4478 C   0  0  0  0  0  0  0  0  0  0  0  0
    8.7700    7.8434   21.3915 C   0  0  0  0  0  0  0  0  0  0  0  0
   11.7856    6.8851   19.2401 C   0  0  0  0  0  0  0  0  0  0  0  0
   10.5281    7.4276   19.5649 C   0  0  0  0  0  0  0  0  0  0  0  0
   10.0256    7.2907   20.8484 C   0  0  0  0  0  0  0  0  0  0  0  0
    9.3113    5.3049   14.4911 C   0  0  0  0  0  0  0  0  0  0  0  0
    9.4607    7.5646   16.0139 C   0  0  0  0  0  0  0  0  0  0  0  0
   10.4192    7.3157   15.0955 C   0  0  0  0  0  0  0  0  0  0  0  0
   10.2489    6.4227   23.0218 N   0  0  0  0  0  0  0  0  0  0  0  0
    7.2472    8.0746   23.5050 C   0  0  0  0  0  0  0  0  0  0  0  0
    9.2051    6.9101   23.4604 C   0  0  0  0  0  0  0  0  0  0  0  0
   11.9646    6.0299   21.4251 C   0  0  0  0  0  0  0  0  0  0  0  0
  1  5  1  0
  1 13  1  0
  2 20  2  0
  2 28  1  0
  2 29  1  0
  3 19  4  0
  3 25  4  0
  4 23  4  0
  4 27  1  0
  4 30  4  0
  5 17  1  0
  6  8  1  0
  6 29  1  0
  7 24  4  0
  7 26  4  0
  8 28  1  0
  9 13  2  0
 10 18  1  0
 10 21  4  0
 10 30  4  0
 11 17  2  0
 12 18  1  0
 13 15  1  0
 14 24  1  0
 15 25  1  0
 16 28  2  0
 17 20  1  0
 19 24  4  0
 20 23  1  0
 21 22  4  0
 22 23  4  0
 25 26  4  0
 27 29  2  0
M  END
$$$$

 Created by Python create_sdf_string function

 30 33  0  0  0  0  0  0  0  0999 V2000
    8.3036    9.8571   18.4133 C   0  0  0  0  0  0  0  0  0  0  0  0
    8.3694    7.6612   22.6703 C   0  0  0  0  0  0  0  0  0  0  0  0
    8.4143    6.6863   16.2273 C   0  0  0  0  0  0  0  0  0  0  0  0
   10.7581    6.5674   21.7636 C   0  0  0  0  0  0  0  0  0  0  0  0
    8.4452    8.7960   19.2958 O   0  0  0  0  0  0  0  0  0  0  0  0
    8.7122    6.7842   24.8569 C   0  0  0  0  0  0  0  0  0  0  0  0
   10.3400    6.1726   14.3081 C   0  0  0  0  0  0  0  0  0  0  0  0
    7.4297    7.5873   24.8962 C   0  0  0  0  0  0  0  0  0  0  0  0
    8.1566   10.0536   16.0516 O   0  0  0  0  0  0  0  0  0  0  0  0
   12.4989    6.2074   20.1776 C   0  0  0  0  0  0  0  0  0  0  0  0
    6.9192    9.1053   20.9073 O   0  0  0  0  0  0  0  0  0  0  0  0
   14.3979    6.0729   18.7784 C   0  0  0  0  0  0  0  0  0  0  0  0
    8.6811    9.5354   16.9998 C   0  0  0  0  0  0  0  0  0  0  0  0
    9.2512    4.2713   13.7653 O   0  0  0  0  0  0  0  0  0  0  0  0
    9.6495    8.6317   16.8332 N   0  0  0  0  0  0  0  0  0  0  0  0
    6.2934    8.6988   23.1988 O   0  0  0  0  0  0  0  0  0  0  0  0
    7.9806    8.6543   20.5437 C   0  0  0  0  0  0  0  0  0  0  0  0
   13.7270    5.7144   19.8610 O   0  0  0  0  0  0  0  0  0  0  0  0
    8.3351    5.5235   15.4478 C   0  0  0  0  0  0  0  0  0  0  0  0
    8.7700    7.8434   21.3915 C   0  0  0  0  0  0  0  0  0  0  0  0
   11.7856    6.8851   19.2401 C   0  0  0  0  0  0  0  0  0  0  0  0
   10.5281    7.4276   19.5649 C   0  0  0  0  0  0  0  0  0  0  0  0
   10.0256    7.2907   20.8484 C   0  0  0  0  0  0  0  0  0  0  0  0
    9.3113    5.3049   14.4911 C   0  0  0  0  0  0  0  0  0  0  0  0
    9.4607    7.5646   16.0139 C   0  0  0  0  0  0  0  0  0  0  0  0
   10.4192    7.3157   15.0955 C   0  0  0  0  0  0  0  0  0  0  0  0
   10.2489    6.4227   23.0218 N   0  0  0  0  0  0  0  0  0  0  0  0
    7.2472    8.0746   23.5050 C   0  0  0  0  0  0  0  0  0  0  0  0
    9.2051    6.9101   23.4604 C   0  0  0  0  0  0  0  0  0  0  0  0
   11.9646    6.0299   21.4251 C   0  0  0  0  0  0  0  0  0  0  0  0
  1  5  1  0
  1 13  1  0
  2 20  2  0
  2 28  1  0
  2 29  1  0
  3 19  4  0
  3 25  4  0
  4 23  4  0
  4 27  1  0
  4 30  4  0
  5 17  1  0
  6  8  1  0
  6 29  1  0
  7 24  4  0
  7 26  4  0
  8 28  1  0
  9 13  2  0
 10 18  1  0
 10 21  4  0
 10 30  4  0
 11 17  2  0
 12 18  1  0
 13 15  1  0
 14 24  1  0
 15 25  1  0
 16 28  2  0
 17 20  1  0
 19 24  4  0
 20 23  1  0
 21 22  4  0
 22 23  4  0
 25 26  4  0
 27 29  2  0
M  END
$$$$

 Created by Python create_sdf_string function

 30 33  0  0  0  0  0  0  0  0999 V2000
    8.3036    9.8571   18.4133 C   0  0  0  0  0  0  0  0  0  0  0  0
    8.3694    7.6612   22.6703 C   0  0  0  0  0  0  0  0  0  0  0  0
    8.4143    6.6863   16.2273 C   0  0  0  0  0  0  0  0  0  0  0  0
   10.7581    6.5674   21.7636 C   0  0  0  0  0  0  0  0  0  0  0  0
    8.4452    8.7960   19.2958 O   0  0  0  0  0  0  0  0  0  0  0  0
    8.7122    6.7842   24.8569 C   0  0  0  0  0  0  0  0  0  0  0  0
   10.3400    6.1726   14.3081 C   0  0  0  0  0  0  0  0  0  0  0  0
    7.4297    7.5873   24.8962 C   0  0  0  0  0  0  0  0  0  0  0  0
    8.1566   10.0536   16.0516 O   0  0  0  0  0  0  0  0  0  0  0  0
   12.4989    6.2074   20.1776 C   0  0  0  0  0  0  0  0  0  0  0  0
    6.9192    9.1053   20.9073 O   0  0  0  0  0  0  0  0  0  0  0  0
   14.3979    6.0729   18.7784 C   0  0  0  0  0  0  0  0  0  0  0  0
    8.6811    9.5354   16.9998 C   0  0  0  0  0  0  0  0  0  0  0  0
    9.2512    4.2713   13.7653 O   0  0  0  0  0  0  0  0  0  0  0  0
    9.6495    8.6317   16.8332 N   0  0  0  0  0  0  0  0  0  0  0  0
    6.2934    8.6988   23.1988 O   0  0  0  0  0  0  0  0  0  0  0  0
    7.9806    8.6543   20.5437 C   0  0  0  0  0  0  0  0  0  0  0  0
   13.7270    5.7144   19.8610 O   0  0  0  0  0  0  0  0  0  0  0  0
    8.3351    5.5235   15.4478 C   0  0  0  0  0  0  0  0  0  0  0  0
    8.7700    7.8434   21.3915 C   0  0  0  0  0  0  0  0  0  0  0  0
   11.7856    6.8851   19.2401 C   0  0  0  0  0  0  0  0  0  0  0  0
   10.5281    7.4276   19.5649 C   0  0  0  0  0  0  0  0  0  0  0  0
   10.0256    7.2907   20.8484 C   0  0  0  0  0  0  0  0  0  0  0  0
    9.3113    5.3049   14.4911 C   0  0  0  0  0  0  0  0  0  0  0  0
    9.4607    7.5646   16.0139 C   0  0  0  0  0  0  0  0  0  0  0  0
   10.4192    7.3157   15.0955 C   0  0  0  0  0  0  0  0  0  0  0  0
   10.2489    6.4227   23.0218 N   0  0  0  0  0  0  0  0  0  0  0  0
    7.2472    8.0746   23.5050 C   0  0  0  0  0  0  0  0  0  0  0  0
    9.2051    6.9101   23.4604 C   0  0  0  0  0  0  0  0  0  0  0  0
   11.9646    6.0299   21.4251 C   0  0  0  0  0  0  0  0  0  0  0  0
  1  5  1  0
  1 13  1  0
  2 20  2  0
  2 28  1  0
  2 29  1  0
  3 19  4  0
  3 25  4  0
  4 23  4  0
  4 27  1  0
  4 30  4  0
  5 17  1  0
  6  8  1  0
  6 29  1  0
  7 24  4  0
  7 26  4  0
  8 28  1  0
  9 13  2  0
 10 18  1  0
 10 21  4  0
 10 30  4  0
 11 17  2  0
 12 18  1  0
 13 15  1  0
 14 24  1  0
 15 25  1  0
 16 28  2  0
 17 20  1  0
 19 24  4  0
 20 23  1  0
 21 22  4  0
 22 23  4  0
 25 26  4  0
 27 29  2  0
M  END
$$$$

 Created by Python create_sdf_string function

 30 33  0  0  0  0  0  0  0  0999 V2000
    8.3036    9.8571   18.4133 C   0  0  0  0  0  0  0  0  0  0  0  0
    8.3694    7.6612   22.6703 C   0  0  0  0  0  0  0  0  0  0  0  0
    8.4143    6.6863   16.2273 C   0  0  0  0  0  0  0  0  0  0  0  0
   10.7581    6.5674   21.7636 C   0  0  0  0  0  0  0  0  0  0  0  0
    8.4452    8.7960   19.2958 O   0  0  0  0  0  0  0  0  0  0  0  0
    8.7122    6.7842   24.8569 C   0  0  0  0  0  0  0  0  0  0  0  0
   10.3400    6.1726   14.3081 C   0  0  0  0  0  0  0  0  0  0  0  0
    7.4297    7.5873   24.8962 C   0  0  0  0  0  0  0  0  0  0  0  0
    8.1566   10.0536   16.0516 O   0  0  0  0  0  0  0  0  0  0  0  0
   12.4989    6.2074   20.1776 C   0  0  0  0  0  0  0  0  0  0  0  0
    6.9192    9.1053   20.9073 O   0  0  0  0  0  0  0  0  0  0  0  0
   14.3979    6.0729   18.7784 C   0  0  0  0  0  0  0  0  0  0  0  0
    8.6811    9.5354   16.9998 C   0  0  0  0  0  0  0  0  0  0  0  0
    9.2512    4.2713   13.7653 O   0  0  0  0  0  0  0  0  0  0  0  0
    9.6495    8.6317   16.8332 N   0  0  0  0  0  0  0  0  0  0  0  0
    6.2934    8.6988   23.1988 O   0  0  0  0  0  0  0  0  0  0  0  0
    7.9806    8.6543   20.5437 C   0  0  0  0  0  0  0  0  0  0  0  0
   13.7270    5.7144   19.8610 O   0  0  0  0  0  0  0  0  0  0  0  0
    8.3351    5.5235   15.4478 C   0  0  0  0  0  0  0  0  0  0  0  0
    8.7700    7.8434   21.3915 C   0  0  0  0  0  0  0  0  0  0  0  0
   11.7856    6.8851   19.2401 C   0  0  0  0  0  0  0  0  0  0  0  0
   10.5281    7.4276   19.5649 C   0  0  0  0  0  0  0  0  0  0  0  0
   10.0256    7.2907   20.8484 C   0  0  0  0  0  0  0  0  0  0  0  0
    9.3113    5.3049   14.4911 C   0  0  0  0  0  0  0  0  0  0  0  0
    9.4607    7.5646   16.0139 C   0  0  0  0  0  0  0  0  0  0  0  0
   10.4192    7.3157   15.0955 C   0  0  0  0  0  0  0  0  0  0  0  0
   10.2489    6.4227   23.0218 N   0  0  0  0  0  0  0  0  0  0  0  0
    7.2472    8.0746   23.5050 C   0  0  0  0  0  0  0  0  0  0  0  0
    9.2051    6.9101   23.4604 C   0  0  0  0  0  0  0  0  0  0  0  0
   11.9646    6.0299   21.4251 C   0  0  0  0  0  0  0  0  0  0  0  0
  1  5  1  0
  1 13  1  0
  2 20  2  0
  2 28  1  0
  2 29  1  0
  3 19  4  0
  3 25  4  0
  4 23  4  0
  4 27  1  0
  4 30  4  0
  5 17  1  0
  6  8  1  0
  6 29  1  0
  7 24  4  0
  7 26  4  0
  8 28  1  0
  9 13  2  0
 10 18  1  0
 10 21  4  0
 10 30  4  0
 11 17  2  0
 12 18  1  0
 13 15  1  0
 14 24  1  0
 15 25  1  0
 16 28  2  0
 17 20  1  0
 19 24  4  0
 20 23  1  0
 21 22  4  0
 22 23  4  0
 25 26  4  0
 27 29  2  0
M  END
$$$$

 Created by Python create_sdf_string function

 30 33  0  0  0  0  0  0  0  0999 V2000
    8.3036    9.8571   18.4133 C   0  0  0  0  0  0  0  0  0  0  0  0
    8.3694    7.6612   22.6703 C   0  0  0  0  0  0  0  0  0  0  0  0
    8.4143    6.6863   16.2273 C   0  0  0  0  0  0  0  0  0  0  0  0
   10.7581    6.5674   21.7636 C   0  0  0  0  0  0  0  0  0  0  0  0
    8.4452    8.7960   19.2958 O   0  0  0  0  0  0  0  0  0  0  0  0
    8.7122    6.7842   24.8569 C   0  0  0  0  0  0  0  0  0  0  0  0
   10.3400    6.1726   14.3081 C   0  0  0  0  0  0  0  0  0  0  0  0
    7.4297    7.5873   24.8962 C   0  0  0  0  0  0  0  0  0  0  0  0
    8.1566   10.0536   16.0516 O   0  0  0  0  0  0  0  0  0  0  0  0
   12.4989    6.2074   20.1776 C   0  0  0  0  0  0  0  0  0  0  0  0
    6.9192    9.1053   20.9073 O   0  0  0  0  0  0  0  0  0  0  0  0
   14.3979    6.0729   18.7784 C   0  0  0  0  0  0  0  0  0  0  0  0
    8.6811    9.5354   16.9998 C   0  0  0  0  0  0  0  0  0  0  0  0
    9.2512    4.2713   13.7653 O   0  0  0  0  0  0  0  0  0  0  0  0
    9.6495    8.6317   16.8332 N   0  0  0  0  0  0  0  0  0  0  0  0
    6.2934    8.6988   23.1988 O   0  0  0  0  0  0  0  0  0  0  0  0
    7.9806    8.6543   20.5437 C   0  0  0  0  0  0  0  0  0  0  0  0
   13.7270    5.7144   19.8610 O   0  0  0  0  0  0  0  0  0  0  0  0
    8.3351    5.5235   15.4478 C   0  0  0  0  0  0  0  0  0  0  0  0
    8.7700    7.8434   21.3915 C   0  0  0  0  0  0  0  0  0  0  0  0
   11.7856    6.8851   19.2401 C   0  0  0  0  0  0  0  0  0  0  0  0
   10.5281    7.4276   19.5649 C   0  0  0  0  0  0  0  0  0  0  0  0
   10.0256    7.2907   20.8484 C   0  0  0  0  0  0  0  0  0  0  0  0
    9.3113    5.3049   14.4911 C   0  0  0  0  0  0  0  0  0  0  0  0
    9.4607    7.5646   16.0139 C   0  0  0  0  0  0  0  0  0  0  0  0
   10.4192    7.3157   15.0955 C   0  0  0  0  0  0  0  0  0  0  0  0
   10.2489    6.4227   23.0218 N   0  0  0  0  0  0  0  0  0  0  0  0
    7.2472    8.0746   23.5050 C   0  0  0  0  0  0  0  0  0  0  0  0
    9.2051    6.9101   23.4604 C   0  0  0  0  0  0  0  0  0  0  0  0
   11.9646    6.0299   21.4251 C   0  0  0  0  0  0  0  0  0  0  0  0
  1  5  1  0
  1 13  1  0
  2 20  2  0
  2 28  1  0
  2 29  1  0
  3 19  4  0
  3 25  4  0
  4 23  4  0
  4 27  1  0
  4 30  4  0
  5 17  1  0
  6  8  1  0
  6 29  1  0
  7 24  4  0
  7 26  4  0
  8 28  1  0
  9 13  2  0
 10 18  1  0
 10 21  4  0
 10 30  4  0
 11 17  2  0
 12 18  1  0
 13 15  1  0
 14 24  1  0
 15 25  1  0
 16 28  2  0
 17 20  1  0
 19 24  4  0
 20 23  1  0
 21 22  4  0
 22 23  4  0
 25 26  4  0
 27 29  2  0
M  END
$$$$

 Created by Python create_sdf_string function

 30 33  0  0  0  0  0  0  0  0999 V2000
    8.3036    9.8571   18.4133 C   0  0  0  0  0  0  0  0  0  0  0  0
    8.3694    7.6612   22.6703 C   0  0  0  0  0  0  0  0  0  0  0  0
    8.4143    6.6863   16.2273 C   0  0  0  0  0  0  0  0  0  0  0  0
   10.7581    6.5674   21.7636 C   0  0  0  0  0  0  0  0  0  0  0  0
    8.4452    8.7960   19.2958 O   0  0  0  0  0  0  0  0  0  0  0  0
    8.7122    6.7842   24.8569 C   0  0  0  0  0  0  0  0  0  0  0  0
   10.3400    6.1726   14.3081 C   0  0  0  0  0  0  0  0  0  0  0  0
    7.4297    7.5873   24.8962 C   0  0  0  0  0  0  0  0  0  0  0  0
    8.1566   10.0536   16.0516 O   0  0  0  0  0  0  0  0  0  0  0  0
   12.4989    6.2074   20.1776 C   0  0  0  0  0  0  0  0  0  0  0  0
    6.9192    9.1053   20.9073 O   0  0  0  0  0  0  0  0  0  0  0  0
   14.3979    6.0729   18.7784 C   0  0  0  0  0  0  0  0  0  0  0  0
    8.6811    9.5354   16.9998 C   0  0  0  0  0  0  0  0  0  0  0  0
    9.2512    4.2713   13.7653 O   0  0  0  0  0  0  0  0  0  0  0  0
    9.6495    8.6317   16.8332 N   0  0  0  0  0  0  0  0  0  0  0  0
    6.2934    8.6988   23.1988 O   0  0  0  0  0  0  0  0  0  0  0  0
    7.9806    8.6543   20.5437 C   0  0  0  0  0  0  0  0  0  0  0  0
   13.7270    5.7144   19.8610 O   0  0  0  0  0  0  0  0  0  0  0  0
    8.3351    5.5235   15.4478 C   0  0  0  0  0  0  0  0  0  0  0  0
    8.7700    7.8434   21.3915 C   0  0  0  0  0  0  0  0  0  0  0  0
   11.7856    6.8851   19.2401 C   0  0  0  0  0  0  0  0  0  0  0  0
   10.5281    7.4276   19.5649 C   0  0  0  0  0  0  0  0  0  0  0  0
   10.0256    7.2907   20.8484 C   0  0  0  0  0  0  0  0  0  0  0  0
    9.3113    5.3049   14.4911 C   0  0  0  0  0  0  0  0  0  0  0  0
    9.4607    7.5646   16.0139 C   0  0  0  0  0  0  0  0  0  0  0  0
   10.4192    7.3157   15.0955 C   0  0  0  0  0  0  0  0  0  0  0  0
   10.2489    6.4227   23.0218 N   0  0  0  0  0  0  0  0  0  0  0  0
    7.2472    8.0746   23.5050 C   0  0  0  0  0  0  0  0  0  0  0  0
    9.2051    6.9101   23.4604 C   0  0  0  0  0  0  0  0  0  0  0  0
   11.9646    6.0299   21.4251 C   0  0  0  0  0  0  0  0  0  0  0  0
  1  5  1  0
  1 13  1  0
  2 20  2  0
  2 28  1  0
  2 29  1  0
  3 19  4  0
  3 25  4  0
  4 23  4  0
  4 27  1  0
  4 30  4  0
  5 17  1  0
  6  8  1  0
  6 29  1  0
  7 24  4  0
  7 26  4  0
  8 28  1  0
  9 13  2  0
 10 18  1  0
 10 21  4  0
 10 30  4  0
 11 17  2  0
 12 18  1  0
 13 15  1  0
 14 24  1  0
 15 25  1  0
 16 28  2  0
 17 20  1  0
 19 24  4  0
 20 23  1  0
 21 22  4  0
 22 23  4  0
 25 26  4  0
 27 29  2  0
M  END
$$$$

 Created by Python create_sdf_string function

 30 33  0  0  0  0  0  0  0  0999 V2000
    8.3036    9.8571   18.4133 C   0  0  0  0  0  0  0  0  0  0  0  0
    8.3694    7.6612   22.6703 C   0  0  0  0  0  0  0  0  0  0  0  0
    8.4143    6.6863   16.2273 C   0  0  0  0  0  0  0  0  0  0  0  0
   10.7581    6.5674   21.7636 C   0  0  0  0  0  0  0  0  0  0  0  0
    8.4452    8.7960   19.2958 O   0  0  0  0  0  0  0  0  0  0  0  0
    8.7122    6.7842   24.8569 C   0  0  0  0  0  0  0  0  0  0  0  0
   10.3400    6.1726   14.3081 C   0  0  0  0  0  0  0  0  0  0  0  0
    7.4297    7.5873   24.8962 C   0  0  0  0  0  0  0  0  0  0  0  0
    8.1566   10.0536   16.0516 O   0  0  0  0  0  0  0  0  0  0  0  0
   12.4989    6.2074   20.1776 C   0  0  0  0  0  0  0  0  0  0  0  0
    6.9192    9.1053   20.9073 O   0  0  0  0  0  0  0  0  0  0  0  0
   14.3979    6.0729   18.7784 C   0  0  0  0  0  0  0  0  0  0  0  0
    8.6811    9.5354   16.9998 C   0  0  0  0  0  0  0  0  0  0  0  0
    9.2512    4.2713   13.7653 O   0  0  0  0  0  0  0  0  0  0  0  0
    9.6495    8.6317   16.8332 N   0  0  0  0  0  0  0  0  0  0  0  0
    6.2934    8.6988   23.1988 O   0  0  0  0  0  0  0  0  0  0  0  0
    7.9806    8.6543   20.5437 C   0  0  0  0  0  0  0  0  0  0  0  0
   13.7270    5.7144   19.8610 O   0  0  0  0  0  0  0  0  0  0  0  0
    8.3351    5.5235   15.4478 C   0  0  0  0  0  0  0  0  0  0  0  0
    8.7700    7.8434   21.3915 C   0  0  0  0  0  0  0  0  0  0  0  0
   11.7856    6.8851   19.2401 C   0  0  0  0  0  0  0  0  0  0  0  0
   10.5281    7.4276   19.5649 C   0  0  0  0  0  0  0  0  0  0  0  0
   10.0256    7.2907   20.8484 C   0  0  0  0  0  0  0  0  0  0  0  0
    9.3113    5.3049   14.4911 C   0  0  0  0  0  0  0  0  0  0  0  0
    9.4607    7.5646   16.0139 C   0  0  0  0  0  0  0  0  0  0  0  0
   10.4192    7.3157   15.0955 C   0  0  0  0  0  0  0  0  0  0  0  0
   10.2489    6.4227   23.0218 N   0  0  0  0  0  0  0  0  0  0  0  0
    7.2472    8.0746   23.5050 C   0  0  0  0  0  0  0  0  0  0  0  0
    9.2051    6.9101   23.4604 C   0  0  0  0  0  0  0  0  0  0  0  0
   11.9646    6.0299   21.4251 C   0  0  0  0  0  0  0  0  0  0  0  0
  1  5  1  0
  1 13  1  0
  2 20  2  0
  2 28  1  0
  2 29  1  0
  3 19  4  0
  3 25  4  0
  4 23  4  0
  4 27  1  0
  4 30  4  0
  5 17  1  0
  6  8  1  0
  6 29  1  0
  7 24  4  0
  7 26  4  0
  8 28  1  0
  9 13  2  0
 10 18  1  0
 10 21  4  0
 10 30  4  0
 11 17  2  0
 12 18  1  0
 13 15  1  0
 14 24  1  0
 15 25  1  0
 16 28  2  0
 17 20  1  0
 19 24  4  0
 20 23  1  0
 21 22  4  0
 22 23  4  0
 25 26  4  0
 27 29  2  0
M  END
$$$$

 Created by Python create_sdf_string function

 30 33  0  0  0  0  0  0  0  0999 V2000
    8.3036    9.8571   18.4133 C   0  0  0  0  0  0  0  0  0  0  0  0
    8.3694    7.6612   22.6703 C   0  0  0  0  0  0  0  0  0  0  0  0
    8.4143    6.6863   16.2273 C   0  0  0  0  0  0  0  0  0  0  0  0
   10.7581    6.5674   21.7636 C   0  0  0  0  0  0  0  0  0  0  0  0
    8.4452    8.7960   19.2958 O   0  0  0  0  0  0  0  0  0  0  0  0
    8.7122    6.7842   24.8569 C   0  0  0  0  0  0  0  0  0  0  0  0
   10.3400    6.1726   14.3081 C   0  0  0  0  0  0  0  0  0  0  0  0
    7.4297    7.5873   24.8962 C   0  0  0  0  0  0  0  0  0  0  0  0
    8.1566   10.0536   16.0516 O   0  0  0  0  0  0  0  0  0  0  0  0
   12.4989    6.2074   20.1776 C   0  0  0  0  0  0  0  0  0  0  0  0
    6.9192    9.1053   20.9073 O   0  0  0  0  0  0  0  0  0  0  0  0
   14.3979    6.0729   18.7784 C   0  0  0  0  0  0  0  0  0  0  0  0
    8.6811    9.5354   16.9998 C   0  0  0  0  0  0  0  0  0  0  0  0
    9.2512    4.2713   13.7653 O   0  0  0  0  0  0  0  0  0  0  0  0
    9.6495    8.6317   16.8332 N   0  0  0  0  0  0  0  0  0  0  0  0
    6.2934    8.6988   23.1988 O   0  0  0  0  0  0  0  0  0  0  0  0
    7.9806    8.6543   20.5437 C   0  0  0  0  0  0  0  0  0  0  0  0
   13.7270    5.7144   19.8610 O   0  0  0  0  0  0  0  0  0  0  0  0
    8.3351    5.5235   15.4478 C   0  0  0  0  0  0  0  0  0  0  0  0
    8.7700    7.8434   21.3915 C   0  0  0  0  0  0  0  0  0  0  0  0
   11.7856    6.8851   19.2401 C   0  0  0  0  0  0  0  0  0  0  0  0
   10.5281    7.4276   19.5649 C   0  0  0  0  0  0  0  0  0  0  0  0
   10.0256    7.2907   20.8484 C   0  0  0  0  0  0  0  0  0  0  0  0
    9.3113    5.3049   14.4911 C   0  0  0  0  0  0  0  0  0  0  0  0
    9.4607    7.5646   16.0139 C   0  0  0  0  0  0  0  0  0  0  0  0
   10.4192    7.3157   15.0955 C   0  0  0  0  0  0  0  0  0  0  0  0
   10.2489    6.4227   23.0218 N   0  0  0  0  0  0  0  0  0  0  0  0
    7.2472    8.0746   23.5050 C   0  0  0  0  0  0  0  0  0  0  0  0
    9.2051    6.9101   23.4604 C   0  0  0  0  0  0  0  0  0  0  0  0
   11.9646    6.0299   21.4251 C   0  0  0  0  0  0  0  0  0  0  0  0
  1  5  1  0
  1 13  1  0
  2 20  2  0
  2 28  1  0
  2 29  1  0
  3 19  4  0
  3 25  4  0
  4 23  4  0
  4 27  1  0
  4 30  4  0
  5 17  1  0
  6  8  1  0
  6 29  1  0
  7 24  4  0
  7 26  4  0
  8 28  1  0
  9 13  2  0
 10 18  1  0
 10 21  4  0
 10 30  4  0
 11 17  2  0
 12 18  1  0
 13 15  1  0
 14 24  1  0
 15 25  1  0
 16 28  2  0
 17 20  1  0
 19 24  4  0
 20 23  1  0
 21 22  4  0
 22 23  4  0
 25 26  4  0
 27 29  2  0
M  END
$$$$

 Created by Python create_sdf_string function

 30 33  0  0  0  0  0  0  0  0999 V2000
    8.3036    9.8571   18.4133 C   0  0  0  0  0  0  0  0  0  0  0  0
    8.3694    7.6612   22.6703 C   0  0  0  0  0  0  0  0  0  0  0  0
    8.4143    6.6863   16.2273 C   0  0  0  0  0  0  0  0  0  0  0  0
   10.7581    6.5674   21.7636 C   0  0  0  0  0  0  0  0  0  0  0  0
    8.4452    8.7960   19.2958 O   0  0  0  0  0  0  0  0  0  0  0  0
    8.7122    6.7842   24.8569 C   0  0  0  0  0  0  0  0  0  0  0  0
   10.3400    6.1726   14.3081 C   0  0  0  0  0  0  0  0  0  0  0  0
    7.4297    7.5873   24.8962 C   0  0  0  0  0  0  0  0  0  0  0  0
    8.1566   10.0536   16.0516 O   0  0  0  0  0  0  0  0  0  0  0  0
   12.4989    6.2074   20.1776 C   0  0  0  0  0  0  0  0  0  0  0  0
    6.9192    9.1053   20.9073 O   0  0  0  0  0  0  0  0  0  0  0  0
   14.3979    6.0729   18.7784 C   0  0  0  0  0  0  0  0  0  0  0  0
    8.6811    9.5354   16.9998 C   0  0  0  0  0  0  0  0  0  0  0  0
    9.2512    4.2713   13.7653 O   0  0  0  0  0  0  0  0  0  0  0  0
    9.6495    8.6317   16.8332 N   0  0  0  0  0  0  0  0  0  0  0  0
    6.2934    8.6988   23.1988 O   0  0  0  0  0  0  0  0  0  0  0  0
    7.9806    8.6543   20.5437 C   0  0  0  0  0  0  0  0  0  0  0  0
   13.7270    5.7144   19.8610 O   0  0  0  0  0  0  0  0  0  0  0  0
    8.3351    5.5235   15.4478 C   0  0  0  0  0  0  0  0  0  0  0  0
    8.7700    7.8434   21.3915 C   0  0  0  0  0  0  0  0  0  0  0  0
   11.7856    6.8851   19.2401 C   0  0  0  0  0  0  0  0  0  0  0  0
   10.5281    7.4276   19.5649 C   0  0  0  0  0  0  0  0  0  0  0  0
   10.0256    7.2907   20.8484 C   0  0  0  0  0  0  0  0  0  0  0  0
    9.3113    5.3049   14.4911 C   0  0  0  0  0  0  0  0  0  0  0  0
    9.4607    7.5646   16.0139 C   0  0  0  0  0  0  0  0  0  0  0  0
   10.4192    7.3157   15.0955 C   0  0  0  0  0  0  0  0  0  0  0  0
   10.2489    6.4227   23.0218 N   0  0  0  0  0  0  0  0  0  0  0  0
    7.2472    8.0746   23.5050 C   0  0  0  0  0  0  0  0  0  0  0  0
    9.2051    6.9101   23.4604 C   0  0  0  0  0  0  0  0  0  0  0  0
   11.9646    6.0299   21.4251 C   0  0  0  0  0  0  0  0  0  0  0  0
  1  5  1  0
  1 13  1  0
  2 20  2  0
  2 28  1  0
  2 29  1  0
  3 19  4  0
  3 25  4  0
  4 23  4  0
  4 27  1  0
  4 30  4  0
  5 17  1  0
  6  8  1  0
  6 29  1  0
  7 24  4  0
  7 26  4  0
  8 28  1  0
  9 13  2  0
 10 18  1  0
 10 21  4  0
 10 30  4  0
 11 17  2  0
 12 18  1  0
 13 15  1  0
 14 24  1  0
 15 25  1  0
 16 28  2  0
 17 20  1  0
 19 24  4  0
 20 23  1  0
 21 22  4  0
 22 23  4  0
 25 26  4  0
 27 29  2  0
M  END
$$$$

 Created by Python create_sdf_string function

 30 33  0  0  0  0  0  0  0  0999 V2000
    8.3036    9.8571   18.4133 C   0  0  0  0  0  0  0  0  0  0  0  0
    8.3694    7.6612   22.6703 C   0  0  0  0  0  0  0  0  0  0  0  0
    8.4143    6.6863   16.2273 C   0  0  0  0  0  0  0  0  0  0  0  0
   10.7581    6.5674   21.7636 C   0  0  0  0  0  0  0  0  0  0  0  0
    8.4452    8.7960   19.2958 O   0  0  0  0  0  0  0  0  0  0  0  0
    8.7122    6.7842   24.8569 C   0  0  0  0  0  0  0  0  0  0  0  0
   10.3400    6.1726   14.3081 C   0  0  0  0  0  0  0  0  0  0  0  0
    7.4297    7.5873   24.8962 C   0  0  0  0  0  0  0  0  0  0  0  0
    8.1566   10.0536   16.0516 O   0  0  0  0  0  0  0  0  0  0  0  0
   12.4989    6.2074   20.1776 C   0  0  0  0  0  0  0  0  0  0  0  0
    6.9192    9.1053   20.9073 O   0  0  0  0  0  0  0  0  0  0  0  0
   14.3979    6.0729   18.7784 C   0  0  0  0  0  0  0  0  0  0  0  0
    8.6811    9.5354   16.9998 C   0  0  0  0  0  0  0  0  0  0  0  0
    9.2512    4.2713   13.7653 O   0  0  0  0  0  0  0  0  0  0  0  0
    9.6495    8.6317   16.8332 N   0  0  0  0  0  0  0  0  0  0  0  0
    6.2934    8.6988   23.1988 O   0  0  0  0  0  0  0  0  0  0  0  0
    7.9806    8.6543   20.5437 C   0  0  0  0  0  0  0  0  0  0  0  0
   13.7270    5.7144   19.8610 O   0  0  0  0  0  0  0  0  0  0  0  0
    8.3351    5.5235   15.4478 C   0  0  0  0  0  0  0  0  0  0  0  0
    8.7700    7.8434   21.3915 C   0  0  0  0  0  0  0  0  0  0  0  0
   11.7856    6.8851   19.2401 C   0  0  0  0  0  0  0  0  0  0  0  0
   10.5281    7.4276   19.5649 C   0  0  0  0  0  0  0  0  0  0  0  0
   10.0256    7.2907   20.8484 C   0  0  0  0  0  0  0  0  0  0  0  0
    9.3113    5.3049   14.4911 C   0  0  0  0  0  0  0  0  0  0  0  0
    9.4607    7.5646   16.0139 C   0  0  0  0  0  0  0  0  0  0  0  0
   10.4192    7.3157   15.0955 C   0  0  0  0  0  0  0  0  0  0  0  0
   10.2489    6.4227   23.0218 N   0  0  0  0  0  0  0  0  0  0  0  0
    7.2472    8.0746   23.5050 C   0  0  0  0  0  0  0  0  0  0  0  0
    9.2051    6.9101   23.4604 C   0  0  0  0  0  0  0  0  0  0  0  0
   11.9646    6.0299   21.4251 C   0  0  0  0  0  0  0  0  0  0  0  0
  1  5  1  0
  1 13  1  0
  2 20  2  0
  2 28  1  0
  2 29  1  0
  3 19  4  0
  3 25  4  0
  4 23  4  0
  4 27  1  0
  4 30  4  0
  5 17  1  0
  6  8  1  0
  6 29  1  0
  7 24  4  0
  7 26  4  0
  8 28  1  0
  9 13  2  0
 10 18  1  0
 10 21  4  0
 10 30  4  0
 11 17  2  0
 12 18  1  0
 13 15  1  0
 14 24  1  0
 15 25  1  0
 16 28  2  0
 17 20  1  0
 19 24  4  0
 20 23  1  0
 21 22  4  0
 22 23  4  0
 25 26  4  0
 27 29  2  0
M  END
$$$$

 Created by Python create_sdf_string function

 30 33  0  0  0  0  0  0  0  0999 V2000
    8.3036    9.8571   18.4133 C   0  0  0  0  0  0  0  0  0  0  0  0
    8.3694    7.6612   22.6703 C   0  0  0  0  0  0  0  0  0  0  0  0
    8.4143    6.6863   16.2273 C   0  0  0  0  0  0  0  0  0  0  0  0
   10.7581    6.5674   21.7636 C   0  0  0  0  0  0  0  0  0  0  0  0
    8.4452    8.7960   19.2958 O   0  0  0  0  0  0  0  0  0  0  0  0
    8.7122    6.7842   24.8569 C   0  0  0  0  0  0  0  0  0  0  0  0
   10.3400    6.1726   14.3081 C   0  0  0  0  0  0  0  0  0  0  0  0
    7.4297    7.5873   24.8962 C   0  0  0  0  0  0  0  0  0  0  0  0
    8.1566   10.0536   16.0516 O   0  0  0  0  0  0  0  0  0  0  0  0
   12.4989    6.2074   20.1776 C   0  0  0  0  0  0  0  0  0  0  0  0
    6.9192    9.1053   20.9073 O   0  0  0  0  0  0  0  0  0  0  0  0
   14.3979    6.0729   18.7784 C   0  0  0  0  0  0  0  0  0  0  0  0
    8.6811    9.5354   16.9998 C   0  0  0  0  0  0  0  0  0  0  0  0
    9.2512    4.2713   13.7653 O   0  0  0  0  0  0  0  0  0  0  0  0
    9.6495    8.6317   16.8332 N   0  0  0  0  0  0  0  0  0  0  0  0
    6.2934    8.6988   23.1988 O   0  0  0  0  0  0  0  0  0  0  0  0
    7.9806    8.6543   20.5437 C   0  0  0  0  0  0  0  0  0  0  0  0
   13.7270    5.7144   19.8610 O   0  0  0  0  0  0  0  0  0  0  0  0
    8.3351    5.5235   15.4478 C   0  0  0  0  0  0  0  0  0  0  0  0
    8.7700    7.8434   21.3915 C   0  0  0  0  0  0  0  0  0  0  0  0
   11.7856    6.8851   19.2401 C   0  0  0  0  0  0  0  0  0  0  0  0
   10.5281    7.4276   19.5649 C   0  0  0  0  0  0  0  0  0  0  0  0
   10.0256    7.2907   20.8484 C   0  0  0  0  0  0  0  0  0  0  0  0
    9.3113    5.3049   14.4911 C   0  0  0  0  0  0  0  0  0  0  0  0
    9.4607    7.5646   16.0139 C   0  0  0  0  0  0  0  0  0  0  0  0
   10.4192    7.3157   15.0955 C   0  0  0  0  0  0  0  0  0  0  0  0
   10.2489    6.4227   23.0218 N   0  0  0  0  0  0  0  0  0  0  0  0
    7.2472    8.0746   23.5050 C   0  0  0  0  0  0  0  0  0  0  0  0
    9.2051    6.9101   23.4604 C   0  0  0  0  0  0  0  0  0  0  0  0
   11.9646    6.0299   21.4251 C   0  0  0  0  0  0  0  0  0  0  0  0
  1  5  1  0
  1 13  1  0
  2 20  2  0
  2 28  1  0
  2 29  1  0
  3 19  4  0
  3 25  4  0
  4 23  4  0
  4 27  1  0
  4 30  4  0
  5 17  1  0
  6  8  1  0
  6 29  1  0
  7 24  4  0
  7 26  4  0
  8 28  1  0
  9 13  2  0
 10 18  1  0
 10 21  4  0
 10 30  4  0
 11 17  2  0
 12 18  1  0
 13 15  1  0
 14 24  1  0
 15 25  1  0
 16 28  2  0
 17 20  1  0
 19 24  4  0
 20 23  1  0
 21 22  4  0
 22 23  4  0
 25 26  4  0
 27 29  2  0
M  END
$$$$

 Created by Python create_sdf_string function

 30 33  0  0  0  0  0  0  0  0999 V2000
    8.3036    9.8571   18.4133 C   0  0  0  0  0  0  0  0  0  0  0  0
    8.3694    7.6612   22.6703 C   0  0  0  0  0  0  0  0  0  0  0  0
    8.4143    6.6863   16.2273 C   0  0  0  0  0  0  0  0  0  0  0  0
   10.7581    6.5674   21.7636 C   0  0  0  0  0  0  0  0  0  0  0  0
    8.4452    8.7960   19.2958 O   0  0  0  0  0  0  0  0  0  0  0  0
    8.7122    6.7842   24.8569 C   0  0  0  0  0  0  0  0  0  0  0  0
   10.3400    6.1726   14.3081 C   0  0  0  0  0  0  0  0  0  0  0  0
    7.4297    7.5873   24.8962 C   0  0  0  0  0  0  0  0  0  0  0  0
    8.1566   10.0536   16.0516 O   0  0  0  0  0  0  0  0  0  0  0  0
   12.4989    6.2074   20.1776 C   0  0  0  0  0  0  0  0  0  0  0  0
    6.9192    9.1053   20.9073 O   0  0  0  0  0  0  0  0  0  0  0  0
   14.3979    6.0729   18.7784 C   0  0  0  0  0  0  0  0  0  0  0  0
    8.6811    9.5354   16.9998 C   0  0  0  0  0  0  0  0  0  0  0  0
    9.2512    4.2713   13.7653 O   0  0  0  0  0  0  0  0  0  0  0  0
    9.6495    8.6317   16.8332 N   0  0  0  0  0  0  0  0  0  0  0  0
    6.2934    8.6988   23.1988 O   0  0  0  0  0  0  0  0  0  0  0  0
    7.9806    8.6543   20.5437 C   0  0  0  0  0  0  0  0  0  0  0  0
   13.7270    5.7144   19.8610 O   0  0  0  0  0  0  0  0  0  0  0  0
    8.3351    5.5235   15.4478 C   0  0  0  0  0  0  0  0  0  0  0  0
    8.7700    7.8434   21.3915 C   0  0  0  0  0  0  0  0  0  0  0  0
   11.7856    6.8851   19.2401 C   0  0  0  0  0  0  0  0  0  0  0  0
   10.5281    7.4276   19.5649 C   0  0  0  0  0  0  0  0  0  0  0  0
   10.0256    7.2907   20.8484 C   0  0  0  0  0  0  0  0  0  0  0  0
    9.3113    5.3049   14.4911 C   0  0  0  0  0  0  0  0  0  0  0  0
    9.4607    7.5646   16.0139 C   0  0  0  0  0  0  0  0  0  0  0  0
   10.4192    7.3157   15.0955 C   0  0  0  0  0  0  0  0  0  0  0  0
   10.2489    6.4227   23.0218 N   0  0  0  0  0  0  0  0  0  0  0  0
    7.2472    8.0746   23.5050 C   0  0  0  0  0  0  0  0  0  0  0  0
    9.2051    6.9101   23.4604 C   0  0  0  0  0  0  0  0  0  0  0  0
   11.9646    6.0299   21.4251 C   0  0  0  0  0  0  0  0  0  0  0  0
  1  5  1  0
  1 13  1  0
  2 20  2  0
  2 28  1  0
  2 29  1  0
  3 19  4  0
  3 25  4  0
  4 23  4  0
  4 27  1  0
  4 30  4  0
  5 17  1  0
  6  8  1  0
  6 29  1  0
  7 24  4  0
  7 26  4  0
  8 28  1  0
  9 13  2  0
 10 18  1  0
 10 21  4  0
 10 30  4  0
 11 17  2  0
 12 18  1  0
 13 15  1  0
 14 24  1  0
 15 25  1  0
 16 28  2  0
 17 20  1  0
 19 24  4  0
 20 23  1  0
 21 22  4  0
 22 23  4  0
 25 26  4  0
 27 29  2  0
M  END
$$$$

 Created by Python create_sdf_string function

 30 33  0  0  0  0  0  0  0  0999 V2000
    8.3036    9.8571   18.4133 C   0  0  0  0  0  0  0  0  0  0  0  0
    8.3694    7.6612   22.6703 C   0  0  0  0  0  0  0  0  0  0  0  0
    8.4143    6.6863   16.2273 C   0  0  0  0  0  0  0  0  0  0  0  0
   10.7581    6.5674   21.7636 C   0  0  0  0  0  0  0  0  0  0  0  0
    8.4452    8.7960   19.2958 O   0  0  0  0  0  0  0  0  0  0  0  0
    8.7122    6.7842   24.8569 C   0  0  0  0  0  0  0  0  0  0  0  0
   10.3400    6.1726   14.3081 C   0  0  0  0  0  0  0  0  0  0  0  0
    7.4297    7.5873   24.8962 C   0  0  0  0  0  0  0  0  0  0  0  0
    8.1566   10.0536   16.0516 O   0  0  0  0  0  0  0  0  0  0  0  0
   12.4989    6.2074   20.1776 C   0  0  0  0  0  0  0  0  0  0  0  0
    6.9192    9.1053   20.9073 O   0  0  0  0  0  0  0  0  0  0  0  0
   14.3979    6.0729   18.7784 C   0  0  0  0  0  0  0  0  0  0  0  0
    8.6811    9.5354   16.9998 C   0  0  0  0  0  0  0  0  0  0  0  0
    9.2512    4.2713   13.7653 O   0  0  0  0  0  0  0  0  0  0  0  0
    9.6495    8.6317   16.8332 N   0  0  0  0  0  0  0  0  0  0  0  0
    6.2934    8.6988   23.1988 O   0  0  0  0  0  0  0  0  0  0  0  0
    7.9806    8.6543   20.5437 C   0  0  0  0  0  0  0  0  0  0  0  0
   13.7270    5.7144   19.8610 O   0  0  0  0  0  0  0  0  0  0  0  0
    8.3351    5.5235   15.4478 C   0  0  0  0  0  0  0  0  0  0  0  0
    8.7700    7.8434   21.3915 C   0  0  0  0  0  0  0  0  0  0  0  0
   11.7856    6.8851   19.2401 C   0  0  0  0  0  0  0  0  0  0  0  0
   10.5281    7.4276   19.5649 C   0  0  0  0  0  0  0  0  0  0  0  0
   10.0256    7.2907   20.8484 C   0  0  0  0  0  0  0  0  0  0  0  0
    9.3113    5.3049   14.4911 C   0  0  0  0  0  0  0  0  0  0  0  0
    9.4607    7.5646   16.0139 C   0  0  0  0  0  0  0  0  0  0  0  0
   10.4192    7.3157   15.0955 C   0  0  0  0  0  0  0  0  0  0  0  0
   10.2489    6.4227   23.0218 N   0  0  0  0  0  0  0  0  0  0  0  0
    7.2472    8.0746   23.5050 C   0  0  0  0  0  0  0  0  0  0  0  0
    9.2051    6.9101   23.4604 C   0  0  0  0  0  0  0  0  0  0  0  0
   11.9646    6.0299   21.4251 C   0  0  0  0  0  0  0  0  0  0  0  0
  1  5  1  0
  1 13  1  0
  2 20  2  0
  2 28  1  0
  2 29  1  0
  3 19  4  0
  3 25  4  0
  4 23  4  0
  4 27  1  0
  4 30  4  0
  5 17  1  0
  6  8  1  0
  6 29  1  0
  7 24  4  0
  7 26  4  0
  8 28  1  0
  9 13  2  0
 10 18  1  0
 10 21  4  0
 10 30  4  0
 11 17  2  0
 12 18  1  0
 13 15  1  0
 14 24  1  0
 15 25  1  0
 16 28  2  0
 17 20  1  0
 19 24  4  0
 20 23  1  0
 21 22  4  0
 22 23  4  0
 25 26  4  0
 27 29  2  0
M  END
$$$$

 Created by Python create_sdf_string function

 30 33  0  0  0  0  0  0  0  0999 V2000
    8.3036    9.8571   18.4133 C   0  0  0  0  0  0  0  0  0  0  0  0
    8.3694    7.6612   22.6703 C   0  0  0  0  0  0  0  0  0  0  0  0
    8.4143    6.6863   16.2273 C   0  0  0  0  0  0  0  0  0  0  0  0
   10.7581    6.5674   21.7636 C   0  0  0  0  0  0  0  0  0  0  0  0
    8.4452    8.7960   19.2958 O   0  0  0  0  0  0  0  0  0  0  0  0
    8.7122    6.7842   24.8569 C   0  0  0  0  0  0  0  0  0  0  0  0
   10.3400    6.1726   14.3081 C   0  0  0  0  0  0  0  0  0  0  0  0
    7.4297    7.5873   24.8962 C   0  0  0  0  0  0  0  0  0  0  0  0
    8.1566   10.0536   16.0516 O   0  0  0  0  0  0  0  0  0  0  0  0
   12.4989    6.2074   20.1776 C   0  0  0  0  0  0  0  0  0  0  0  0
    6.9192    9.1053   20.9073 O   0  0  0  0  0  0  0  0  0  0  0  0
   14.3979    6.0729   18.7784 C   0  0  0  0  0  0  0  0  0  0  0  0
    8.6811    9.5354   16.9998 C   0  0  0  0  0  0  0  0  0  0  0  0
    9.2512    4.2713   13.7653 O   0  0  0  0  0  0  0  0  0  0  0  0
    9.6495    8.6317   16.8332 N   0  0  0  0  0  0  0  0  0  0  0  0
    6.2934    8.6988   23.1988 O   0  0  0  0  0  0  0  0  0  0  0  0
    7.9806    8.6543   20.5437 C   0  0  0  0  0  0  0  0  0  0  0  0
   13.7270    5.7144   19.8610 O   0  0  0  0  0  0  0  0  0  0  0  0
    8.3351    5.5235   15.4478 C   0  0  0  0  0  0  0  0  0  0  0  0
    8.7700    7.8434   21.3915 C   0  0  0  0  0  0  0  0  0  0  0  0
   11.7856    6.8851   19.2401 C   0  0  0  0  0  0  0  0  0  0  0  0
   10.5281    7.4276   19.5649 C   0  0  0  0  0  0  0  0  0  0  0  0
   10.0256    7.2907   20.8484 C   0  0  0  0  0  0  0  0  0  0  0  0
    9.3113    5.3049   14.4911 C   0  0  0  0  0  0  0  0  0  0  0  0
    9.4607    7.5646   16.0139 C   0  0  0  0  0  0  0  0  0  0  0  0
   10.4192    7.3157   15.0955 C   0  0  0  0  0  0  0  0  0  0  0  0
   10.2489    6.4227   23.0218 N   0  0  0  0  0  0  0  0  0  0  0  0
    7.2472    8.0746   23.5050 C   0  0  0  0  0  0  0  0  0  0  0  0
    9.2051    6.9101   23.4604 C   0  0  0  0  0  0  0  0  0  0  0  0
   11.9646    6.0299   21.4251 C   0  0  0  0  0  0  0  0  0  0  0  0
  1  5  1  0
  1 13  1  0
  2 20  2  0
  2 28  1  0
  2 29  1  0
  3 19  4  0
  3 25  4  0
  4 23  4  0
  4 27  1  0
  4 30  4  0
  5 17  1  0
  6  8  1  0
  6 29  1  0
  7 24  4  0
  7 26  4  0
  8 28  1  0
  9 13  2  0
 10 18  1  0
 10 21  4  0
 10 30  4  0
 11 17  2  0
 12 18  1  0
 13 15  1  0
 14 24  1  0
 15 25  1  0
 16 28  2  0
 17 20  1  0
 19 24  4  0
 20 23  1  0
 21 22  4  0
 22 23  4  0
 25 26  4  0
 27 29  2  0
M  END
$$$$

 Created by Python create_sdf_string function

 30 33  0  0  0  0  0  0  0  0999 V2000
    8.3036    9.8571   18.4133 C   0  0  0  0  0  0  0  0  0  0  0  0
    8.3694    7.6612   22.6703 C   0  0  0  0  0  0  0  0  0  0  0  0
    8.4143    6.6863   16.2273 C   0  0  0  0  0  0  0  0  0  0  0  0
   10.7581    6.5674   21.7636 C   0  0  0  0  0  0  0  0  0  0  0  0
    8.4452    8.7960   19.2958 O   0  0  0  0  0  0  0  0  0  0  0  0
    8.7122    6.7842   24.8569 C   0  0  0  0  0  0  0  0  0  0  0  0
   10.3400    6.1726   14.3081 C   0  0  0  0  0  0  0  0  0  0  0  0
    7.4297    7.5873   24.8962 C   0  0  0  0  0  0  0  0  0  0  0  0
    8.1566   10.0536   16.0516 O   0  0  0  0  0  0  0  0  0  0  0  0
   12.4989    6.2074   20.1776 C   0  0  0  0  0  0  0  0  0  0  0  0
    6.9192    9.1053   20.9073 O   0  0  0  0  0  0  0  0  0  0  0  0
   14.3979    6.0729   18.7784 C   0  0  0  0  0  0  0  0  0  0  0  0
    8.6811    9.5354   16.9998 C   0  0  0  0  0  0  0  0  0  0  0  0
    9.2512    4.2713   13.7653 O   0  0  0  0  0  0  0  0  0  0  0  0
    9.6495    8.6317   16.8332 N   0  0  0  0  0  0  0  0  0  0  0  0
    6.2934    8.6988   23.1988 O   0  0  0  0  0  0  0  0  0  0  0  0
    7.9806    8.6543   20.5437 C   0  0  0  0  0  0  0  0  0  0  0  0
   13.7270    5.7144   19.8610 O   0  0  0  0  0  0  0  0  0  0  0  0
    8.3351    5.5235   15.4478 C   0  0  0  0  0  0  0  0  0  0  0  0
    8.7700    7.8434   21.3915 C   0  0  0  0  0  0  0  0  0  0  0  0
   11.7856    6.8851   19.2401 C   0  0  0  0  0  0  0  0  0  0  0  0
   10.5281    7.4276   19.5649 C   0  0  0  0  0  0  0  0  0  0  0  0
   10.0256    7.2907   20.8484 C   0  0  0  0  0  0  0  0  0  0  0  0
    9.3113    5.3049   14.4911 C   0  0  0  0  0  0  0  0  0  0  0  0
    9.4607    7.5646   16.0139 C   0  0  0  0  0  0  0  0  0  0  0  0
   10.4192    7.3157   15.0955 C   0  0  0  0  0  0  0  0  0  0  0  0
   10.2489    6.4227   23.0218 N   0  0  0  0  0  0  0  0  0  0  0  0
    7.2472    8.0746   23.5050 C   0  0  0  0  0  0  0  0  0  0  0  0
    9.2051    6.9101   23.4604 C   0  0  0  0  0  0  0  0  0  0  0  0
   11.9646    6.0299   21.4251 C   0  0  0  0  0  0  0  0  0  0  0  0
  1  5  1  0
  1 13  1  0
  2 20  2  0
  2 28  1  0
  2 29  1  0
  3 19  4  0
  3 25  4  0
  4 23  4  0
  4 27  1  0
  4 30  4  0
  5 17  1  0
  6  8  1  0
  6 29  1  0
  7 24  4  0
  7 26  4  0
  8 28  1  0
  9 13  2  0
 10 18  1  0
 10 21  4  0
 10 30  4  0
 11 17  2  0
 12 18  1  0
 13 15  1  0
 14 24  1  0
 15 25  1  0
 16 28  2  0
 17 20  1  0
 19 24  4  0
 20 23  1  0
 21 22  4  0
 22 23  4  0
 25 26  4  0
 27 29  2  0
M  END
$$$$

 Created by Python create_sdf_string function

 30 33  0  0  0  0  0  0  0  0999 V2000
    8.3036    9.8571   18.4133 C   0  0  0  0  0  0  0  0  0  0  0  0
    8.3694    7.6612   22.6703 C   0  0  0  0  0  0  0  0  0  0  0  0
    8.4143    6.6863   16.2273 C   0  0  0  0  0  0  0  0  0  0  0  0
   10.7581    6.5674   21.7636 C   0  0  0  0  0  0  0  0  0  0  0  0
    8.4452    8.7960   19.2958 O   0  0  0  0  0  0  0  0  0  0  0  0
    8.7122    6.7842   24.8569 C   0  0  0  0  0  0  0  0  0  0  0  0
   10.3400    6.1726   14.3081 C   0  0  0  0  0  0  0  0  0  0  0  0
    7.4297    7.5873   24.8962 C   0  0  0  0  0  0  0  0  0  0  0  0
    8.1566   10.0536   16.0516 O   0  0  0  0  0  0  0  0  0  0  0  0
   12.4989    6.2074   20.1776 C   0  0  0  0  0  0  0  0  0  0  0  0
    6.9192    9.1053   20.9073 O   0  0  0  0  0  0  0  0  0  0  0  0
   14.3979    6.0729   18.7784 C   0  0  0  0  0  0  0  0  0  0  0  0
    8.6811    9.5354   16.9998 C   0  0  0  0  0  0  0  0  0  0  0  0
    9.2512    4.2713   13.7653 O   0  0  0  0  0  0  0  0  0  0  0  0
    9.6495    8.6317   16.8332 N   0  0  0  0  0  0  0  0  0  0  0  0
    6.2934    8.6988   23.1988 O   0  0  0  0  0  0  0  0  0  0  0  0
    7.9806    8.6543   20.5437 C   0  0  0  0  0  0  0  0  0  0  0  0
   13.7270    5.7144   19.8610 O   0  0  0  0  0  0  0  0  0  0  0  0
    8.3351    5.5235   15.4478 C   0  0  0  0  0  0  0  0  0  0  0  0
    8.7700    7.8434   21.3915 C   0  0  0  0  0  0  0  0  0  0  0  0
   11.7856    6.8851   19.2401 C   0  0  0  0  0  0  0  0  0  0  0  0
   10.5281    7.4276   19.5649 C   0  0  0  0  0  0  0  0  0  0  0  0
   10.0256    7.2907   20.8484 C   0  0  0  0  0  0  0  0  0  0  0  0
    9.3113    5.3049   14.4911 C   0  0  0  0  0  0  0  0  0  0  0  0
    9.4607    7.5646   16.0139 C   0  0  0  0  0  0  0  0  0  0  0  0
   10.4192    7.3157   15.0955 C   0  0  0  0  0  0  0  0  0  0  0  0
   10.2489    6.4227   23.0218 N   0  0  0  0  0  0  0  0  0  0  0  0
    7.2472    8.0746   23.5050 C   0  0  0  0  0  0  0  0  0  0  0  0
    9.2051    6.9101   23.4604 C   0  0  0  0  0  0  0  0  0  0  0  0
   11.9646    6.0299   21.4251 C   0  0  0  0  0  0  0  0  0  0  0  0
  1  5  1  0
  1 13  1  0
  2 20  2  0
  2 28  1  0
  2 29  1  0
  3 19  4  0
  3 25  4  0
  4 23  4  0
  4 27  1  0
  4 30  4  0
  5 17  1  0
  6  8  1  0
  6 29  1  0
  7 24  4  0
  7 26  4  0
  8 28  1  0
  9 13  2  0
 10 18  1  0
 10 21  4  0
 10 30  4  0
 11 17  2  0
 12 18  1  0
 13 15  1  0
 14 24  1  0
 15 25  1  0
 16 28  2  0
 17 20  1  0
 19 24  4  0
 20 23  1  0
 21 22  4  0
 22 23  4  0
 25 26  4  0
 27 29  2  0
M  END
$$$$

 Created by Python create_sdf_string function

 30 33  0  0  0  0  0  0  0  0999 V2000
    8.3036    9.8571   18.4133 C   0  0  0  0  0  0  0  0  0  0  0  0
    8.3694    7.6612   22.6703 C   0  0  0  0  0  0  0  0  0  0  0  0
    8.4143    6.6863   16.2273 C   0  0  0  0  0  0  0  0  0  0  0  0
   10.7581    6.5674   21.7636 C   0  0  0  0  0  0  0  0  0  0  0  0
    8.4452    8.7960   19.2958 O   0  0  0  0  0  0  0  0  0  0  0  0
    8.7122    6.7842   24.8569 C   0  0  0  0  0  0  0  0  0  0  0  0
   10.3400    6.1726   14.3081 C   0  0  0  0  0  0  0  0  0  0  0  0
    7.4297    7.5873   24.8962 C   0  0  0  0  0  0  0  0  0  0  0  0
    8.1566   10.0536   16.0516 O   0  0  0  0  0  0  0  0  0  0  0  0
   12.4989    6.2074   20.1776 C   0  0  0  0  0  0  0  0  0  0  0  0
    6.9192    9.1053   20.9073 O   0  0  0  0  0  0  0  0  0  0  0  0
   14.3979    6.0729   18.7784 C   0  0  0  0  0  0  0  0  0  0  0  0
    8.6811    9.5354   16.9998 C   0  0  0  0  0  0  0  0  0  0  0  0
    9.2512    4.2713   13.7653 O   0  0  0  0  0  0  0  0  0  0  0  0
    9.6495    8.6317   16.8332 N   0  0  0  0  0  0  0  0  0  0  0  0
    6.2934    8.6988   23.1988 O   0  0  0  0  0  0  0  0  0  0  0  0
    7.9806    8.6543   20.5437 C   0  0  0  0  0  0  0  0  0  0  0  0
   13.7270    5.7144   19.8610 O   0  0  0  0  0  0  0  0  0  0  0  0
    8.3351    5.5235   15.4478 C   0  0  0  0  0  0  0  0  0  0  0  0
    8.7700    7.8434   21.3915 C   0  0  0  0  0  0  0  0  0  0  0  0
   11.7856    6.8851   19.2401 C   0  0  0  0  0  0  0  0  0  0  0  0
   10.5281    7.4276   19.5649 C   0  0  0  0  0  0  0  0  0  0  0  0
   10.0256    7.2907   20.8484 C   0  0  0  0  0  0  0  0  0  0  0  0
    9.3113    5.3049   14.4911 C   0  0  0  0  0  0  0  0  0  0  0  0
    9.4607    7.5646   16.0139 C   0  0  0  0  0  0  0  0  0  0  0  0
   10.4192    7.3157   15.0955 C   0  0  0  0  0  0  0  0  0  0  0  0
   10.2489    6.4227   23.0218 N   0  0  0  0  0  0  0  0  0  0  0  0
    7.2472    8.0746   23.5050 C   0  0  0  0  0  0  0  0  0  0  0  0
    9.2051    6.9101   23.4604 C   0  0  0  0  0  0  0  0  0  0  0  0
   11.9646    6.0299   21.4251 C   0  0  0  0  0  0  0  0  0  0  0  0
  1  5  1  0
  1 13  1  0
  2 20  2  0
  2 28  1  0
  2 29  1  0
  3 19  4  0
  3 25  4  0
  4 23  4  0
  4 27  1  0
  4 30  4  0
  5 17  1  0
  6  8  1  0
  6 29  1  0
  7 24  4  0
  7 26  4  0
  8 28  1  0
  9 13  2  0
 10 18  1  0
 10 21  4  0
 10 30  4  0
 11 17  2  0
 12 18  1  0
 13 15  1  0
 14 24  1  0
 15 25  1  0
 16 28  2  0
 17 20  1  0
 19 24  4  0
 20 23  1  0
 21 22  4  0
 22 23  4  0
 25 26  4  0
 27 29  2  0
M  END
$$$$

 Created by Python create_sdf_string function

 30 33  0  0  0  0  0  0  0  0999 V2000
    8.3036    9.8571   18.4133 C   0  0  0  0  0  0  0  0  0  0  0  0
    8.3694    7.6612   22.6703 C   0  0  0  0  0  0  0  0  0  0  0  0
    8.4143    6.6863   16.2273 C   0  0  0  0  0  0  0  0  0  0  0  0
   10.7581    6.5674   21.7636 C   0  0  0  0  0  0  0  0  0  0  0  0
    8.4452    8.7960   19.2958 O   0  0  0  0  0  0  0  0  0  0  0  0
    8.7122    6.7842   24.8569 C   0  0  0  0  0  0  0  0  0  0  0  0
   10.3400    6.1726   14.3081 C   0  0  0  0  0  0  0  0  0  0  0  0
    7.4297    7.5873   24.8962 C   0  0  0  0  0  0  0  0  0  0  0  0
    8.1566   10.0536   16.0516 O   0  0  0  0  0  0  0  0  0  0  0  0
   12.4989    6.2074   20.1776 C   0  0  0  0  0  0  0  0  0  0  0  0
    6.9192    9.1053   20.9073 O   0  0  0  0  0  0  0  0  0  0  0  0
   14.3979    6.0729   18.7784 C   0  0  0  0  0  0  0  0  0  0  0  0
    8.6811    9.5354   16.9998 C   0  0  0  0  0  0  0  0  0  0  0  0
    9.2512    4.2713   13.7653 O   0  0  0  0  0  0  0  0  0  0  0  0
    9.6495    8.6317   16.8332 N   0  0  0  0  0  0  0  0  0  0  0  0
    6.2934    8.6988   23.1988 O   0  0  0  0  0  0  0  0  0  0  0  0
    7.9806    8.6543   20.5437 C   0  0  0  0  0  0  0  0  0  0  0  0
   13.7270    5.7144   19.8610 O   0  0  0  0  0  0  0  0  0  0  0  0
    8.3351    5.5235   15.4478 C   0  0  0  0  0  0  0  0  0  0  0  0
    8.7700    7.8434   21.3915 C   0  0  0  0  0  0  0  0  0  0  0  0
   11.7856    6.8851   19.2401 C   0  0  0  0  0  0  0  0  0  0  0  0
   10.5281    7.4276   19.5649 C   0  0  0  0  0  0  0  0  0  0  0  0
   10.0256    7.2907   20.8484 C   0  0  0  0  0  0  0  0  0  0  0  0
    9.3113    5.3049   14.4911 C   0  0  0  0  0  0  0  0  0  0  0  0
    9.4607    7.5646   16.0139 C   0  0  0  0  0  0  0  0  0  0  0  0
   10.4192    7.3157   15.0955 C   0  0  0  0  0  0  0  0  0  0  0  0
   10.2489    6.4227   23.0218 N   0  0  0  0  0  0  0  0  0  0  0  0
    7.2472    8.0746   23.5050 C   0  0  0  0  0  0  0  0  0  0  0  0
    9.2051    6.9101   23.4604 C   0  0  0  0  0  0  0  0  0  0  0  0
   11.9646    6.0299   21.4251 C   0  0  0  0  0  0  0  0  0  0  0  0
  1  5  1  0
  1 13  1  0
  2 20  2  0
  2 28  1  0
  2 29  1  0
  3 19  4  0
  3 25  4  0
  4 23  4  0
  4 27  1  0
  4 30  4  0
  5 17  1  0
  6  8  1  0
  6 29  1  0
  7 24  4  0
  7 26  4  0
  8 28  1  0
  9 13  2  0
 10 18  1  0
 10 21  4  0
 10 30  4  0
 11 17  2  0
 12 18  1  0
 13 15  1  0
 14 24  1  0
 15 25  1  0
 16 28  2  0
 17 20  1  0
 19 24  4  0
 20 23  1  0
 21 22  4  0
 22 23  4  0
 25 26  4  0
 27 29  2  0
M  END
$$$$

 Created by Python create_sdf_string function

 30 33  0  0  0  0  0  0  0  0999 V2000
    8.3036    9.8571   18.4133 C   0  0  0  0  0  0  0  0  0  0  0  0
    8.3694    7.6612   22.6703 C   0  0  0  0  0  0  0  0  0  0  0  0
    8.4143    6.6863   16.2273 C   0  0  0  0  0  0  0  0  0  0  0  0
   10.7581    6.5674   21.7636 C   0  0  0  0  0  0  0  0  0  0  0  0
    8.4452    8.7960   19.2958 O   0  0  0  0  0  0  0  0  0  0  0  0
    8.7122    6.7842   24.8569 C   0  0  0  0  0  0  0  0  0  0  0  0
   10.3400    6.1726   14.3081 C   0  0  0  0  0  0  0  0  0  0  0  0
    7.4297    7.5873   24.8962 C   0  0  0  0  0  0  0  0  0  0  0  0
    8.1566   10.0536   16.0516 O   0  0  0  0  0  0  0  0  0  0  0  0
   12.4989    6.2074   20.1776 C   0  0  0  0  0  0  0  0  0  0  0  0
    6.9192    9.1053   20.9073 O   0  0  0  0  0  0  0  0  0  0  0  0
   14.3979    6.0729   18.7784 C   0  0  0  0  0  0  0  0  0  0  0  0
    8.6811    9.5354   16.9998 C   0  0  0  0  0  0  0  0  0  0  0  0
    9.2512    4.2713   13.7653 O   0  0  0  0  0  0  0  0  0  0  0  0
    9.6495    8.6317   16.8332 N   0  0  0  0  0  0  0  0  0  0  0  0
    6.2934    8.6988   23.1988 O   0  0  0  0  0  0  0  0  0  0  0  0
    7.9806    8.6543   20.5437 C   0  0  0  0  0  0  0  0  0  0  0  0
   13.7270    5.7144   19.8610 O   0  0  0  0  0  0  0  0  0  0  0  0
    8.3351    5.5235   15.4478 C   0  0  0  0  0  0  0  0  0  0  0  0
    8.7700    7.8434   21.3915 C   0  0  0  0  0  0  0  0  0  0  0  0
   11.7856    6.8851   19.2401 C   0  0  0  0  0  0  0  0  0  0  0  0
   10.5281    7.4276   19.5649 C   0  0  0  0  0  0  0  0  0  0  0  0
   10.0256    7.2907   20.8484 C   0  0  0  0  0  0  0  0  0  0  0  0
    9.3113    5.3049   14.4911 C   0  0  0  0  0  0  0  0  0  0  0  0
    9.4607    7.5646   16.0139 C   0  0  0  0  0  0  0  0  0  0  0  0
   10.4192    7.3157   15.0955 C   0  0  0  0  0  0  0  0  0  0  0  0
   10.2489    6.4227   23.0218 N   0  0  0  0  0  0  0  0  0  0  0  0
    7.2472    8.0746   23.5050 C   0  0  0  0  0  0  0  0  0  0  0  0
    9.2051    6.9101   23.4604 C   0  0  0  0  0  0  0  0  0  0  0  0
   11.9646    6.0299   21.4251 C   0  0  0  0  0  0  0  0  0  0  0  0
  1  5  1  0
  1 13  1  0
  2 20  2  0
  2 28  1  0
  2 29  1  0
  3 19  4  0
  3 25  4  0
  4 23  4  0
  4 27  1  0
  4 30  4  0
  5 17  1  0
  6  8  1  0
  6 29  1  0
  7 24  4  0
  7 26  4  0
  8 28  1  0
  9 13  2  0
 10 18  1  0
 10 21  4  0
 10 30  4  0
 11 17  2  0
 12 18  1  0
 13 15  1  0
 14 24  1  0
 15 25  1  0
 16 28  2  0
 17 20  1  0
 19 24  4  0
 20 23  1  0
 21 22  4  0
 22 23  4  0
 25 26  4  0
 27 29  2  0
M  END
$$$$

 Created by Python create_sdf_string function

 30 33  0  0  0  0  0  0  0  0999 V2000
    8.3036    9.8571   18.4133 C   0  0  0  0  0  0  0  0  0  0  0  0
    8.3694    7.6612   22.6703 C   0  0  0  0  0  0  0  0  0  0  0  0
    8.4143    6.6863   16.2273 C   0  0  0  0  0  0  0  0  0  0  0  0
   10.7581    6.5674   21.7636 C   0  0  0  0  0  0  0  0  0  0  0  0
    8.4452    8.7960   19.2958 O   0  0  0  0  0  0  0  0  0  0  0  0
    8.7122    6.7842   24.8569 C   0  0  0  0  0  0  0  0  0  0  0  0
   10.3400    6.1726   14.3081 C   0  0  0  0  0  0  0  0  0  0  0  0
    7.4297    7.5873   24.8962 C   0  0  0  0  0  0  0  0  0  0  0  0
    8.1566   10.0536   16.0516 O   0  0  0  0  0  0  0  0  0  0  0  0
   12.4989    6.2074   20.1776 C   0  0  0  0  0  0  0  0  0  0  0  0
    6.9192    9.1053   20.9073 O   0  0  0  0  0  0  0  0  0  0  0  0
   14.3979    6.0729   18.7784 C   0  0  0  0  0  0  0  0  0  0  0  0
    8.6811    9.5354   16.9998 C   0  0  0  0  0  0  0  0  0  0  0  0
    9.2512    4.2713   13.7653 O   0  0  0  0  0  0  0  0  0  0  0  0
    9.6495    8.6317   16.8332 N   0  0  0  0  0  0  0  0  0  0  0  0
    6.2934    8.6988   23.1988 O   0  0  0  0  0  0  0  0  0  0  0  0
    7.9806    8.6543   20.5437 C   0  0  0  0  0  0  0  0  0  0  0  0
   13.7270    5.7144   19.8610 O   0  0  0  0  0  0  0  0  0  0  0  0
    8.3351    5.5235   15.4478 C   0  0  0  0  0  0  0  0  0  0  0  0
    8.7700    7.8434   21.3915 C   0  0  0  0  0  0  0  0  0  0  0  0
   11.7856    6.8851   19.2401 C   0  0  0  0  0  0  0  0  0  0  0  0
   10.5281    7.4276   19.5649 C   0  0  0  0  0  0  0  0  0  0  0  0
   10.0256    7.2907   20.8484 C   0  0  0  0  0  0  0  0  0  0  0  0
    9.3113    5.3049   14.4911 C   0  0  0  0  0  0  0  0  0  0  0  0
    9.4607    7.5646   16.0139 C   0  0  0  0  0  0  0  0  0  0  0  0
   10.4192    7.3157   15.0955 C   0  0  0  0  0  0  0  0  0  0  0  0
   10.2489    6.4227   23.0218 N   0  0  0  0  0  0  0  0  0  0  0  0
    7.2472    8.0746   23.5050 C   0  0  0  0  0  0  0  0  0  0  0  0
    9.2051    6.9101   23.4604 C   0  0  0  0  0  0  0  0  0  0  0  0
   11.9646    6.0299   21.4251 C   0  0  0  0  0  0  0  0  0  0  0  0
  1  5  1  0
  1 13  1  0
  2 20  2  0
  2 28  1  0
  2 29  1  0
  3 19  4  0
  3 25  4  0
  4 23  4  0
  4 27  1  0
  4 30  4  0
  5 17  1  0
  6  8  1  0
  6 29  1  0
  7 24  4  0
  7 26  4  0
  8 28  1  0
  9 13  2  0
 10 18  1  0
 10 21  4  0
 10 30  4  0
 11 17  2  0
 12 18  1  0
 13 15  1  0
 14 24  1  0
 15 25  1  0
 16 28  2  0
 17 20  1  0
 19 24  4  0
 20 23  1  0
 21 22  4  0
 22 23  4  0
 25 26  4  0
 27 29  2  0
M  END
$$$$

 Created by Python create_sdf_string function

 30 33  0  0  0  0  0  0  0  0999 V2000
    8.3036    9.8571   18.4133 C   0  0  0  0  0  0  0  0  0  0  0  0
    8.3694    7.6612   22.6703 C   0  0  0  0  0  0  0  0  0  0  0  0
    8.4143    6.6863   16.2273 C   0  0  0  0  0  0  0  0  0  0  0  0
   10.7581    6.5674   21.7636 C   0  0  0  0  0  0  0  0  0  0  0  0
    8.4452    8.7960   19.2958 O   0  0  0  0  0  0  0  0  0  0  0  0
    8.7122    6.7842   24.8569 C   0  0  0  0  0  0  0  0  0  0  0  0
   10.3400    6.1726   14.3081 C   0  0  0  0  0  0  0  0  0  0  0  0
    7.4297    7.5873   24.8962 C   0  0  0  0  0  0  0  0  0  0  0  0
    8.1566   10.0536   16.0516 O   0  0  0  0  0  0  0  0  0  0  0  0
   12.4989    6.2074   20.1776 C   0  0  0  0  0  0  0  0  0  0  0  0
    6.9192    9.1053   20.9073 O   0  0  0  0  0  0  0  0  0  0  0  0
   14.3979    6.0729   18.7784 C   0  0  0  0  0  0  0  0  0  0  0  0
    8.6811    9.5354   16.9998 C   0  0  0  0  0  0  0  0  0  0  0  0
    9.2512    4.2713   13.7653 O   0  0  0  0  0  0  0  0  0  0  0  0
    9.6495    8.6317   16.8332 N   0  0  0  0  0  0  0  0  0  0  0  0
    6.2934    8.6988   23.1988 O   0  0  0  0  0  0  0  0  0  0  0  0
    7.9806    8.6543   20.5437 C   0  0  0  0  0  0  0  0  0  0  0  0
   13.7270    5.7144   19.8610 O   0  0  0  0  0  0  0  0  0  0  0  0
    8.3351    5.5235   15.4478 C   0  0  0  0  0  0  0  0  0  0  0  0
    8.7700    7.8434   21.3915 C   0  0  0  0  0  0  0  0  0  0  0  0
   11.7856    6.8851   19.2401 C   0  0  0  0  0  0  0  0  0  0  0  0
   10.5281    7.4276   19.5649 C   0  0  0  0  0  0  0  0  0  0  0  0
   10.0256    7.2907   20.8484 C   0  0  0  0  0  0  0  0  0  0  0  0
    9.3113    5.3049   14.4911 C   0  0  0  0  0  0  0  0  0  0  0  0
    9.4607    7.5646   16.0139 C   0  0  0  0  0  0  0  0  0  0  0  0
   10.4192    7.3157   15.0955 C   0  0  0  0  0  0  0  0  0  0  0  0
   10.2489    6.4227   23.0218 N   0  0  0  0  0  0  0  0  0  0  0  0
    7.2472    8.0746   23.5050 C   0  0  0  0  0  0  0  0  0  0  0  0
    9.2051    6.9101   23.4604 C   0  0  0  0  0  0  0  0  0  0  0  0
   11.9646    6.0299   21.4251 C   0  0  0  0  0  0  0  0  0  0  0  0
  1  5  1  0
  1 13  1  0
  2 20  2  0
  2 28  1  0
  2 29  1  0
  3 19  4  0
  3 25  4  0
  4 23  4  0
  4 27  1  0
  4 30  4  0
  5 17  1  0
  6  8  1  0
  6 29  1  0
  7 24  4  0
  7 26  4  0
  8 28  1  0
  9 13  2  0
 10 18  1  0
 10 21  4  0
 10 30  4  0
 11 17  2  0
 12 18  1  0
 13 15  1  0
 14 24  1  0
 15 25  1  0
 16 28  2  0
 17 20  1  0
 19 24  4  0
 20 23  1  0
 21 22  4  0
 22 23  4  0
 25 26  4  0
 27 29  2  0
M  END
$$$$

 Created by Python create_sdf_string function

 30 33  0  0  0  0  0  0  0  0999 V2000
    8.3036    9.8571   18.4133 C   0  0  0  0  0  0  0  0  0  0  0  0
    8.3694    7.6612   22.6703 C   0  0  0  0  0  0  0  0  0  0  0  0
    8.4143    6.6863   16.2273 C   0  0  0  0  0  0  0  0  0  0  0  0
   10.7581    6.5674   21.7636 C   0  0  0  0  0  0  0  0  0  0  0  0
    8.4452    8.7960   19.2958 O   0  0  0  0  0  0  0  0  0  0  0  0
    8.7122    6.7842   24.8569 C   0  0  0  0  0  0  0  0  0  0  0  0
   10.3400    6.1726   14.3081 C   0  0  0  0  0  0  0  0  0  0  0  0
    7.4297    7.5873   24.8962 C   0  0  0  0  0  0  0  0  0  0  0  0
    8.1566   10.0536   16.0516 O   0  0  0  0  0  0  0  0  0  0  0  0
   12.4989    6.2074   20.1776 C   0  0  0  0  0  0  0  0  0  0  0  0
    6.9192    9.1053   20.9073 O   0  0  0  0  0  0  0  0  0  0  0  0
   14.3979    6.0729   18.7784 C   0  0  0  0  0  0  0  0  0  0  0  0
    8.6811    9.5354   16.9998 C   0  0  0  0  0  0  0  0  0  0  0  0
    9.2512    4.2713   13.7653 O   0  0  0  0  0  0  0  0  0  0  0  0
    9.6495    8.6317   16.8332 N   0  0  0  0  0  0  0  0  0  0  0  0
    6.2934    8.6988   23.1988 O   0  0  0  0  0  0  0  0  0  0  0  0
    7.9806    8.6543   20.5437 C   0  0  0  0  0  0  0  0  0  0  0  0
   13.7270    5.7144   19.8610 O   0  0  0  0  0  0  0  0  0  0  0  0
    8.3351    5.5235   15.4478 C   0  0  0  0  0  0  0  0  0  0  0  0
    8.7700    7.8434   21.3915 C   0  0  0  0  0  0  0  0  0  0  0  0
   11.7856    6.8851   19.2401 C   0  0  0  0  0  0  0  0  0  0  0  0
   10.5281    7.4276   19.5649 C   0  0  0  0  0  0  0  0  0  0  0  0
   10.0256    7.2907   20.8484 C   0  0  0  0  0  0  0  0  0  0  0  0
    9.3113    5.3049   14.4911 C   0  0  0  0  0  0  0  0  0  0  0  0
    9.4607    7.5646   16.0139 C   0  0  0  0  0  0  0  0  0  0  0  0
   10.4192    7.3157   15.0955 C   0  0  0  0  0  0  0  0  0  0  0  0
   10.2489    6.4227   23.0218 N   0  0  0  0  0  0  0  0  0  0  0  0
    7.2472    8.0746   23.5050 C   0  0  0  0  0  0  0  0  0  0  0  0
    9.2051    6.9101   23.4604 C   0  0  0  0  0  0  0  0  0  0  0  0
   11.9646    6.0299   21.4251 C   0  0  0  0  0  0  0  0  0  0  0  0
  1  5  1  0
  1 13  1  0
  2 20  2  0
  2 28  1  0
  2 29  1  0
  3 19  4  0
  3 25  4  0
  4 23  4  0
  4 27  1  0
  4 30  4  0
  5 17  1  0
  6  8  1  0
  6 29  1  0
  7 24  4  0
  7 26  4  0
  8 28  1  0
  9 13  2  0
 10 18  1  0
 10 21  4  0
 10 30  4  0
 11 17  2  0
 12 18  1  0
 13 15  1  0
 14 24  1  0
 15 25  1  0
 16 28  2  0
 17 20  1  0
 19 24  4  0
 20 23  1  0
 21 22  4  0
 22 23  4  0
 25 26  4  0
 27 29  2  0
M  END
$$$$

 Created by Python create_sdf_string function

 30 33  0  0  0  0  0  0  0  0999 V2000
    8.3036    9.8571   18.4133 C   0  0  0  0  0  0  0  0  0  0  0  0
    8.3694    7.6612   22.6703 C   0  0  0  0  0  0  0  0  0  0  0  0
    8.4143    6.6863   16.2273 C   0  0  0  0  0  0  0  0  0  0  0  0
   10.7581    6.5674   21.7636 C   0  0  0  0  0  0  0  0  0  0  0  0
    8.4452    8.7960   19.2958 O   0  0  0  0  0  0  0  0  0  0  0  0
    8.7122    6.7842   24.8569 C   0  0  0  0  0  0  0  0  0  0  0  0
   10.3400    6.1726   14.3081 C   0  0  0  0  0  0  0  0  0  0  0  0
    7.4297    7.5873   24.8962 C   0  0  0  0  0  0  0  0  0  0  0  0
    8.1566   10.0536   16.0516 O   0  0  0  0  0  0  0  0  0  0  0  0
   12.4989    6.2074   20.1776 C   0  0  0  0  0  0  0  0  0  0  0  0
    6.9192    9.1053   20.9073 O   0  0  0  0  0  0  0  0  0  0  0  0
   14.3979    6.0729   18.7784 C   0  0  0  0  0  0  0  0  0  0  0  0
    8.6811    9.5354   16.9998 C   0  0  0  0  0  0  0  0  0  0  0  0
    9.2512    4.2713   13.7653 O   0  0  0  0  0  0  0  0  0  0  0  0
    9.6495    8.6317   16.8332 N   0  0  0  0  0  0  0  0  0  0  0  0
    6.2934    8.6988   23.1988 O   0  0  0  0  0  0  0  0  0  0  0  0
    7.9806    8.6543   20.5437 C   0  0  0  0  0  0  0  0  0  0  0  0
   13.7270    5.7144   19.8610 O   0  0  0  0  0  0  0  0  0  0  0  0
    8.3351    5.5235   15.4478 C   0  0  0  0  0  0  0  0  0  0  0  0
    8.7700    7.8434   21.3915 C   0  0  0  0  0  0  0  0  0  0  0  0
   11.7856    6.8851   19.2401 C   0  0  0  0  0  0  0  0  0  0  0  0
   10.5281    7.4276   19.5649 C   0  0  0  0  0  0  0  0  0  0  0  0
   10.0256    7.2907   20.8484 C   0  0  0  0  0  0  0  0  0  0  0  0
    9.3113    5.3049   14.4911 C   0  0  0  0  0  0  0  0  0  0  0  0
    9.4607    7.5646   16.0139 C   0  0  0  0  0  0  0  0  0  0  0  0
   10.4192    7.3157   15.0955 C   0  0  0  0  0  0  0  0  0  0  0  0
   10.2489    6.4227   23.0218 N   0  0  0  0  0  0  0  0  0  0  0  0
    7.2472    8.0746   23.5050 C   0  0  0  0  0  0  0  0  0  0  0  0
    9.2051    6.9101   23.4604 C   0  0  0  0  0  0  0  0  0  0  0  0
   11.9646    6.0299   21.4251 C   0  0  0  0  0  0  0  0  0  0  0  0
  1  5  1  0
  1 13  1  0
  2 20  2  0
  2 28  1  0
  2 29  1  0
  3 19  4  0
  3 25  4  0
  4 23  4  0
  4 27  1  0
  4 30  4  0
  5 17  1  0
  6  8  1  0
  6 29  1  0
  7 24  4  0
  7 26  4  0
  8 28  1  0
  9 13  2  0
 10 18  1  0
 10 21  4  0
 10 30  4  0
 11 17  2  0
 12 18  1  0
 13 15  1  0
 14 24  1  0
 15 25  1  0
 16 28  2  0
 17 20  1  0
 19 24  4  0
 20 23  1  0
 21 22  4  0
 22 23  4  0
 25 26  4  0
 27 29  2  0
M  END
$$$$

 Created by Python create_sdf_string function

 30 33  0  0  0  0  0  0  0  0999 V2000
    8.3036    9.8571   18.4133 C   0  0  0  0  0  0  0  0  0  0  0  0
    8.3694    7.6612   22.6703 C   0  0  0  0  0  0  0  0  0  0  0  0
    8.4143    6.6863   16.2273 C   0  0  0  0  0  0  0  0  0  0  0  0
   10.7581    6.5674   21.7636 C   0  0  0  0  0  0  0  0  0  0  0  0
    8.4452    8.7960   19.2958 O   0  0  0  0  0  0  0  0  0  0  0  0
    8.7122    6.7842   24.8569 C   0  0  0  0  0  0  0  0  0  0  0  0
   10.3400    6.1726   14.3081 C   0  0  0  0  0  0  0  0  0  0  0  0
    7.4297    7.5873   24.8962 C   0  0  0  0  0  0  0  0  0  0  0  0
    8.1566   10.0536   16.0516 O   0  0  0  0  0  0  0  0  0  0  0  0
   12.4989    6.2074   20.1776 C   0  0  0  0  0  0  0  0  0  0  0  0
    6.9192    9.1053   20.9073 O   0  0  0  0  0  0  0  0  0  0  0  0
   14.3979    6.0729   18.7784 C   0  0  0  0  0  0  0  0  0  0  0  0
    8.6811    9.5354   16.9998 C   0  0  0  0  0  0  0  0  0  0  0  0
    9.2512    4.2713   13.7653 O   0  0  0  0  0  0  0  0  0  0  0  0
    9.6495    8.6317   16.8332 N   0  0  0  0  0  0  0  0  0  0  0  0
    6.2934    8.6988   23.1988 O   0  0  0  0  0  0  0  0  0  0  0  0
    7.9806    8.6543   20.5437 C   0  0  0  0  0  0  0  0  0  0  0  0
   13.7270    5.7144   19.8610 O   0  0  0  0  0  0  0  0  0  0  0  0
    8.3351    5.5235   15.4478 C   0  0  0  0  0  0  0  0  0  0  0  0
    8.7700    7.8434   21.3915 C   0  0  0  0  0  0  0  0  0  0  0  0
   11.7856    6.8851   19.2401 C   0  0  0  0  0  0  0  0  0  0  0  0
   10.5281    7.4276   19.5649 C   0  0  0  0  0  0  0  0  0  0  0  0
   10.0256    7.2907   20.8484 C   0  0  0  0  0  0  0  0  0  0  0  0
    9.3113    5.3049   14.4911 C   0  0  0  0  0  0  0  0  0  0  0  0
    9.4607    7.5646   16.0139 C   0  0  0  0  0  0  0  0  0  0  0  0
   10.4192    7.3157   15.0955 C   0  0  0  0  0  0  0  0  0  0  0  0
   10.2489    6.4227   23.0218 N   0  0  0  0  0  0  0  0  0  0  0  0
    7.2472    8.0746   23.5050 C   0  0  0  0  0  0  0  0  0  0  0  0
    9.2051    6.9101   23.4604 C   0  0  0  0  0  0  0  0  0  0  0  0
   11.9646    6.0299   21.4251 C   0  0  0  0  0  0  0  0  0  0  0  0
  1  5  1  0
  1 13  1  0
  2 20  2  0
  2 28  1  0
  2 29  1  0
  3 19  4  0
  3 25  4  0
  4 23  4  0
  4 27  1  0
  4 30  4  0
  5 17  1  0
  6  8  1  0
  6 29  1  0
  7 24  4  0
  7 26  4  0
  8 28  1  0
  9 13  2  0
 10 18  1  0
 10 21  4  0
 10 30  4  0
 11 17  2  0
 12 18  1  0
 13 15  1  0
 14 24  1  0
 15 25  1  0
 16 28  2  0
 17 20  1  0
 19 24  4  0
 20 23  1  0
 21 22  4  0
 22 23  4  0
 25 26  4  0
 27 29  2  0
M  END
$$$$

 Created by Python create_sdf_string function

 30 33  0  0  0  0  0  0  0  0999 V2000
    8.3036    9.8571   18.4133 C   0  0  0  0  0  0  0  0  0  0  0  0
    8.3694    7.6612   22.6703 C   0  0  0  0  0  0  0  0  0  0  0  0
    8.4143    6.6863   16.2273 C   0  0  0  0  0  0  0  0  0  0  0  0
   10.7581    6.5674   21.7636 C   0  0  0  0  0  0  0  0  0  0  0  0
    8.4452    8.7960   19.2958 O   0  0  0  0  0  0  0  0  0  0  0  0
    8.7122    6.7842   24.8569 C   0  0  0  0  0  0  0  0  0  0  0  0
   10.3400    6.1726   14.3081 C   0  0  0  0  0  0  0  0  0  0  0  0
    7.4297    7.5873   24.8962 C   0  0  0  0  0  0  0  0  0  0  0  0
    8.1566   10.0536   16.0516 O   0  0  0  0  0  0  0  0  0  0  0  0
   12.4989    6.2074   20.1776 C   0  0  0  0  0  0  0  0  0  0  0  0
    6.9192    9.1053   20.9073 O   0  0  0  0  0  0  0  0  0  0  0  0
   14.3979    6.0729   18.7784 C   0  0  0  0  0  0  0  0  0  0  0  0
    8.6811    9.5354   16.9998 C   0  0  0  0  0  0  0  0  0  0  0  0
    9.2512    4.2713   13.7653 O   0  0  0  0  0  0  0  0  0  0  0  0
    9.6495    8.6317   16.8332 N   0  0  0  0  0  0  0  0  0  0  0  0
    6.2934    8.6988   23.1988 O   0  0  0  0  0  0  0  0  0  0  0  0
    7.9806    8.6543   20.5437 C   0  0  0  0  0  0  0  0  0  0  0  0
   13.7270    5.7144   19.8610 O   0  0  0  0  0  0  0  0  0  0  0  0
    8.3351    5.5235   15.4478 C   0  0  0  0  0  0  0  0  0  0  0  0
    8.7700    7.8434   21.3915 C   0  0  0  0  0  0  0  0  0  0  0  0
   11.7856    6.8851   19.2401 C   0  0  0  0  0  0  0  0  0  0  0  0
   10.5281    7.4276   19.5649 C   0  0  0  0  0  0  0  0  0  0  0  0
   10.0256    7.2907   20.8484 C   0  0  0  0  0  0  0  0  0  0  0  0
    9.3113    5.3049   14.4911 C   0  0  0  0  0  0  0  0  0  0  0  0
    9.4607    7.5646   16.0139 C   0  0  0  0  0  0  0  0  0  0  0  0
   10.4192    7.3157   15.0955 C   0  0  0  0  0  0  0  0  0  0  0  0
   10.2489    6.4227   23.0218 N   0  0  0  0  0  0  0  0  0  0  0  0
    7.2472    8.0746   23.5050 C   0  0  0  0  0  0  0  0  0  0  0  0
    9.2051    6.9101   23.4604 C   0  0  0  0  0  0  0  0  0  0  0  0
   11.9646    6.0299   21.4251 C   0  0  0  0  0  0  0  0  0  0  0  0
  1  5  1  0
  1 13  1  0
  2 20  2  0
  2 28  1  0
  2 29  1  0
  3 19  4  0
  3 25  4  0
  4 23  4  0
  4 27  1  0
  4 30  4  0
  5 17  1  0
  6  8  1  0
  6 29  1  0
  7 24  4  0
  7 26  4  0
  8 28  1  0
  9 13  2  0
 10 18  1  0
 10 21  4  0
 10 30  4  0
 11 17  2  0
 12 18  1  0
 13 15  1  0
 14 24  1  0
 15 25  1  0
 16 28  2  0
 17 20  1  0
 19 24  4  0
 20 23  1  0
 21 22  4  0
 22 23  4  0
 25 26  4  0
 27 29  2  0
M  END
$$$$

 Created by Python create_sdf_string function

 30 33  0  0  0  0  0  0  0  0999 V2000
    8.3036    9.8571   18.4133 C   0  0  0  0  0  0  0  0  0  0  0  0
    8.3694    7.6612   22.6703 C   0  0  0  0  0  0  0  0  0  0  0  0
    8.4143    6.6863   16.2273 C   0  0  0  0  0  0  0  0  0  0  0  0
   10.7581    6.5674   21.7636 C   0  0  0  0  0  0  0  0  0  0  0  0
    8.4452    8.7960   19.2958 O   0  0  0  0  0  0  0  0  0  0  0  0
    8.7122    6.7842   24.8569 C   0  0  0  0  0  0  0  0  0  0  0  0
   10.3400    6.1726   14.3081 C   0  0  0  0  0  0  0  0  0  0  0  0
    7.4297    7.5873   24.8962 C   0  0  0  0  0  0  0  0  0  0  0  0
    8.1566   10.0536   16.0516 O   0  0  0  0  0  0  0  0  0  0  0  0
   12.4989    6.2074   20.1776 C   0  0  0  0  0  0  0  0  0  0  0  0
    6.9192    9.1053   20.9073 O   0  0  0  0  0  0  0  0  0  0  0  0
   14.3979    6.0729   18.7784 C   0  0  0  0  0  0  0  0  0  0  0  0
    8.6811    9.5354   16.9998 C   0  0  0  0  0  0  0  0  0  0  0  0
    9.2512    4.2713   13.7653 O   0  0  0  0  0  0  0  0  0  0  0  0
    9.6495    8.6317   16.8332 N   0  0  0  0  0  0  0  0  0  0  0  0
    6.2934    8.6988   23.1988 O   0  0  0  0  0  0  0  0  0  0  0  0
    7.9806    8.6543   20.5437 C   0  0  0  0  0  0  0  0  0  0  0  0
   13.7270    5.7144   19.8610 O   0  0  0  0  0  0  0  0  0  0  0  0
    8.3351    5.5235   15.4478 C   0  0  0  0  0  0  0  0  0  0  0  0
    8.7700    7.8434   21.3915 C   0  0  0  0  0  0  0  0  0  0  0  0
   11.7856    6.8851   19.2401 C   0  0  0  0  0  0  0  0  0  0  0  0
   10.5281    7.4276   19.5649 C   0  0  0  0  0  0  0  0  0  0  0  0
   10.0256    7.2907   20.8484 C   0  0  0  0  0  0  0  0  0  0  0  0
    9.3113    5.3049   14.4911 C   0  0  0  0  0  0  0  0  0  0  0  0
    9.4607    7.5646   16.0139 C   0  0  0  0  0  0  0  0  0  0  0  0
   10.4192    7.3157   15.0955 C   0  0  0  0  0  0  0  0  0  0  0  0
   10.2489    6.4227   23.0218 N   0  0  0  0  0  0  0  0  0  0  0  0
    7.2472    8.0746   23.5050 C   0  0  0  0  0  0  0  0  0  0  0  0
    9.2051    6.9101   23.4604 C   0  0  0  0  0  0  0  0  0  0  0  0
   11.9646    6.0299   21.4251 C   0  0  0  0  0  0  0  0  0  0  0  0
  1  5  1  0
  1 13  1  0
  2 20  2  0
  2 28  1  0
  2 29  1  0
  3 19  4  0
  3 25  4  0
  4 23  4  0
  4 27  1  0
  4 30  4  0
  5 17  1  0
  6  8  1  0
  6 29  1  0
  7 24  4  0
  7 26  4  0
  8 28  1  0
  9 13  2  0
 10 18  1  0
 10 21  4  0
 10 30  4  0
 11 17  2  0
 12 18  1  0
 13 15  1  0
 14 24  1  0
 15 25  1  0
 16 28  2  0
 17 20  1  0
 19 24  4  0
 20 23  1  0
 21 22  4  0
 22 23  4  0
 25 26  4  0
 27 29  2  0
M  END
$$$$

 Created by Python create_sdf_string function

 30 33  0  0  0  0  0  0  0  0999 V2000
    8.3036    9.8571   18.4133 C   0  0  0  0  0  0  0  0  0  0  0  0
    8.3694    7.6612   22.6703 C   0  0  0  0  0  0  0  0  0  0  0  0
    8.4143    6.6863   16.2273 C   0  0  0  0  0  0  0  0  0  0  0  0
   10.7581    6.5674   21.7636 C   0  0  0  0  0  0  0  0  0  0  0  0
    8.4452    8.7960   19.2958 O   0  0  0  0  0  0  0  0  0  0  0  0
    8.7122    6.7842   24.8569 C   0  0  0  0  0  0  0  0  0  0  0  0
   10.3400    6.1726   14.3081 C   0  0  0  0  0  0  0  0  0  0  0  0
    7.4297    7.5873   24.8962 C   0  0  0  0  0  0  0  0  0  0  0  0
    8.1566   10.0536   16.0516 O   0  0  0  0  0  0  0  0  0  0  0  0
   12.4989    6.2074   20.1776 C   0  0  0  0  0  0  0  0  0  0  0  0
    6.9192    9.1053   20.9073 O   0  0  0  0  0  0  0  0  0  0  0  0
   14.3979    6.0729   18.7784 C   0  0  0  0  0  0  0  0  0  0  0  0
    8.6811    9.5354   16.9998 C   0  0  0  0  0  0  0  0  0  0  0  0
    9.2512    4.2713   13.7653 O   0  0  0  0  0  0  0  0  0  0  0  0
    9.6495    8.6317   16.8332 N   0  0  0  0  0  0  0  0  0  0  0  0
    6.2934    8.6988   23.1988 O   0  0  0  0  0  0  0  0  0  0  0  0
    7.9806    8.6543   20.5437 C   0  0  0  0  0  0  0  0  0  0  0  0
   13.7270    5.7144   19.8610 O   0  0  0  0  0  0  0  0  0  0  0  0
    8.3351    5.5235   15.4478 C   0  0  0  0  0  0  0  0  0  0  0  0
    8.7700    7.8434   21.3915 C   0  0  0  0  0  0  0  0  0  0  0  0
   11.7856    6.8851   19.2401 C   0  0  0  0  0  0  0  0  0  0  0  0
   10.5281    7.4276   19.5649 C   0  0  0  0  0  0  0  0  0  0  0  0
   10.0256    7.2907   20.8484 C   0  0  0  0  0  0  0  0  0  0  0  0
    9.3113    5.3049   14.4911 C   0  0  0  0  0  0  0  0  0  0  0  0
    9.4607    7.5646   16.0139 C   0  0  0  0  0  0  0  0  0  0  0  0
   10.4192    7.3157   15.0955 C   0  0  0  0  0  0  0  0  0  0  0  0
   10.2489    6.4227   23.0218 N   0  0  0  0  0  0  0  0  0  0  0  0
    7.2472    8.0746   23.5050 C   0  0  0  0  0  0  0  0  0  0  0  0
    9.2051    6.9101   23.4604 C   0  0  0  0  0  0  0  0  0  0  0  0
   11.9646    6.0299   21.4251 C   0  0  0  0  0  0  0  0  0  0  0  0
  1  5  1  0
  1 13  1  0
  2 20  2  0
  2 28  1  0
  2 29  1  0
  3 19  4  0
  3 25  4  0
  4 23  4  0
  4 27  1  0
  4 30  4  0
  5 17  1  0
  6  8  1  0
  6 29  1  0
  7 24  4  0
  7 26  4  0
  8 28  1  0
  9 13  2  0
 10 18  1  0
 10 21  4  0
 10 30  4  0
 11 17  2  0
 12 18  1  0
 13 15  1  0
 14 24  1  0
 15 25  1  0
 16 28  2  0
 17 20  1  0
 19 24  4  0
 20 23  1  0
 21 22  4  0
 22 23  4  0
 25 26  4  0
 27 29  2  0
M  END
$$$$

 Created by Python create_sdf_string function

 30 33  0  0  0  0  0  0  0  0999 V2000
    8.3036    9.8571   18.4133 C   0  0  0  0  0  0  0  0  0  0  0  0
    8.3694    7.6612   22.6703 C   0  0  0  0  0  0  0  0  0  0  0  0
    8.4143    6.6863   16.2273 C   0  0  0  0  0  0  0  0  0  0  0  0
   10.7581    6.5674   21.7636 C   0  0  0  0  0  0  0  0  0  0  0  0
    8.4452    8.7960   19.2958 O   0  0  0  0  0  0  0  0  0  0  0  0
    8.7122    6.7842   24.8569 C   0  0  0  0  0  0  0  0  0  0  0  0
   10.3400    6.1726   14.3081 C   0  0  0  0  0  0  0  0  0  0  0  0
    7.4297    7.5873   24.8962 C   0  0  0  0  0  0  0  0  0  0  0  0
    8.1566   10.0536   16.0516 O   0  0  0  0  0  0  0  0  0  0  0  0
   12.4989    6.2074   20.1776 C   0  0  0  0  0  0  0  0  0  0  0  0
    6.9192    9.1053   20.9073 O   0  0  0  0  0  0  0  0  0  0  0  0
   14.3979    6.0729   18.7784 C   0  0  0  0  0  0  0  0  0  0  0  0
    8.6811    9.5354   16.9998 C   0  0  0  0  0  0  0  0  0  0  0  0
    9.2512    4.2713   13.7653 O   0  0  0  0  0  0  0  0  0  0  0  0
    9.6495    8.6317   16.8332 N   0  0  0  0  0  0  0  0  0  0  0  0
    6.2934    8.6988   23.1988 O   0  0  0  0  0  0  0  0  0  0  0  0
    7.9806    8.6543   20.5437 C   0  0  0  0  0  0  0  0  0  0  0  0
   13.7270    5.7144   19.8610 O   0  0  0  0  0  0  0  0  0  0  0  0
    8.3351    5.5235   15.4478 C   0  0  0  0  0  0  0  0  0  0  0  0
    8.7700    7.8434   21.3915 C   0  0  0  0  0  0  0  0  0  0  0  0
   11.7856    6.8851   19.2401 C   0  0  0  0  0  0  0  0  0  0  0  0
   10.5281    7.4276   19.5649 C   0  0  0  0  0  0  0  0  0  0  0  0
   10.0256    7.2907   20.8484 C   0  0  0  0  0  0  0  0  0  0  0  0
    9.3113    5.3049   14.4911 C   0  0  0  0  0  0  0  0  0  0  0  0
    9.4607    7.5646   16.0139 C   0  0  0  0  0  0  0  0  0  0  0  0
   10.4192    7.3157   15.0955 C   0  0  0  0  0  0  0  0  0  0  0  0
   10.2489    6.4227   23.0218 N   0  0  0  0  0  0  0  0  0  0  0  0
    7.2472    8.0746   23.5050 C   0  0  0  0  0  0  0  0  0  0  0  0
    9.2051    6.9101   23.4604 C   0  0  0  0  0  0  0  0  0  0  0  0
   11.9646    6.0299   21.4251 C   0  0  0  0  0  0  0  0  0  0  0  0
  1  5  1  0
  1 13  1  0
  2 20  2  0
  2 28  1  0
  2 29  1  0
  3 19  4  0
  3 25  4  0
  4 23  4  0
  4 27  1  0
  4 30  4  0
  5 17  1  0
  6  8  1  0
  6 29  1  0
  7 24  4  0
  7 26  4  0
  8 28  1  0
  9 13  2  0
 10 18  1  0
 10 21  4  0
 10 30  4  0
 11 17  2  0
 12 18  1  0
 13 15  1  0
 14 24  1  0
 15 25  1  0
 16 28  2  0
 17 20  1  0
 19 24  4  0
 20 23  1  0
 21 22  4  0
 22 23  4  0
 25 26  4  0
 27 29  2  0
M  END
$$$$

 Created by Python create_sdf_string function

 30 33  0  0  0  0  0  0  0  0999 V2000
    8.3036    9.8571   18.4133 C   0  0  0  0  0  0  0  0  0  0  0  0
    8.3694    7.6612   22.6703 C   0  0  0  0  0  0  0  0  0  0  0  0
    8.4143    6.6863   16.2273 C   0  0  0  0  0  0  0  0  0  0  0  0
   10.7581    6.5674   21.7636 C   0  0  0  0  0  0  0  0  0  0  0  0
    8.4452    8.7960   19.2958 O   0  0  0  0  0  0  0  0  0  0  0  0
    8.7122    6.7842   24.8569 C   0  0  0  0  0  0  0  0  0  0  0  0
   10.3400    6.1726   14.3081 C   0  0  0  0  0  0  0  0  0  0  0  0
    7.4297    7.5873   24.8962 C   0  0  0  0  0  0  0  0  0  0  0  0
    8.1566   10.0536   16.0516 O   0  0  0  0  0  0  0  0  0  0  0  0
   12.4989    6.2074   20.1776 C   0  0  0  0  0  0  0  0  0  0  0  0
    6.9192    9.1053   20.9073 O   0  0  0  0  0  0  0  0  0  0  0  0
   14.3979    6.0729   18.7784 C   0  0  0  0  0  0  0  0  0  0  0  0
    8.6811    9.5354   16.9998 C   0  0  0  0  0  0  0  0  0  0  0  0
    9.2512    4.2713   13.7653 O   0  0  0  0  0  0  0  0  0  0  0  0
    9.6495    8.6317   16.8332 N   0  0  0  0  0  0  0  0  0  0  0  0
    6.2934    8.6988   23.1988 O   0  0  0  0  0  0  0  0  0  0  0  0
    7.9806    8.6543   20.5437 C   0  0  0  0  0  0  0  0  0  0  0  0
   13.7270    5.7144   19.8610 O   0  0  0  0  0  0  0  0  0  0  0  0
    8.3351    5.5235   15.4478 C   0  0  0  0  0  0  0  0  0  0  0  0
    8.7700    7.8434   21.3915 C   0  0  0  0  0  0  0  0  0  0  0  0
   11.7856    6.8851   19.2401 C   0  0  0  0  0  0  0  0  0  0  0  0
   10.5281    7.4276   19.5649 C   0  0  0  0  0  0  0  0  0  0  0  0
   10.0256    7.2907   20.8484 C   0  0  0  0  0  0  0  0  0  0  0  0
    9.3113    5.3049   14.4911 C   0  0  0  0  0  0  0  0  0  0  0  0
    9.4607    7.5646   16.0139 C   0  0  0  0  0  0  0  0  0  0  0  0
   10.4192    7.3157   15.0955 C   0  0  0  0  0  0  0  0  0  0  0  0
   10.2489    6.4227   23.0218 N   0  0  0  0  0  0  0  0  0  0  0  0
    7.2472    8.0746   23.5050 C   0  0  0  0  0  0  0  0  0  0  0  0
    9.2051    6.9101   23.4604 C   0  0  0  0  0  0  0  0  0  0  0  0
   11.9646    6.0299   21.4251 C   0  0  0  0  0  0  0  0  0  0  0  0
  1  5  1  0
  1 13  1  0
  2 20  2  0
  2 28  1  0
  2 29  1  0
  3 19  4  0
  3 25  4  0
  4 23  4  0
  4 27  1  0
  4 30  4  0
  5 17  1  0
  6  8  1  0
  6 29  1  0
  7 24  4  0
  7 26  4  0
  8 28  1  0
  9 13  2  0
 10 18  1  0
 10 21  4  0
 10 30  4  0
 11 17  2  0
 12 18  1  0
 13 15  1  0
 14 24  1  0
 15 25  1  0
 16 28  2  0
 17 20  1  0
 19 24  4  0
 20 23  1  0
 21 22  4  0
 22 23  4  0
 25 26  4  0
 27 29  2  0
M  END
$$$$

 Created by Python create_sdf_string function

 30 33  0  0  0  0  0  0  0  0999 V2000
    8.3036    9.8571   18.4133 C   0  0  0  0  0  0  0  0  0  0  0  0
    8.3694    7.6612   22.6703 C   0  0  0  0  0  0  0  0  0  0  0  0
    8.4143    6.6863   16.2273 C   0  0  0  0  0  0  0  0  0  0  0  0
   10.7581    6.5674   21.7636 C   0  0  0  0  0  0  0  0  0  0  0  0
    8.4452    8.7960   19.2958 O   0  0  0  0  0  0  0  0  0  0  0  0
    8.7122    6.7842   24.8569 C   0  0  0  0  0  0  0  0  0  0  0  0
   10.3400    6.1726   14.3081 C   0  0  0  0  0  0  0  0  0  0  0  0
    7.4297    7.5873   24.8962 C   0  0  0  0  0  0  0  0  0  0  0  0
    8.1566   10.0536   16.0516 O   0  0  0  0  0  0  0  0  0  0  0  0
   12.4989    6.2074   20.1776 C   0  0  0  0  0  0  0  0  0  0  0  0
    6.9192    9.1053   20.9073 O   0  0  0  0  0  0  0  0  0  0  0  0
   14.3979    6.0729   18.7784 C   0  0  0  0  0  0  0  0  0  0  0  0
    8.6811    9.5354   16.9998 C   0  0  0  0  0  0  0  0  0  0  0  0
    9.2512    4.2713   13.7653 O   0  0  0  0  0  0  0  0  0  0  0  0
    9.6495    8.6317   16.8332 N   0  0  0  0  0  0  0  0  0  0  0  0
    6.2934    8.6988   23.1988 O   0  0  0  0  0  0  0  0  0  0  0  0
    7.9806    8.6543   20.5437 C   0  0  0  0  0  0  0  0  0  0  0  0
   13.7270    5.7144   19.8610 O   0  0  0  0  0  0  0  0  0  0  0  0
    8.3351    5.5235   15.4478 C   0  0  0  0  0  0  0  0  0  0  0  0
    8.7700    7.8434   21.3915 C   0  0  0  0  0  0  0  0  0  0  0  0
   11.7856    6.8851   19.2401 C   0  0  0  0  0  0  0  0  0  0  0  0
   10.5281    7.4276   19.5649 C   0  0  0  0  0  0  0  0  0  0  0  0
   10.0256    7.2907   20.8484 C   0  0  0  0  0  0  0  0  0  0  0  0
    9.3113    5.3049   14.4911 C   0  0  0  0  0  0  0  0  0  0  0  0
    9.4607    7.5646   16.0139 C   0  0  0  0  0  0  0  0  0  0  0  0
   10.4192    7.3157   15.0955 C   0  0  0  0  0  0  0  0  0  0  0  0
   10.2489    6.4227   23.0218 N   0  0  0  0  0  0  0  0  0  0  0  0
    7.2472    8.0746   23.5050 C   0  0  0  0  0  0  0  0  0  0  0  0
    9.2051    6.9101   23.4604 C   0  0  0  0  0  0  0  0  0  0  0  0
   11.9646    6.0299   21.4251 C   0  0  0  0  0  0  0  0  0  0  0  0
  1  5  1  0
  1 13  1  0
  2 20  2  0
  2 28  1  0
  2 29  1  0
  3 19  4  0
  3 25  4  0
  4 23  4  0
  4 27  1  0
  4 30  4  0
  5 17  1  0
  6  8  1  0
  6 29  1  0
  7 24  4  0
  7 26  4  0
  8 28  1  0
  9 13  2  0
 10 18  1  0
 10 21  4  0
 10 30  4  0
 11 17  2  0
 12 18  1  0
 13 15  1  0
 14 24  1  0
 15 25  1  0
 16 28  2  0
 17 20  1  0
 19 24  4  0
 20 23  1  0
 21 22  4  0
 22 23  4  0
 25 26  4  0
 27 29  2  0
M  END
$$$$

 Created by Python create_sdf_string function

 30 33  0  0  0  0  0  0  0  0999 V2000
    8.3036    9.8571   18.4133 C   0  0  0  0  0  0  0  0  0  0  0  0
    8.3694    7.6612   22.6703 C   0  0  0  0  0  0  0  0  0  0  0  0
    8.4143    6.6863   16.2273 C   0  0  0  0  0  0  0  0  0  0  0  0
   10.7581    6.5674   21.7636 C   0  0  0  0  0  0  0  0  0  0  0  0
    8.4452    8.7960   19.2958 O   0  0  0  0  0  0  0  0  0  0  0  0
    8.7122    6.7842   24.8569 C   0  0  0  0  0  0  0  0  0  0  0  0
   10.3400    6.1726   14.3081 C   0  0  0  0  0  0  0  0  0  0  0  0
    7.4297    7.5873   24.8962 C   0  0  0  0  0  0  0  0  0  0  0  0
    8.1566   10.0536   16.0516 O   0  0  0  0  0  0  0  0  0  0  0  0
   12.4989    6.2074   20.1776 C   0  0  0  0  0  0  0  0  0  0  0  0
    6.9192    9.1053   20.9073 O   0  0  0  0  0  0  0  0  0  0  0  0
   14.3979    6.0729   18.7784 C   0  0  0  0  0  0  0  0  0  0  0  0
    8.6811    9.5354   16.9998 C   0  0  0  0  0  0  0  0  0  0  0  0
    9.2512    4.2713   13.7653 O   0  0  0  0  0  0  0  0  0  0  0  0
    9.6495    8.6317   16.8332 N   0  0  0  0  0  0  0  0  0  0  0  0
    6.2934    8.6988   23.1988 O   0  0  0  0  0  0  0  0  0  0  0  0
    7.9806    8.6543   20.5437 C   0  0  0  0  0  0  0  0  0  0  0  0
   13.7270    5.7144   19.8610 O   0  0  0  0  0  0  0  0  0  0  0  0
    8.3351    5.5235   15.4478 C   0  0  0  0  0  0  0  0  0  0  0  0
    8.7700    7.8434   21.3915 C   0  0  0  0  0  0  0  0  0  0  0  0
   11.7856    6.8851   19.2401 C   0  0  0  0  0  0  0  0  0  0  0  0
   10.5281    7.4276   19.5649 C   0  0  0  0  0  0  0  0  0  0  0  0
   10.0256    7.2907   20.8484 C   0  0  0  0  0  0  0  0  0  0  0  0
    9.3113    5.3049   14.4911 C   0  0  0  0  0  0  0  0  0  0  0  0
    9.4607    7.5646   16.0139 C   0  0  0  0  0  0  0  0  0  0  0  0
   10.4192    7.3157   15.0955 C   0  0  0  0  0  0  0  0  0  0  0  0
   10.2489    6.4227   23.0218 N   0  0  0  0  0  0  0  0  0  0  0  0
    7.2472    8.0746   23.5050 C   0  0  0  0  0  0  0  0  0  0  0  0
    9.2051    6.9101   23.4604 C   0  0  0  0  0  0  0  0  0  0  0  0
   11.9646    6.0299   21.4251 C   0  0  0  0  0  0  0  0  0  0  0  0
  1  5  1  0
  1 13  1  0
  2 20  2  0
  2 28  1  0
  2 29  1  0
  3 19  4  0
  3 25  4  0
  4 23  4  0
  4 27  1  0
  4 30  4  0
  5 17  1  0
  6  8  1  0
  6 29  1  0
  7 24  4  0
  7 26  4  0
  8 28  1  0
  9 13  2  0
 10 18  1  0
 10 21  4  0
 10 30  4  0
 11 17  2  0
 12 18  1  0
 13 15  1  0
 14 24  1  0
 15 25  1  0
 16 28  2  0
 17 20  1  0
 19 24  4  0
 20 23  1  0
 21 22  4  0
 22 23  4  0
 25 26  4  0
 27 29  2  0
M  END
$$$$

 Created by Python create_sdf_string function

 30 33  0  0  0  0  0  0  0  0999 V2000
    8.3036    9.8571   18.4133 C   0  0  0  0  0  0  0  0  0  0  0  0
    8.3694    7.6612   22.6703 C   0  0  0  0  0  0  0  0  0  0  0  0
    8.4143    6.6863   16.2273 C   0  0  0  0  0  0  0  0  0  0  0  0
   10.7581    6.5674   21.7636 C   0  0  0  0  0  0  0  0  0  0  0  0
    8.4452    8.7960   19.2958 O   0  0  0  0  0  0  0  0  0  0  0  0
    8.7122    6.7842   24.8569 C   0  0  0  0  0  0  0  0  0  0  0  0
   10.3400    6.1726   14.3081 C   0  0  0  0  0  0  0  0  0  0  0  0
    7.4297    7.5873   24.8962 C   0  0  0  0  0  0  0  0  0  0  0  0
    8.1566   10.0536   16.0516 O   0  0  0  0  0  0  0  0  0  0  0  0
   12.4989    6.2074   20.1776 C   0  0  0  0  0  0  0  0  0  0  0  0
    6.9192    9.1053   20.9073 O   0  0  0  0  0  0  0  0  0  0  0  0
   14.3979    6.0729   18.7784 C   0  0  0  0  0  0  0  0  0  0  0  0
    8.6811    9.5354   16.9998 C   0  0  0  0  0  0  0  0  0  0  0  0
    9.2512    4.2713   13.7653 O   0  0  0  0  0  0  0  0  0  0  0  0
    9.6495    8.6317   16.8332 N   0  0  0  0  0  0  0  0  0  0  0  0
    6.2934    8.6988   23.1988 O   0  0  0  0  0  0  0  0  0  0  0  0
    7.9806    8.6543   20.5437 C   0  0  0  0  0  0  0  0  0  0  0  0
   13.7270    5.7144   19.8610 O   0  0  0  0  0  0  0  0  0  0  0  0
    8.3351    5.5235   15.4478 C   0  0  0  0  0  0  0  0  0  0  0  0
    8.7700    7.8434   21.3915 C   0  0  0  0  0  0  0  0  0  0  0  0
   11.7856    6.8851   19.2401 C   0  0  0  0  0  0  0  0  0  0  0  0
   10.5281    7.4276   19.5649 C   0  0  0  0  0  0  0  0  0  0  0  0
   10.0256    7.2907   20.8484 C   0  0  0  0  0  0  0  0  0  0  0  0
    9.3113    5.3049   14.4911 C   0  0  0  0  0  0  0  0  0  0  0  0
    9.4607    7.5646   16.0139 C   0  0  0  0  0  0  0  0  0  0  0  0
   10.4192    7.3157   15.0955 C   0  0  0  0  0  0  0  0  0  0  0  0
   10.2489    6.4227   23.0218 N   0  0  0  0  0  0  0  0  0  0  0  0
    7.2472    8.0746   23.5050 C   0  0  0  0  0  0  0  0  0  0  0  0
    9.2051    6.9101   23.4604 C   0  0  0  0  0  0  0  0  0  0  0  0
   11.9646    6.0299   21.4251 C   0  0  0  0  0  0  0  0  0  0  0  0
  1  5  1  0
  1 13  1  0
  2 20  2  0
  2 28  1  0
  2 29  1  0
  3 19  4  0
  3 25  4  0
  4 23  4  0
  4 27  1  0
  4 30  4  0
  5 17  1  0
  6  8  1  0
  6 29  1  0
  7 24  4  0
  7 26  4  0
  8 28  1  0
  9 13  2  0
 10 18  1  0
 10 21  4  0
 10 30  4  0
 11 17  2  0
 12 18  1  0
 13 15  1  0
 14 24  1  0
 15 25  1  0
 16 28  2  0
 17 20  1  0
 19 24  4  0
 20 23  1  0
 21 22  4  0
 22 23  4  0
 25 26  4  0
 27 29  2  0
M  END
$$$$

 Created by Python create_sdf_string function

 30 33  0  0  0  0  0  0  0  0999 V2000
    8.3036    9.8571   18.4133 C   0  0  0  0  0  0  0  0  0  0  0  0
    8.3694    7.6612   22.6703 C   0  0  0  0  0  0  0  0  0  0  0  0
    8.4143    6.6863   16.2273 C   0  0  0  0  0  0  0  0  0  0  0  0
   10.7581    6.5674   21.7636 C   0  0  0  0  0  0  0  0  0  0  0  0
    8.4452    8.7960   19.2958 O   0  0  0  0  0  0  0  0  0  0  0  0
    8.7122    6.7842   24.8569 C   0  0  0  0  0  0  0  0  0  0  0  0
   10.3400    6.1726   14.3081 C   0  0  0  0  0  0  0  0  0  0  0  0
    7.4297    7.5873   24.8962 C   0  0  0  0  0  0  0  0  0  0  0  0
    8.1566   10.0536   16.0516 O   0  0  0  0  0  0  0  0  0  0  0  0
   12.4989    6.2074   20.1776 C   0  0  0  0  0  0  0  0  0  0  0  0
    6.9192    9.1053   20.9073 O   0  0  0  0  0  0  0  0  0  0  0  0
   14.3979    6.0729   18.7784 C   0  0  0  0  0  0  0  0  0  0  0  0
    8.6811    9.5354   16.9998 C   0  0  0  0  0  0  0  0  0  0  0  0
    9.2512    4.2713   13.7653 O   0  0  0  0  0  0  0  0  0  0  0  0
    9.6495    8.6317   16.8332 N   0  0  0  0  0  0  0  0  0  0  0  0
    6.2934    8.6988   23.1988 O   0  0  0  0  0  0  0  0  0  0  0  0
    7.9806    8.6543   20.5437 C   0  0  0  0  0  0  0  0  0  0  0  0
   13.7270    5.7144   19.8610 O   0  0  0  0  0  0  0  0  0  0  0  0
    8.3351    5.5235   15.4478 C   0  0  0  0  0  0  0  0  0  0  0  0
    8.7700    7.8434   21.3915 C   0  0  0  0  0  0  0  0  0  0  0  0
   11.7856    6.8851   19.2401 C   0  0  0  0  0  0  0  0  0  0  0  0
   10.5281    7.4276   19.5649 C   0  0  0  0  0  0  0  0  0  0  0  0
   10.0256    7.2907   20.8484 C   0  0  0  0  0  0  0  0  0  0  0  0
    9.3113    5.3049   14.4911 C   0  0  0  0  0  0  0  0  0  0  0  0
    9.4607    7.5646   16.0139 C   0  0  0  0  0  0  0  0  0  0  0  0
   10.4192    7.3157   15.0955 C   0  0  0  0  0  0  0  0  0  0  0  0
   10.2489    6.4227   23.0218 N   0  0  0  0  0  0  0  0  0  0  0  0
    7.2472    8.0746   23.5050 C   0  0  0  0  0  0  0  0  0  0  0  0
    9.2051    6.9101   23.4604 C   0  0  0  0  0  0  0  0  0  0  0  0
   11.9646    6.0299   21.4251 C   0  0  0  0  0  0  0  0  0  0  0  0
  1  5  1  0
  1 13  1  0
  2 20  2  0
  2 28  1  0
  2 29  1  0
  3 19  4  0
  3 25  4  0
  4 23  4  0
  4 27  1  0
  4 30  4  0
  5 17  1  0
  6  8  1  0
  6 29  1  0
  7 24  4  0
  7 26  4  0
  8 28  1  0
  9 13  2  0
 10 18  1  0
 10 21  4  0
 10 30  4  0
 11 17  2  0
 12 18  1  0
 13 15  1  0
 14 24  1  0
 15 25  1  0
 16 28  2  0
 17 20  1  0
 19 24  4  0
 20 23  1  0
 21 22  4  0
 22 23  4  0
 25 26  4  0
 27 29  2  0
M  END
$$$$

 Created by Python create_sdf_string function

 30 33  0  0  0  0  0  0  0  0999 V2000
    8.3036    9.8571   18.4133 C   0  0  0  0  0  0  0  0  0  0  0  0
    8.3694    7.6612   22.6703 C   0  0  0  0  0  0  0  0  0  0  0  0
    8.4143    6.6863   16.2273 C   0  0  0  0  0  0  0  0  0  0  0  0
   10.7581    6.5674   21.7636 C   0  0  0  0  0  0  0  0  0  0  0  0
    8.4452    8.7960   19.2958 O   0  0  0  0  0  0  0  0  0  0  0  0
    8.7122    6.7842   24.8569 C   0  0  0  0  0  0  0  0  0  0  0  0
   10.3400    6.1726   14.3081 C   0  0  0  0  0  0  0  0  0  0  0  0
    7.4297    7.5873   24.8962 C   0  0  0  0  0  0  0  0  0  0  0  0
    8.1566   10.0536   16.0516 O   0  0  0  0  0  0  0  0  0  0  0  0
   12.4989    6.2074   20.1776 C   0  0  0  0  0  0  0  0  0  0  0  0
    6.9192    9.1053   20.9073 O   0  0  0  0  0  0  0  0  0  0  0  0
   14.3979    6.0729   18.7784 C   0  0  0  0  0  0  0  0  0  0  0  0
    8.6811    9.5354   16.9998 C   0  0  0  0  0  0  0  0  0  0  0  0
    9.2512    4.2713   13.7653 O   0  0  0  0  0  0  0  0  0  0  0  0
    9.6495    8.6317   16.8332 N   0  0  0  0  0  0  0  0  0  0  0  0
    6.2934    8.6988   23.1988 O   0  0  0  0  0  0  0  0  0  0  0  0
    7.9806    8.6543   20.5437 C   0  0  0  0  0  0  0  0  0  0  0  0
   13.7270    5.7144   19.8610 O   0  0  0  0  0  0  0  0  0  0  0  0
    8.3351    5.5235   15.4478 C   0  0  0  0  0  0  0  0  0  0  0  0
    8.7700    7.8434   21.3915 C   0  0  0  0  0  0  0  0  0  0  0  0
   11.7856    6.8851   19.2401 C   0  0  0  0  0  0  0  0  0  0  0  0
   10.5281    7.4276   19.5649 C   0  0  0  0  0  0  0  0  0  0  0  0
   10.0256    7.2907   20.8484 C   0  0  0  0  0  0  0  0  0  0  0  0
    9.3113    5.3049   14.4911 C   0  0  0  0  0  0  0  0  0  0  0  0
    9.4607    7.5646   16.0139 C   0  0  0  0  0  0  0  0  0  0  0  0
   10.4192    7.3157   15.0955 C   0  0  0  0  0  0  0  0  0  0  0  0
   10.2489    6.4227   23.0218 N   0  0  0  0  0  0  0  0  0  0  0  0
    7.2472    8.0746   23.5050 C   0  0  0  0  0  0  0  0  0  0  0  0
    9.2051    6.9101   23.4604 C   0  0  0  0  0  0  0  0  0  0  0  0
   11.9646    6.0299   21.4251 C   0  0  0  0  0  0  0  0  0  0  0  0
  1  5  1  0
  1 13  1  0
  2 20  2  0
  2 28  1  0
  2 29  1  0
  3 19  4  0
  3 25  4  0
  4 23  4  0
  4 27  1  0
  4 30  4  0
  5 17  1  0
  6  8  1  0
  6 29  1  0
  7 24  4  0
  7 26  4  0
  8 28  1  0
  9 13  2  0
 10 18  1  0
 10 21  4  0
 10 30  4  0
 11 17  2  0
 12 18  1  0
 13 15  1  0
 14 24  1  0
 15 25  1  0
 16 28  2  0
 17 20  1  0
 19 24  4  0
 20 23  1  0
 21 22  4  0
 22 23  4  0
 25 26  4  0
 27 29  2  0
M  END
$$$$

 Created by Python create_sdf_string function

 30 33  0  0  0  0  0  0  0  0999 V2000
    8.3036    9.8571   18.4133 C   0  0  0  0  0  0  0  0  0  0  0  0
    8.3694    7.6612   22.6703 C   0  0  0  0  0  0  0  0  0  0  0  0
    8.4143    6.6863   16.2273 C   0  0  0  0  0  0  0  0  0  0  0  0
   10.7581    6.5674   21.7636 C   0  0  0  0  0  0  0  0  0  0  0  0
    8.4452    8.7960   19.2958 O   0  0  0  0  0  0  0  0  0  0  0  0
    8.7122    6.7842   24.8569 C   0  0  0  0  0  0  0  0  0  0  0  0
   10.3400    6.1726   14.3081 C   0  0  0  0  0  0  0  0  0  0  0  0
    7.4297    7.5873   24.8962 C   0  0  0  0  0  0  0  0  0  0  0  0
    8.1566   10.0536   16.0516 O   0  0  0  0  0  0  0  0  0  0  0  0
   12.4989    6.2074   20.1776 C   0  0  0  0  0  0  0  0  0  0  0  0
    6.9192    9.1053   20.9073 O   0  0  0  0  0  0  0  0  0  0  0  0
   14.3979    6.0729   18.7784 C   0  0  0  0  0  0  0  0  0  0  0  0
    8.6811    9.5354   16.9998 C   0  0  0  0  0  0  0  0  0  0  0  0
    9.2512    4.2713   13.7653 O   0  0  0  0  0  0  0  0  0  0  0  0
    9.6495    8.6317   16.8332 N   0  0  0  0  0  0  0  0  0  0  0  0
    6.2934    8.6988   23.1988 O   0  0  0  0  0  0  0  0  0  0  0  0
    7.9806    8.6543   20.5437 C   0  0  0  0  0  0  0  0  0  0  0  0
   13.7270    5.7144   19.8610 O   0  0  0  0  0  0  0  0  0  0  0  0
    8.3351    5.5235   15.4478 C   0  0  0  0  0  0  0  0  0  0  0  0
    8.7700    7.8434   21.3915 C   0  0  0  0  0  0  0  0  0  0  0  0
   11.7856    6.8851   19.2401 C   0  0  0  0  0  0  0  0  0  0  0  0
   10.5281    7.4276   19.5649 C   0  0  0  0  0  0  0  0  0  0  0  0
   10.0256    7.2907   20.8484 C   0  0  0  0  0  0  0  0  0  0  0  0
    9.3113    5.3049   14.4911 C   0  0  0  0  0  0  0  0  0  0  0  0
    9.4607    7.5646   16.0139 C   0  0  0  0  0  0  0  0  0  0  0  0
   10.4192    7.3157   15.0955 C   0  0  0  0  0  0  0  0  0  0  0  0
   10.2489    6.4227   23.0218 N   0  0  0  0  0  0  0  0  0  0  0  0
    7.2472    8.0746   23.5050 C   0  0  0  0  0  0  0  0  0  0  0  0
    9.2051    6.9101   23.4604 C   0  0  0  0  0  0  0  0  0  0  0  0
   11.9646    6.0299   21.4251 C   0  0  0  0  0  0  0  0  0  0  0  0
  1  5  1  0
  1 13  1  0
  2 20  2  0
  2 28  1  0
  2 29  1  0
  3 19  4  0
  3 25  4  0
  4 23  4  0
  4 27  1  0
  4 30  4  0
  5 17  1  0
  6  8  1  0
  6 29  1  0
  7 24  4  0
  7 26  4  0
  8 28  1  0
  9 13  2  0
 10 18  1  0
 10 21  4  0
 10 30  4  0
 11 17  2  0
 12 18  1  0
 13 15  1  0
 14 24  1  0
 15 25  1  0
 16 28  2  0
 17 20  1  0
 19 24  4  0
 20 23  1  0
 21 22  4  0
 22 23  4  0
 25 26  4  0
 27 29  2  0
M  END
$$$$

 Created by Python create_sdf_string function

 30 33  0  0  0  0  0  0  0  0999 V2000
    8.3036    9.8571   18.4133 C   0  0  0  0  0  0  0  0  0  0  0  0
    8.3694    7.6612   22.6703 C   0  0  0  0  0  0  0  0  0  0  0  0
    8.4143    6.6863   16.2273 C   0  0  0  0  0  0  0  0  0  0  0  0
   10.7581    6.5674   21.7636 C   0  0  0  0  0  0  0  0  0  0  0  0
    8.4452    8.7960   19.2958 O   0  0  0  0  0  0  0  0  0  0  0  0
    8.7122    6.7842   24.8569 C   0  0  0  0  0  0  0  0  0  0  0  0
   10.3400    6.1726   14.3081 C   0  0  0  0  0  0  0  0  0  0  0  0
    7.4297    7.5873   24.8962 C   0  0  0  0  0  0  0  0  0  0  0  0
    8.1566   10.0536   16.0516 O   0  0  0  0  0  0  0  0  0  0  0  0
   12.4989    6.2074   20.1776 C   0  0  0  0  0  0  0  0  0  0  0  0
    6.9192    9.1053   20.9073 O   0  0  0  0  0  0  0  0  0  0  0  0
   14.3979    6.0729   18.7784 C   0  0  0  0  0  0  0  0  0  0  0  0
    8.6811    9.5354   16.9998 C   0  0  0  0  0  0  0  0  0  0  0  0
    9.2512    4.2713   13.7653 O   0  0  0  0  0  0  0  0  0  0  0  0
    9.6495    8.6317   16.8332 N   0  0  0  0  0  0  0  0  0  0  0  0
    6.2934    8.6988   23.1988 O   0  0  0  0  0  0  0  0  0  0  0  0
    7.9806    8.6543   20.5437 C   0  0  0  0  0  0  0  0  0  0  0  0
   13.7270    5.7144   19.8610 O   0  0  0  0  0  0  0  0  0  0  0  0
    8.3351    5.5235   15.4478 C   0  0  0  0  0  0  0  0  0  0  0  0
    8.7700    7.8434   21.3915 C   0  0  0  0  0  0  0  0  0  0  0  0
   11.7856    6.8851   19.2401 C   0  0  0  0  0  0  0  0  0  0  0  0
   10.5281    7.4276   19.5649 C   0  0  0  0  0  0  0  0  0  0  0  0
   10.0256    7.2907   20.8484 C   0  0  0  0  0  0  0  0  0  0  0  0
    9.3113    5.3049   14.4911 C   0  0  0  0  0  0  0  0  0  0  0  0
    9.4607    7.5646   16.0139 C   0  0  0  0  0  0  0  0  0  0  0  0
   10.4192    7.3157   15.0955 C   0  0  0  0  0  0  0  0  0  0  0  0
   10.2489    6.4227   23.0218 N   0  0  0  0  0  0  0  0  0  0  0  0
    7.2472    8.0746   23.5050 C   0  0  0  0  0  0  0  0  0  0  0  0
    9.2051    6.9101   23.4604 C   0  0  0  0  0  0  0  0  0  0  0  0
   11.9646    6.0299   21.4251 C   0  0  0  0  0  0  0  0  0  0  0  0
  1  5  1  0
  1 13  1  0
  2 20  2  0
  2 28  1  0
  2 29  1  0
  3 19  4  0
  3 25  4  0
  4 23  4  0
  4 27  1  0
  4 30  4  0
  5 17  1  0
  6  8  1  0
  6 29  1  0
  7 24  4  0
  7 26  4  0
  8 28  1  0
  9 13  2  0
 10 18  1  0
 10 21  4  0
 10 30  4  0
 11 17  2  0
 12 18  1  0
 13 15  1  0
 14 24  1  0
 15 25  1  0
 16 28  2  0
 17 20  1  0
 19 24  4  0
 20 23  1  0
 21 22  4  0
 22 23  4  0
 25 26  4  0
 27 29  2  0
M  END
$$$$

 Created by Python create_sdf_string function

 30 33  0  0  0  0  0  0  0  0999 V2000
    8.3036    9.8571   18.4133 C   0  0  0  0  0  0  0  0  0  0  0  0
    8.3694    7.6612   22.6703 C   0  0  0  0  0  0  0  0  0  0  0  0
    8.4143    6.6863   16.2273 C   0  0  0  0  0  0  0  0  0  0  0  0
   10.7581    6.5674   21.7636 C   0  0  0  0  0  0  0  0  0  0  0  0
    8.4452    8.7960   19.2958 O   0  0  0  0  0  0  0  0  0  0  0  0
    8.7122    6.7842   24.8569 C   0  0  0  0  0  0  0  0  0  0  0  0
   10.3400    6.1726   14.3081 C   0  0  0  0  0  0  0  0  0  0  0  0
    7.4297    7.5873   24.8962 C   0  0  0  0  0  0  0  0  0  0  0  0
    8.1566   10.0536   16.0516 O   0  0  0  0  0  0  0  0  0  0  0  0
   12.4989    6.2074   20.1776 C   0  0  0  0  0  0  0  0  0  0  0  0
    6.9192    9.1053   20.9073 O   0  0  0  0  0  0  0  0  0  0  0  0
   14.3979    6.0729   18.7784 C   0  0  0  0  0  0  0  0  0  0  0  0
    8.6811    9.5354   16.9998 C   0  0  0  0  0  0  0  0  0  0  0  0
    9.2512    4.2713   13.7653 O   0  0  0  0  0  0  0  0  0  0  0  0
    9.6495    8.6317   16.8332 N   0  0  0  0  0  0  0  0  0  0  0  0
    6.2934    8.6988   23.1988 O   0  0  0  0  0  0  0  0  0  0  0  0
    7.9806    8.6543   20.5437 C   0  0  0  0  0  0  0  0  0  0  0  0
   13.7270    5.7144   19.8610 O   0  0  0  0  0  0  0  0  0  0  0  0
    8.3351    5.5235   15.4478 C   0  0  0  0  0  0  0  0  0  0  0  0
    8.7700    7.8434   21.3915 C   0  0  0  0  0  0  0  0  0  0  0  0
   11.7856    6.8851   19.2401 C   0  0  0  0  0  0  0  0  0  0  0  0
   10.5281    7.4276   19.5649 C   0  0  0  0  0  0  0  0  0  0  0  0
   10.0256    7.2907   20.8484 C   0  0  0  0  0  0  0  0  0  0  0  0
    9.3113    5.3049   14.4911 C   0  0  0  0  0  0  0  0  0  0  0  0
    9.4607    7.5646   16.0139 C   0  0  0  0  0  0  0  0  0  0  0  0
   10.4192    7.3157   15.0955 C   0  0  0  0  0  0  0  0  0  0  0  0
   10.2489    6.4227   23.0218 N   0  0  0  0  0  0  0  0  0  0  0  0
    7.2472    8.0746   23.5050 C   0  0  0  0  0  0  0  0  0  0  0  0
    9.2051    6.9101   23.4604 C   0  0  0  0  0  0  0  0  0  0  0  0
   11.9646    6.0299   21.4251 C   0  0  0  0  0  0  0  0  0  0  0  0
  1  5  1  0
  1 13  1  0
  2 20  2  0
  2 28  1  0
  2 29  1  0
  3 19  4  0
  3 25  4  0
  4 23  4  0
  4 27  1  0
  4 30  4  0
  5 17  1  0
  6  8  1  0
  6 29  1  0
  7 24  4  0
  7 26  4  0
  8 28  1  0
  9 13  2  0
 10 18  1  0
 10 21  4  0
 10 30  4  0
 11 17  2  0
 12 18  1  0
 13 15  1  0
 14 24  1  0
 15 25  1  0
 16 28  2  0
 17 20  1  0
 19 24  4  0
 20 23  1  0
 21 22  4  0
 22 23  4  0
 25 26  4  0
 27 29  2  0
M  END
$$$$

 Created by Python create_sdf_string function

 30 33  0  0  0  0  0  0  0  0999 V2000
    8.3036    9.8571   18.4133 C   0  0  0  0  0  0  0  0  0  0  0  0
    8.3694    7.6612   22.6703 C   0  0  0  0  0  0  0  0  0  0  0  0
    8.4143    6.6863   16.2273 C   0  0  0  0  0  0  0  0  0  0  0  0
   10.7581    6.5674   21.7636 C   0  0  0  0  0  0  0  0  0  0  0  0
    8.4452    8.7960   19.2958 O   0  0  0  0  0  0  0  0  0  0  0  0
    8.7122    6.7842   24.8569 C   0  0  0  0  0  0  0  0  0  0  0  0
   10.3400    6.1726   14.3081 C   0  0  0  0  0  0  0  0  0  0  0  0
    7.4297    7.5873   24.8962 C   0  0  0  0  0  0  0  0  0  0  0  0
    8.1566   10.0536   16.0516 O   0  0  0  0  0  0  0  0  0  0  0  0
   12.4989    6.2074   20.1776 C   0  0  0  0  0  0  0  0  0  0  0  0
    6.9192    9.1053   20.9073 O   0  0  0  0  0  0  0  0  0  0  0  0
   14.3979    6.0729   18.7784 C   0  0  0  0  0  0  0  0  0  0  0  0
    8.6811    9.5354   16.9998 C   0  0  0  0  0  0  0  0  0  0  0  0
    9.2512    4.2713   13.7653 O   0  0  0  0  0  0  0  0  0  0  0  0
    9.6495    8.6317   16.8332 N   0  0  0  0  0  0  0  0  0  0  0  0
    6.2934    8.6988   23.1988 O   0  0  0  0  0  0  0  0  0  0  0  0
    7.9806    8.6543   20.5437 C   0  0  0  0  0  0  0  0  0  0  0  0
   13.7270    5.7144   19.8610 O   0  0  0  0  0  0  0  0  0  0  0  0
    8.3351    5.5235   15.4478 C   0  0  0  0  0  0  0  0  0  0  0  0
    8.7700    7.8434   21.3915 C   0  0  0  0  0  0  0  0  0  0  0  0
   11.7856    6.8851   19.2401 C   0  0  0  0  0  0  0  0  0  0  0  0
   10.5281    7.4276   19.5649 C   0  0  0  0  0  0  0  0  0  0  0  0
   10.0256    7.2907   20.8484 C   0  0  0  0  0  0  0  0  0  0  0  0
    9.3113    5.3049   14.4911 C   0  0  0  0  0  0  0  0  0  0  0  0
    9.4607    7.5646   16.0139 C   0  0  0  0  0  0  0  0  0  0  0  0
   10.4192    7.3157   15.0955 C   0  0  0  0  0  0  0  0  0  0  0  0
   10.2489    6.4227   23.0218 N   0  0  0  0  0  0  0  0  0  0  0  0
    7.2472    8.0746   23.5050 C   0  0  0  0  0  0  0  0  0  0  0  0
    9.2051    6.9101   23.4604 C   0  0  0  0  0  0  0  0  0  0  0  0
   11.9646    6.0299   21.4251 C   0  0  0  0  0  0  0  0  0  0  0  0
  1  5  1  0
  1 13  1  0
  2 20  2  0
  2 28  1  0
  2 29  1  0
  3 19  4  0
  3 25  4  0
  4 23  4  0
  4 27  1  0
  4 30  4  0
  5 17  1  0
  6  8  1  0
  6 29  1  0
  7 24  4  0
  7 26  4  0
  8 28  1  0
  9 13  2  0
 10 18  1  0
 10 21  4  0
 10 30  4  0
 11 17  2  0
 12 18  1  0
 13 15  1  0
 14 24  1  0
 15 25  1  0
 16 28  2  0
 17 20  1  0
 19 24  4  0
 20 23  1  0
 21 22  4  0
 22 23  4  0
 25 26  4  0
 27 29  2  0
M  END
$$$$

 Created by Python create_sdf_string function

 30 33  0  0  0  0  0  0  0  0999 V2000
    8.3036    9.8571   18.4133 C   0  0  0  0  0  0  0  0  0  0  0  0
    8.3694    7.6612   22.6703 C   0  0  0  0  0  0  0  0  0  0  0  0
    8.4143    6.6863   16.2273 C   0  0  0  0  0  0  0  0  0  0  0  0
   10.7581    6.5674   21.7636 C   0  0  0  0  0  0  0  0  0  0  0  0
    8.4452    8.7960   19.2958 O   0  0  0  0  0  0  0  0  0  0  0  0
    8.7122    6.7842   24.8569 C   0  0  0  0  0  0  0  0  0  0  0  0
   10.3400    6.1726   14.3081 C   0  0  0  0  0  0  0  0  0  0  0  0
    7.4297    7.5873   24.8962 C   0  0  0  0  0  0  0  0  0  0  0  0
    8.1566   10.0536   16.0516 O   0  0  0  0  0  0  0  0  0  0  0  0
   12.4989    6.2074   20.1776 C   0  0  0  0  0  0  0  0  0  0  0  0
    6.9192    9.1053   20.9073 O   0  0  0  0  0  0  0  0  0  0  0  0
   14.3979    6.0729   18.7784 C   0  0  0  0  0  0  0  0  0  0  0  0
    8.6811    9.5354   16.9998 C   0  0  0  0  0  0  0  0  0  0  0  0
    9.2512    4.2713   13.7653 O   0  0  0  0  0  0  0  0  0  0  0  0
    9.6495    8.6317   16.8332 N   0  0  0  0  0  0  0  0  0  0  0  0
    6.2934    8.6988   23.1988 O   0  0  0  0  0  0  0  0  0  0  0  0
    7.9806    8.6543   20.5437 C   0  0  0  0  0  0  0  0  0  0  0  0
   13.7270    5.7144   19.8610 O   0  0  0  0  0  0  0  0  0  0  0  0
    8.3351    5.5235   15.4478 C   0  0  0  0  0  0  0  0  0  0  0  0
    8.7700    7.8434   21.3915 C   0  0  0  0  0  0  0  0  0  0  0  0
   11.7856    6.8851   19.2401 C   0  0  0  0  0  0  0  0  0  0  0  0
   10.5281    7.4276   19.5649 C   0  0  0  0  0  0  0  0  0  0  0  0
   10.0256    7.2907   20.8484 C   0  0  0  0  0  0  0  0  0  0  0  0
    9.3113    5.3049   14.4911 C   0  0  0  0  0  0  0  0  0  0  0  0
    9.4607    7.5646   16.0139 C   0  0  0  0  0  0  0  0  0  0  0  0
   10.4192    7.3157   15.0955 C   0  0  0  0  0  0  0  0  0  0  0  0
   10.2489    6.4227   23.0218 N   0  0  0  0  0  0  0  0  0  0  0  0
    7.2472    8.0746   23.5050 C   0  0  0  0  0  0  0  0  0  0  0  0
    9.2051    6.9101   23.4604 C   0  0  0  0  0  0  0  0  0  0  0  0
   11.9646    6.0299   21.4251 C   0  0  0  0  0  0  0  0  0  0  0  0
  1  5  1  0
  1 13  1  0
  2 20  2  0
  2 28  1  0
  2 29  1  0
  3 19  4  0
  3 25  4  0
  4 23  4  0
  4 27  1  0
  4 30  4  0
  5 17  1  0
  6  8  1  0
  6 29  1  0
  7 24  4  0
  7 26  4  0
  8 28  1  0
  9 13  2  0
 10 18  1  0
 10 21  4  0
 10 30  4  0
 11 17  2  0
 12 18  1  0
 13 15  1  0
 14 24  1  0
 15 25  1  0
 16 28  2  0
 17 20  1  0
 19 24  4  0
 20 23  1  0
 21 22  4  0
 22 23  4  0
 25 26  4  0
 27 29  2  0
M  END
$$$$

 Created by Python create_sdf_string function

 30 33  0  0  0  0  0  0  0  0999 V2000
    8.3036    9.8571   18.4133 C   0  0  0  0  0  0  0  0  0  0  0  0
    8.3694    7.6612   22.6703 C   0  0  0  0  0  0  0  0  0  0  0  0
    8.4143    6.6863   16.2273 C   0  0  0  0  0  0  0  0  0  0  0  0
   10.7581    6.5674   21.7636 C   0  0  0  0  0  0  0  0  0  0  0  0
    8.4452    8.7960   19.2958 O   0  0  0  0  0  0  0  0  0  0  0  0
    8.7122    6.7842   24.8569 C   0  0  0  0  0  0  0  0  0  0  0  0
   10.3400    6.1726   14.3081 C   0  0  0  0  0  0  0  0  0  0  0  0
    7.4297    7.5873   24.8962 C   0  0  0  0  0  0  0  0  0  0  0  0
    8.1566   10.0536   16.0516 O   0  0  0  0  0  0  0  0  0  0  0  0
   12.4989    6.2074   20.1776 C   0  0  0  0  0  0  0  0  0  0  0  0
    6.9192    9.1053   20.9073 O   0  0  0  0  0  0  0  0  0  0  0  0
   14.3979    6.0729   18.7784 C   0  0  0  0  0  0  0  0  0  0  0  0
    8.6811    9.5354   16.9998 C   0  0  0  0  0  0  0  0  0  0  0  0
    9.2512    4.2713   13.7653 O   0  0  0  0  0  0  0  0  0  0  0  0
    9.6495    8.6317   16.8332 N   0  0  0  0  0  0  0  0  0  0  0  0
    6.2934    8.6988   23.1988 O   0  0  0  0  0  0  0  0  0  0  0  0
    7.9806    8.6543   20.5437 C   0  0  0  0  0  0  0  0  0  0  0  0
   13.7270    5.7144   19.8610 O   0  0  0  0  0  0  0  0  0  0  0  0
    8.3351    5.5235   15.4478 C   0  0  0  0  0  0  0  0  0  0  0  0
    8.7700    7.8434   21.3915 C   0  0  0  0  0  0  0  0  0  0  0  0
   11.7856    6.8851   19.2401 C   0  0  0  0  0  0  0  0  0  0  0  0
   10.5281    7.4276   19.5649 C   0  0  0  0  0  0  0  0  0  0  0  0
   10.0256    7.2907   20.8484 C   0  0  0  0  0  0  0  0  0  0  0  0
    9.3113    5.3049   14.4911 C   0  0  0  0  0  0  0  0  0  0  0  0
    9.4607    7.5646   16.0139 C   0  0  0  0  0  0  0  0  0  0  0  0
   10.4192    7.3157   15.0955 C   0  0  0  0  0  0  0  0  0  0  0  0
   10.2489    6.4227   23.0218 N   0  0  0  0  0  0  0  0  0  0  0  0
    7.2472    8.0746   23.5050 C   0  0  0  0  0  0  0  0  0  0  0  0
    9.2051    6.9101   23.4604 C   0  0  0  0  0  0  0  0  0  0  0  0
   11.9646    6.0299   21.4251 C   0  0  0  0  0  0  0  0  0  0  0  0
  1  5  1  0
  1 13  1  0
  2 20  2  0
  2 28  1  0
  2 29  1  0
  3 19  4  0
  3 25  4  0
  4 23  4  0
  4 27  1  0
  4 30  4  0
  5 17  1  0
  6  8  1  0
  6 29  1  0
  7 24  4  0
  7 26  4  0
  8 28  1  0
  9 13  2  0
 10 18  1  0
 10 21  4  0
 10 30  4  0
 11 17  2  0
 12 18  1  0
 13 15  1  0
 14 24  1  0
 15 25  1  0
 16 28  2  0
 17 20  1  0
 19 24  4  0
 20 23  1  0
 21 22  4  0
 22 23  4  0
 25 26  4  0
 27 29  2  0
M  END
$$$$

 Created by Python create_sdf_string function

 30 33  0  0  0  0  0  0  0  0999 V2000
    8.3036    9.8571   18.4133 C   0  0  0  0  0  0  0  0  0  0  0  0
    8.3694    7.6612   22.6703 C   0  0  0  0  0  0  0  0  0  0  0  0
    8.4143    6.6863   16.2273 C   0  0  0  0  0  0  0  0  0  0  0  0
   10.7581    6.5674   21.7636 C   0  0  0  0  0  0  0  0  0  0  0  0
    8.4452    8.7960   19.2958 O   0  0  0  0  0  0  0  0  0  0  0  0
    8.7122    6.7842   24.8569 C   0  0  0  0  0  0  0  0  0  0  0  0
   10.3400    6.1726   14.3081 C   0  0  0  0  0  0  0  0  0  0  0  0
    7.4297    7.5873   24.8962 C   0  0  0  0  0  0  0  0  0  0  0  0
    8.1566   10.0536   16.0516 O   0  0  0  0  0  0  0  0  0  0  0  0
   12.4989    6.2074   20.1776 C   0  0  0  0  0  0  0  0  0  0  0  0
    6.9192    9.1053   20.9073 O   0  0  0  0  0  0  0  0  0  0  0  0
   14.3979    6.0729   18.7784 C   0  0  0  0  0  0  0  0  0  0  0  0
    8.6811    9.5354   16.9998 C   0  0  0  0  0  0  0  0  0  0  0  0
    9.2512    4.2713   13.7653 O   0  0  0  0  0  0  0  0  0  0  0  0
    9.6495    8.6317   16.8332 N   0  0  0  0  0  0  0  0  0  0  0  0
    6.2934    8.6988   23.1988 O   0  0  0  0  0  0  0  0  0  0  0  0
    7.9806    8.6543   20.5437 C   0  0  0  0  0  0  0  0  0  0  0  0
   13.7270    5.7144   19.8610 O   0  0  0  0  0  0  0  0  0  0  0  0
    8.3351    5.5235   15.4478 C   0  0  0  0  0  0  0  0  0  0  0  0
    8.7700    7.8434   21.3915 C   0  0  0  0  0  0  0  0  0  0  0  0
   11.7856    6.8851   19.2401 C   0  0  0  0  0  0  0  0  0  0  0  0
   10.5281    7.4276   19.5649 C   0  0  0  0  0  0  0  0  0  0  0  0
   10.0256    7.2907   20.8484 C   0  0  0  0  0  0  0  0  0  0  0  0
    9.3113    5.3049   14.4911 C   0  0  0  0  0  0  0  0  0  0  0  0
    9.4607    7.5646   16.0139 C   0  0  0  0  0  0  0  0  0  0  0  0
   10.4192    7.3157   15.0955 C   0  0  0  0  0  0  0  0  0  0  0  0
   10.2489    6.4227   23.0218 N   0  0  0  0  0  0  0  0  0  0  0  0
    7.2472    8.0746   23.5050 C   0  0  0  0  0  0  0  0  0  0  0  0
    9.2051    6.9101   23.4604 C   0  0  0  0  0  0  0  0  0  0  0  0
   11.9646    6.0299   21.4251 C   0  0  0  0  0  0  0  0  0  0  0  0
  1  5  1  0
  1 13  1  0
  2 20  2  0
  2 28  1  0
  2 29  1  0
  3 19  4  0
  3 25  4  0
  4 23  4  0
  4 27  1  0
  4 30  4  0
  5 17  1  0
  6  8  1  0
  6 29  1  0
  7 24  4  0
  7 26  4  0
  8 28  1  0
  9 13  2  0
 10 18  1  0
 10 21  4  0
 10 30  4  0
 11 17  2  0
 12 18  1  0
 13 15  1  0
 14 24  1  0
 15 25  1  0
 16 28  2  0
 17 20  1  0
 19 24  4  0
 20 23  1  0
 21 22  4  0
 22 23  4  0
 25 26  4  0
 27 29  2  0
M  END
$$$$

 Created by Python create_sdf_string function

 30 33  0  0  0  0  0  0  0  0999 V2000
    8.3036    9.8571   18.4133 C   0  0  0  0  0  0  0  0  0  0  0  0
    8.3694    7.6612   22.6703 C   0  0  0  0  0  0  0  0  0  0  0  0
    8.4143    6.6863   16.2273 C   0  0  0  0  0  0  0  0  0  0  0  0
   10.7581    6.5674   21.7636 C   0  0  0  0  0  0  0  0  0  0  0  0
    8.4452    8.7960   19.2958 O   0  0  0  0  0  0  0  0  0  0  0  0
    8.7122    6.7842   24.8569 C   0  0  0  0  0  0  0  0  0  0  0  0
   10.3400    6.1726   14.3081 C   0  0  0  0  0  0  0  0  0  0  0  0
    7.4297    7.5873   24.8962 C   0  0  0  0  0  0  0  0  0  0  0  0
    8.1566   10.0536   16.0516 O   0  0  0  0  0  0  0  0  0  0  0  0
   12.4989    6.2074   20.1776 C   0  0  0  0  0  0  0  0  0  0  0  0
    6.9192    9.1053   20.9073 O   0  0  0  0  0  0  0  0  0  0  0  0
   14.3979    6.0729   18.7784 C   0  0  0  0  0  0  0  0  0  0  0  0
    8.6811    9.5354   16.9998 C   0  0  0  0  0  0  0  0  0  0  0  0
    9.2512    4.2713   13.7653 O   0  0  0  0  0  0  0  0  0  0  0  0
    9.6495    8.6317   16.8332 N   0  0  0  0  0  0  0  0  0  0  0  0
    6.2934    8.6988   23.1988 O   0  0  0  0  0  0  0  0  0  0  0  0
    7.9806    8.6543   20.5437 C   0  0  0  0  0  0  0  0  0  0  0  0
   13.7270    5.7144   19.8610 O   0  0  0  0  0  0  0  0  0  0  0  0
    8.3351    5.5235   15.4478 C   0  0  0  0  0  0  0  0  0  0  0  0
    8.7700    7.8434   21.3915 C   0  0  0  0  0  0  0  0  0  0  0  0
   11.7856    6.8851   19.2401 C   0  0  0  0  0  0  0  0  0  0  0  0
   10.5281    7.4276   19.5649 C   0  0  0  0  0  0  0  0  0  0  0  0
   10.0256    7.2907   20.8484 C   0  0  0  0  0  0  0  0  0  0  0  0
    9.3113    5.3049   14.4911 C   0  0  0  0  0  0  0  0  0  0  0  0
    9.4607    7.5646   16.0139 C   0  0  0  0  0  0  0  0  0  0  0  0
   10.4192    7.3157   15.0955 C   0  0  0  0  0  0  0  0  0  0  0  0
   10.2489    6.4227   23.0218 N   0  0  0  0  0  0  0  0  0  0  0  0
    7.2472    8.0746   23.5050 C   0  0  0  0  0  0  0  0  0  0  0  0
    9.2051    6.9101   23.4604 C   0  0  0  0  0  0  0  0  0  0  0  0
   11.9646    6.0299   21.4251 C   0  0  0  0  0  0  0  0  0  0  0  0
  1  5  1  0
  1 13  1  0
  2 20  2  0
  2 28  1  0
  2 29  1  0
  3 19  4  0
  3 25  4  0
  4 23  4  0
  4 27  1  0
  4 30  4  0
  5 17  1  0
  6  8  1  0
  6 29  1  0
  7 24  4  0
  7 26  4  0
  8 28  1  0
  9 13  2  0
 10 18  1  0
 10 21  4  0
 10 30  4  0
 11 17  2  0
 12 18  1  0
 13 15  1  0
 14 24  1  0
 15 25  1  0
 16 28  2  0
 17 20  1  0
 19 24  4  0
 20 23  1  0
 21 22  4  0
 22 23  4  0
 25 26  4  0
 27 29  2  0
M  END
$$$$

 Created by Python create_sdf_string function

 30 33  0  0  0  0  0  0  0  0999 V2000
    8.3036    9.8571   18.4133 C   0  0  0  0  0  0  0  0  0  0  0  0
    8.3694    7.6612   22.6703 C   0  0  0  0  0  0  0  0  0  0  0  0
    8.4143    6.6863   16.2273 C   0  0  0  0  0  0  0  0  0  0  0  0
   10.7581    6.5674   21.7636 C   0  0  0  0  0  0  0  0  0  0  0  0
    8.4452    8.7960   19.2958 O   0  0  0  0  0  0  0  0  0  0  0  0
    8.7122    6.7842   24.8569 C   0  0  0  0  0  0  0  0  0  0  0  0
   10.3400    6.1726   14.3081 C   0  0  0  0  0  0  0  0  0  0  0  0
    7.4297    7.5873   24.8962 C   0  0  0  0  0  0  0  0  0  0  0  0
    8.1566   10.0536   16.0516 O   0  0  0  0  0  0  0  0  0  0  0  0
   12.4989    6.2074   20.1776 C   0  0  0  0  0  0  0  0  0  0  0  0
    6.9192    9.1053   20.9073 O   0  0  0  0  0  0  0  0  0  0  0  0
   14.3979    6.0729   18.7784 C   0  0  0  0  0  0  0  0  0  0  0  0
    8.6811    9.5354   16.9998 C   0  0  0  0  0  0  0  0  0  0  0  0
    9.2512    4.2713   13.7653 O   0  0  0  0  0  0  0  0  0  0  0  0
    9.6495    8.6317   16.8332 N   0  0  0  0  0  0  0  0  0  0  0  0
    6.2934    8.6988   23.1988 O   0  0  0  0  0  0  0  0  0  0  0  0
    7.9806    8.6543   20.5437 C   0  0  0  0  0  0  0  0  0  0  0  0
   13.7270    5.7144   19.8610 O   0  0  0  0  0  0  0  0  0  0  0  0
    8.3351    5.5235   15.4478 C   0  0  0  0  0  0  0  0  0  0  0  0
    8.7700    7.8434   21.3915 C   0  0  0  0  0  0  0  0  0  0  0  0
   11.7856    6.8851   19.2401 C   0  0  0  0  0  0  0  0  0  0  0  0
   10.5281    7.4276   19.5649 C   0  0  0  0  0  0  0  0  0  0  0  0
   10.0256    7.2907   20.8484 C   0  0  0  0  0  0  0  0  0  0  0  0
    9.3113    5.3049   14.4911 C   0  0  0  0  0  0  0  0  0  0  0  0
    9.4607    7.5646   16.0139 C   0  0  0  0  0  0  0  0  0  0  0  0
   10.4192    7.3157   15.0955 C   0  0  0  0  0  0  0  0  0  0  0  0
   10.2489    6.4227   23.0218 N   0  0  0  0  0  0  0  0  0  0  0  0
    7.2472    8.0746   23.5050 C   0  0  0  0  0  0  0  0  0  0  0  0
    9.2051    6.9101   23.4604 C   0  0  0  0  0  0  0  0  0  0  0  0
   11.9646    6.0299   21.4251 C   0  0  0  0  0  0  0  0  0  0  0  0
  1  5  1  0
  1 13  1  0
  2 20  2  0
  2 28  1  0
  2 29  1  0
  3 19  4  0
  3 25  4  0
  4 23  4  0
  4 27  1  0
  4 30  4  0
  5 17  1  0
  6  8  1  0
  6 29  1  0
  7 24  4  0
  7 26  4  0
  8 28  1  0
  9 13  2  0
 10 18  1  0
 10 21  4  0
 10 30  4  0
 11 17  2  0
 12 18  1  0
 13 15  1  0
 14 24  1  0
 15 25  1  0
 16 28  2  0
 17 20  1  0
 19 24  4  0
 20 23  1  0
 21 22  4  0
 22 23  4  0
 25 26  4  0
 27 29  2  0
M  END
$$$$

 Created by Python create_sdf_string function

 30 33  0  0  0  0  0  0  0  0999 V2000
    8.3036    9.8571   18.4133 C   0  0  0  0  0  0  0  0  0  0  0  0
    8.3694    7.6612   22.6703 C   0  0  0  0  0  0  0  0  0  0  0  0
    8.4143    6.6863   16.2273 C   0  0  0  0  0  0  0  0  0  0  0  0
   10.7581    6.5674   21.7636 C   0  0  0  0  0  0  0  0  0  0  0  0
    8.4452    8.7960   19.2958 O   0  0  0  0  0  0  0  0  0  0  0  0
    8.7122    6.7842   24.8569 C   0  0  0  0  0  0  0  0  0  0  0  0
   10.3400    6.1726   14.3081 C   0  0  0  0  0  0  0  0  0  0  0  0
    7.4297    7.5873   24.8962 C   0  0  0  0  0  0  0  0  0  0  0  0
    8.1566   10.0536   16.0516 O   0  0  0  0  0  0  0  0  0  0  0  0
   12.4989    6.2074   20.1776 C   0  0  0  0  0  0  0  0  0  0  0  0
    6.9192    9.1053   20.9073 O   0  0  0  0  0  0  0  0  0  0  0  0
   14.3979    6.0729   18.7784 C   0  0  0  0  0  0  0  0  0  0  0  0
    8.6811    9.5354   16.9998 C   0  0  0  0  0  0  0  0  0  0  0  0
    9.2512    4.2713   13.7653 O   0  0  0  0  0  0  0  0  0  0  0  0
    9.6495    8.6317   16.8332 N   0  0  0  0  0  0  0  0  0  0  0  0
    6.2934    8.6988   23.1988 O   0  0  0  0  0  0  0  0  0  0  0  0
    7.9806    8.6543   20.5437 C   0  0  0  0  0  0  0  0  0  0  0  0
   13.7270    5.7144   19.8610 O   0  0  0  0  0  0  0  0  0  0  0  0
    8.3351    5.5235   15.4478 C   0  0  0  0  0  0  0  0  0  0  0  0
    8.7700    7.8434   21.3915 C   0  0  0  0  0  0  0  0  0  0  0  0
   11.7856    6.8851   19.2401 C   0  0  0  0  0  0  0  0  0  0  0  0
   10.5281    7.4276   19.5649 C   0  0  0  0  0  0  0  0  0  0  0  0
   10.0256    7.2907   20.8484 C   0  0  0  0  0  0  0  0  0  0  0  0
    9.3113    5.3049   14.4911 C   0  0  0  0  0  0  0  0  0  0  0  0
    9.4607    7.5646   16.0139 C   0  0  0  0  0  0  0  0  0  0  0  0
   10.4192    7.3157   15.0955 C   0  0  0  0  0  0  0  0  0  0  0  0
   10.2489    6.4227   23.0218 N   0  0  0  0  0  0  0  0  0  0  0  0
    7.2472    8.0746   23.5050 C   0  0  0  0  0  0  0  0  0  0  0  0
    9.2051    6.9101   23.4604 C   0  0  0  0  0  0  0  0  0  0  0  0
   11.9646    6.0299   21.4251 C   0  0  0  0  0  0  0  0  0  0  0  0
  1  5  1  0
  1 13  1  0
  2 20  2  0
  2 28  1  0
  2 29  1  0
  3 19  4  0
  3 25  4  0
  4 23  4  0
  4 27  1  0
  4 30  4  0
  5 17  1  0
  6  8  1  0
  6 29  1  0
  7 24  4  0
  7 26  4  0
  8 28  1  0
  9 13  2  0
 10 18  1  0
 10 21  4  0
 10 30  4  0
 11 17  2  0
 12 18  1  0
 13 15  1  0
 14 24  1  0
 15 25  1  0
 16 28  2  0
 17 20  1  0
 19 24  4  0
 20 23  1  0
 21 22  4  0
 22 23  4  0
 25 26  4  0
 27 29  2  0
M  END
$$$$

 Created by Python create_sdf_string function

 30 33  0  0  0  0  0  0  0  0999 V2000
    8.3036    9.8571   18.4133 C   0  0  0  0  0  0  0  0  0  0  0  0
    8.3694    7.6612   22.6703 C   0  0  0  0  0  0  0  0  0  0  0  0
    8.4143    6.6863   16.2273 C   0  0  0  0  0  0  0  0  0  0  0  0
   10.7581    6.5674   21.7636 C   0  0  0  0  0  0  0  0  0  0  0  0
    8.4452    8.7960   19.2958 O   0  0  0  0  0  0  0  0  0  0  0  0
    8.7122    6.7842   24.8569 C   0  0  0  0  0  0  0  0  0  0  0  0
   10.3400    6.1726   14.3081 C   0  0  0  0  0  0  0  0  0  0  0  0
    7.4297    7.5873   24.8962 C   0  0  0  0  0  0  0  0  0  0  0  0
    8.1566   10.0536   16.0516 O   0  0  0  0  0  0  0  0  0  0  0  0
   12.4989    6.2074   20.1776 C   0  0  0  0  0  0  0  0  0  0  0  0
    6.9192    9.1053   20.9073 O   0  0  0  0  0  0  0  0  0  0  0  0
   14.3979    6.0729   18.7784 C   0  0  0  0  0  0  0  0  0  0  0  0
    8.6811    9.5354   16.9998 C   0  0  0  0  0  0  0  0  0  0  0  0
    9.2512    4.2713   13.7653 O   0  0  0  0  0  0  0  0  0  0  0  0
    9.6495    8.6317   16.8332 N   0  0  0  0  0  0  0  0  0  0  0  0
    6.2934    8.6988   23.1988 O   0  0  0  0  0  0  0  0  0  0  0  0
    7.9806    8.6543   20.5437 C   0  0  0  0  0  0  0  0  0  0  0  0
   13.7270    5.7144   19.8610 O   0  0  0  0  0  0  0  0  0  0  0  0
    8.3351    5.5235   15.4478 C   0  0  0  0  0  0  0  0  0  0  0  0
    8.7700    7.8434   21.3915 C   0  0  0  0  0  0  0  0  0  0  0  0
   11.7856    6.8851   19.2401 C   0  0  0  0  0  0  0  0  0  0  0  0
   10.5281    7.4276   19.5649 C   0  0  0  0  0  0  0  0  0  0  0  0
   10.0256    7.2907   20.8484 C   0  0  0  0  0  0  0  0  0  0  0  0
    9.3113    5.3049   14.4911 C   0  0  0  0  0  0  0  0  0  0  0  0
    9.4607    7.5646   16.0139 C   0  0  0  0  0  0  0  0  0  0  0  0
   10.4192    7.3157   15.0955 C   0  0  0  0  0  0  0  0  0  0  0  0
   10.2489    6.4227   23.0218 N   0  0  0  0  0  0  0  0  0  0  0  0
    7.2472    8.0746   23.5050 C   0  0  0  0  0  0  0  0  0  0  0  0
    9.2051    6.9101   23.4604 C   0  0  0  0  0  0  0  0  0  0  0  0
   11.9646    6.0299   21.4251 C   0  0  0  0  0  0  0  0  0  0  0  0
  1  5  1  0
  1 13  1  0
  2 20  2  0
  2 28  1  0
  2 29  1  0
  3 19  4  0
  3 25  4  0
  4 23  4  0
  4 27  1  0
  4 30  4  0
  5 17  1  0
  6  8  1  0
  6 29  1  0
  7 24  4  0
  7 26  4  0
  8 28  1  0
  9 13  2  0
 10 18  1  0
 10 21  4  0
 10 30  4  0
 11 17  2  0
 12 18  1  0
 13 15  1  0
 14 24  1  0
 15 25  1  0
 16 28  2  0
 17 20  1  0
 19 24  4  0
 20 23  1  0
 21 22  4  0
 22 23  4  0
 25 26  4  0
 27 29  2  0
M  END
$$$$

 Created by Python create_sdf_string function

 30 33  0  0  0  0  0  0  0  0999 V2000
    8.3036    9.8571   18.4133 C   0  0  0  0  0  0  0  0  0  0  0  0
    8.3694    7.6612   22.6703 C   0  0  0  0  0  0  0  0  0  0  0  0
    8.4143    6.6863   16.2273 C   0  0  0  0  0  0  0  0  0  0  0  0
   10.7581    6.5674   21.7636 C   0  0  0  0  0  0  0  0  0  0  0  0
    8.4452    8.7960   19.2958 O   0  0  0  0  0  0  0  0  0  0  0  0
    8.7122    6.7842   24.8569 C   0  0  0  0  0  0  0  0  0  0  0  0
   10.3400    6.1726   14.3081 C   0  0  0  0  0  0  0  0  0  0  0  0
    7.4297    7.5873   24.8962 C   0  0  0  0  0  0  0  0  0  0  0  0
    8.1566   10.0536   16.0516 O   0  0  0  0  0  0  0  0  0  0  0  0
   12.4989    6.2074   20.1776 C   0  0  0  0  0  0  0  0  0  0  0  0
    6.9192    9.1053   20.9073 O   0  0  0  0  0  0  0  0  0  0  0  0
   14.3979    6.0729   18.7784 C   0  0  0  0  0  0  0  0  0  0  0  0
    8.6811    9.5354   16.9998 C   0  0  0  0  0  0  0  0  0  0  0  0
    9.2512    4.2713   13.7653 O   0  0  0  0  0  0  0  0  0  0  0  0
    9.6495    8.6317   16.8332 N   0  0  0  0  0  0  0  0  0  0  0  0
    6.2934    8.6988   23.1988 O   0  0  0  0  0  0  0  0  0  0  0  0
    7.9806    8.6543   20.5437 C   0  0  0  0  0  0  0  0  0  0  0  0
   13.7270    5.7144   19.8610 O   0  0  0  0  0  0  0  0  0  0  0  0
    8.3351    5.5235   15.4478 C   0  0  0  0  0  0  0  0  0  0  0  0
    8.7700    7.8434   21.3915 C   0  0  0  0  0  0  0  0  0  0  0  0
   11.7856    6.8851   19.2401 C   0  0  0  0  0  0  0  0  0  0  0  0
   10.5281    7.4276   19.5649 C   0  0  0  0  0  0  0  0  0  0  0  0
   10.0256    7.2907   20.8484 C   0  0  0  0  0  0  0  0  0  0  0  0
    9.3113    5.3049   14.4911 C   0  0  0  0  0  0  0  0  0  0  0  0
    9.4607    7.5646   16.0139 C   0  0  0  0  0  0  0  0  0  0  0  0
   10.4192    7.3157   15.0955 C   0  0  0  0  0  0  0  0  0  0  0  0
   10.2489    6.4227   23.0218 N   0  0  0  0  0  0  0  0  0  0  0  0
    7.2472    8.0746   23.5050 C   0  0  0  0  0  0  0  0  0  0  0  0
    9.2051    6.9101   23.4604 C   0  0  0  0  0  0  0  0  0  0  0  0
   11.9646    6.0299   21.4251 C   0  0  0  0  0  0  0  0  0  0  0  0
  1  5  1  0
  1 13  1  0
  2 20  2  0
  2 28  1  0
  2 29  1  0
  3 19  4  0
  3 25  4  0
  4 23  4  0
  4 27  1  0
  4 30  4  0
  5 17  1  0
  6  8  1  0
  6 29  1  0
  7 24  4  0
  7 26  4  0
  8 28  1  0
  9 13  2  0
 10 18  1  0
 10 21  4  0
 10 30  4  0
 11 17  2  0
 12 18  1  0
 13 15  1  0
 14 24  1  0
 15 25  1  0
 16 28  2  0
 17 20  1  0
 19 24  4  0
 20 23  1  0
 21 22  4  0
 22 23  4  0
 25 26  4  0
 27 29  2  0
M  END
$$$$

 Created by Python create_sdf_string function

 30 33  0  0  0  0  0  0  0  0999 V2000
    8.3036    9.8571   18.4133 C   0  0  0  0  0  0  0  0  0  0  0  0
    8.3694    7.6612   22.6703 C   0  0  0  0  0  0  0  0  0  0  0  0
    8.4143    6.6863   16.2273 C   0  0  0  0  0  0  0  0  0  0  0  0
   10.7581    6.5674   21.7636 C   0  0  0  0  0  0  0  0  0  0  0  0
    8.4452    8.7960   19.2958 O   0  0  0  0  0  0  0  0  0  0  0  0
    8.7122    6.7842   24.8569 C   0  0  0  0  0  0  0  0  0  0  0  0
   10.3400    6.1726   14.3081 C   0  0  0  0  0  0  0  0  0  0  0  0
    7.4297    7.5873   24.8962 C   0  0  0  0  0  0  0  0  0  0  0  0
    8.1566   10.0536   16.0516 O   0  0  0  0  0  0  0  0  0  0  0  0
   12.4989    6.2074   20.1776 C   0  0  0  0  0  0  0  0  0  0  0  0
    6.9192    9.1053   20.9073 O   0  0  0  0  0  0  0  0  0  0  0  0
   14.3979    6.0729   18.7784 C   0  0  0  0  0  0  0  0  0  0  0  0
    8.6811    9.5354   16.9998 C   0  0  0  0  0  0  0  0  0  0  0  0
    9.2512    4.2713   13.7653 O   0  0  0  0  0  0  0  0  0  0  0  0
    9.6495    8.6317   16.8332 N   0  0  0  0  0  0  0  0  0  0  0  0
    6.2934    8.6988   23.1988 O   0  0  0  0  0  0  0  0  0  0  0  0
    7.9806    8.6543   20.5437 C   0  0  0  0  0  0  0  0  0  0  0  0
   13.7270    5.7144   19.8610 O   0  0  0  0  0  0  0  0  0  0  0  0
    8.3351    5.5235   15.4478 C   0  0  0  0  0  0  0  0  0  0  0  0
    8.7700    7.8434   21.3915 C   0  0  0  0  0  0  0  0  0  0  0  0
   11.7856    6.8851   19.2401 C   0  0  0  0  0  0  0  0  0  0  0  0
   10.5281    7.4276   19.5649 C   0  0  0  0  0  0  0  0  0  0  0  0
   10.0256    7.2907   20.8484 C   0  0  0  0  0  0  0  0  0  0  0  0
    9.3113    5.3049   14.4911 C   0  0  0  0  0  0  0  0  0  0  0  0
    9.4607    7.5646   16.0139 C   0  0  0  0  0  0  0  0  0  0  0  0
   10.4192    7.3157   15.0955 C   0  0  0  0  0  0  0  0  0  0  0  0
   10.2489    6.4227   23.0218 N   0  0  0  0  0  0  0  0  0  0  0  0
    7.2472    8.0746   23.5050 C   0  0  0  0  0  0  0  0  0  0  0  0
    9.2051    6.9101   23.4604 C   0  0  0  0  0  0  0  0  0  0  0  0
   11.9646    6.0299   21.4251 C   0  0  0  0  0  0  0  0  0  0  0  0
  1  5  1  0
  1 13  1  0
  2 20  2  0
  2 28  1  0
  2 29  1  0
  3 19  4  0
  3 25  4  0
  4 23  4  0
  4 27  1  0
  4 30  4  0
  5 17  1  0
  6  8  1  0
  6 29  1  0
  7 24  4  0
  7 26  4  0
  8 28  1  0
  9 13  2  0
 10 18  1  0
 10 21  4  0
 10 30  4  0
 11 17  2  0
 12 18  1  0
 13 15  1  0
 14 24  1  0
 15 25  1  0
 16 28  2  0
 17 20  1  0
 19 24  4  0
 20 23  1  0
 21 22  4  0
 22 23  4  0
 25 26  4  0
 27 29  2  0
M  END
$$$$

 Created by Python create_sdf_string function

 30 33  0  0  0  0  0  0  0  0999 V2000
    8.3036    9.8571   18.4133 C   0  0  0  0  0  0  0  0  0  0  0  0
    8.3694    7.6612   22.6703 C   0  0  0  0  0  0  0  0  0  0  0  0
    8.4143    6.6863   16.2273 C   0  0  0  0  0  0  0  0  0  0  0  0
   10.7581    6.5674   21.7636 C   0  0  0  0  0  0  0  0  0  0  0  0
    8.4452    8.7960   19.2958 O   0  0  0  0  0  0  0  0  0  0  0  0
    8.7122    6.7842   24.8569 C   0  0  0  0  0  0  0  0  0  0  0  0
   10.3400    6.1726   14.3081 C   0  0  0  0  0  0  0  0  0  0  0  0
    7.4297    7.5873   24.8962 C   0  0  0  0  0  0  0  0  0  0  0  0
    8.1566   10.0536   16.0516 O   0  0  0  0  0  0  0  0  0  0  0  0
   12.4989    6.2074   20.1776 C   0  0  0  0  0  0  0  0  0  0  0  0
    6.9192    9.1053   20.9073 O   0  0  0  0  0  0  0  0  0  0  0  0
   14.3979    6.0729   18.7784 C   0  0  0  0  0  0  0  0  0  0  0  0
    8.6811    9.5354   16.9998 C   0  0  0  0  0  0  0  0  0  0  0  0
    9.2512    4.2713   13.7653 O   0  0  0  0  0  0  0  0  0  0  0  0
    9.6495    8.6317   16.8332 N   0  0  0  0  0  0  0  0  0  0  0  0
    6.2934    8.6988   23.1988 O   0  0  0  0  0  0  0  0  0  0  0  0
    7.9806    8.6543   20.5437 C   0  0  0  0  0  0  0  0  0  0  0  0
   13.7270    5.7144   19.8610 O   0  0  0  0  0  0  0  0  0  0  0  0
    8.3351    5.5235   15.4478 C   0  0  0  0  0  0  0  0  0  0  0  0
    8.7700    7.8434   21.3915 C   0  0  0  0  0  0  0  0  0  0  0  0
   11.7856    6.8851   19.2401 C   0  0  0  0  0  0  0  0  0  0  0  0
   10.5281    7.4276   19.5649 C   0  0  0  0  0  0  0  0  0  0  0  0
   10.0256    7.2907   20.8484 C   0  0  0  0  0  0  0  0  0  0  0  0
    9.3113    5.3049   14.4911 C   0  0  0  0  0  0  0  0  0  0  0  0
    9.4607    7.5646   16.0139 C   0  0  0  0  0  0  0  0  0  0  0  0
   10.4192    7.3157   15.0955 C   0  0  0  0  0  0  0  0  0  0  0  0
   10.2489    6.4227   23.0218 N   0  0  0  0  0  0  0  0  0  0  0  0
    7.2472    8.0746   23.5050 C   0  0  0  0  0  0  0  0  0  0  0  0
    9.2051    6.9101   23.4604 C   0  0  0  0  0  0  0  0  0  0  0  0
   11.9646    6.0299   21.4251 C   0  0  0  0  0  0  0  0  0  0  0  0
  1  5  1  0
  1 13  1  0
  2 20  2  0
  2 28  1  0
  2 29  1  0
  3 19  4  0
  3 25  4  0
  4 23  4  0
  4 27  1  0
  4 30  4  0
  5 17  1  0
  6  8  1  0
  6 29  1  0
  7 24  4  0
  7 26  4  0
  8 28  1  0
  9 13  2  0
 10 18  1  0
 10 21  4  0
 10 30  4  0
 11 17  2  0
 12 18  1  0
 13 15  1  0
 14 24  1  0
 15 25  1  0
 16 28  2  0
 17 20  1  0
 19 24  4  0
 20 23  1  0
 21 22  4  0
 22 23  4  0
 25 26  4  0
 27 29  2  0
M  END
$$$$

 Created by Python create_sdf_string function

 30 33  0  0  0  0  0  0  0  0999 V2000
    8.3036    9.8571   18.4133 C   0  0  0  0  0  0  0  0  0  0  0  0
    8.3694    7.6612   22.6703 C   0  0  0  0  0  0  0  0  0  0  0  0
    8.4143    6.6863   16.2273 C   0  0  0  0  0  0  0  0  0  0  0  0
   10.7581    6.5674   21.7636 C   0  0  0  0  0  0  0  0  0  0  0  0
    8.4452    8.7960   19.2958 O   0  0  0  0  0  0  0  0  0  0  0  0
    8.7122    6.7842   24.8569 C   0  0  0  0  0  0  0  0  0  0  0  0
   10.3400    6.1726   14.3081 C   0  0  0  0  0  0  0  0  0  0  0  0
    7.4297    7.5873   24.8962 C   0  0  0  0  0  0  0  0  0  0  0  0
    8.1566   10.0536   16.0516 O   0  0  0  0  0  0  0  0  0  0  0  0
   12.4989    6.2074   20.1776 C   0  0  0  0  0  0  0  0  0  0  0  0
    6.9192    9.1053   20.9073 O   0  0  0  0  0  0  0  0  0  0  0  0
   14.3979    6.0729   18.7784 C   0  0  0  0  0  0  0  0  0  0  0  0
    8.6811    9.5354   16.9998 C   0  0  0  0  0  0  0  0  0  0  0  0
    9.2512    4.2713   13.7653 O   0  0  0  0  0  0  0  0  0  0  0  0
    9.6495    8.6317   16.8332 N   0  0  0  0  0  0  0  0  0  0  0  0
    6.2934    8.6988   23.1988 O   0  0  0  0  0  0  0  0  0  0  0  0
    7.9806    8.6543   20.5437 C   0  0  0  0  0  0  0  0  0  0  0  0
   13.7270    5.7144   19.8610 O   0  0  0  0  0  0  0  0  0  0  0  0
    8.3351    5.5235   15.4478 C   0  0  0  0  0  0  0  0  0  0  0  0
    8.7700    7.8434   21.3915 C   0  0  0  0  0  0  0  0  0  0  0  0
   11.7856    6.8851   19.2401 C   0  0  0  0  0  0  0  0  0  0  0  0
   10.5281    7.4276   19.5649 C   0  0  0  0  0  0  0  0  0  0  0  0
   10.0256    7.2907   20.8484 C   0  0  0  0  0  0  0  0  0  0  0  0
    9.3113    5.3049   14.4911 C   0  0  0  0  0  0  0  0  0  0  0  0
    9.4607    7.5646   16.0139 C   0  0  0  0  0  0  0  0  0  0  0  0
   10.4192    7.3157   15.0955 C   0  0  0  0  0  0  0  0  0  0  0  0
   10.2489    6.4227   23.0218 N   0  0  0  0  0  0  0  0  0  0  0  0
    7.2472    8.0746   23.5050 C   0  0  0  0  0  0  0  0  0  0  0  0
    9.2051    6.9101   23.4604 C   0  0  0  0  0  0  0  0  0  0  0  0
   11.9646    6.0299   21.4251 C   0  0  0  0  0  0  0  0  0  0  0  0
  1  5  1  0
  1 13  1  0
  2 20  2  0
  2 28  1  0
  2 29  1  0
  3 19  4  0
  3 25  4  0
  4 23  4  0
  4 27  1  0
  4 30  4  0
  5 17  1  0
  6  8  1  0
  6 29  1  0
  7 24  4  0
  7 26  4  0
  8 28  1  0
  9 13  2  0
 10 18  1  0
 10 21  4  0
 10 30  4  0
 11 17  2  0
 12 18  1  0
 13 15  1  0
 14 24  1  0
 15 25  1  0
 16 28  2  0
 17 20  1  0
 19 24  4  0
 20 23  1  0
 21 22  4  0
 22 23  4  0
 25 26  4  0
 27 29  2  0
M  END
$$$$

 Created by Python create_sdf_string function

 30 33  0  0  0  0  0  0  0  0999 V2000
    8.3036    9.8571   18.4133 C   0  0  0  0  0  0  0  0  0  0  0  0
    8.3694    7.6612   22.6703 C   0  0  0  0  0  0  0  0  0  0  0  0
    8.4143    6.6863   16.2273 C   0  0  0  0  0  0  0  0  0  0  0  0
   10.7581    6.5674   21.7636 C   0  0  0  0  0  0  0  0  0  0  0  0
    8.4452    8.7960   19.2958 O   0  0  0  0  0  0  0  0  0  0  0  0
    8.7122    6.7842   24.8569 C   0  0  0  0  0  0  0  0  0  0  0  0
   10.3400    6.1726   14.3081 C   0  0  0  0  0  0  0  0  0  0  0  0
    7.4297    7.5873   24.8962 C   0  0  0  0  0  0  0  0  0  0  0  0
    8.1566   10.0536   16.0516 O   0  0  0  0  0  0  0  0  0  0  0  0
   12.4989    6.2074   20.1776 C   0  0  0  0  0  0  0  0  0  0  0  0
    6.9192    9.1053   20.9073 O   0  0  0  0  0  0  0  0  0  0  0  0
   14.3979    6.0729   18.7784 C   0  0  0  0  0  0  0  0  0  0  0  0
    8.6811    9.5354   16.9998 C   0  0  0  0  0  0  0  0  0  0  0  0
    9.2512    4.2713   13.7653 O   0  0  0  0  0  0  0  0  0  0  0  0
    9.6495    8.6317   16.8332 N   0  0  0  0  0  0  0  0  0  0  0  0
    6.2934    8.6988   23.1988 O   0  0  0  0  0  0  0  0  0  0  0  0
    7.9806    8.6543   20.5437 C   0  0  0  0  0  0  0  0  0  0  0  0
   13.7270    5.7144   19.8610 O   0  0  0  0  0  0  0  0  0  0  0  0
    8.3351    5.5235   15.4478 C   0  0  0  0  0  0  0  0  0  0  0  0
    8.7700    7.8434   21.3915 C   0  0  0  0  0  0  0  0  0  0  0  0
   11.7856    6.8851   19.2401 C   0  0  0  0  0  0  0  0  0  0  0  0
   10.5281    7.4276   19.5649 C   0  0  0  0  0  0  0  0  0  0  0  0
   10.0256    7.2907   20.8484 C   0  0  0  0  0  0  0  0  0  0  0  0
    9.3113    5.3049   14.4911 C   0  0  0  0  0  0  0  0  0  0  0  0
    9.4607    7.5646   16.0139 C   0  0  0  0  0  0  0  0  0  0  0  0
   10.4192    7.3157   15.0955 C   0  0  0  0  0  0  0  0  0  0  0  0
   10.2489    6.4227   23.0218 N   0  0  0  0  0  0  0  0  0  0  0  0
    7.2472    8.0746   23.5050 C   0  0  0  0  0  0  0  0  0  0  0  0
    9.2051    6.9101   23.4604 C   0  0  0  0  0  0  0  0  0  0  0  0
   11.9646    6.0299   21.4251 C   0  0  0  0  0  0  0  0  0  0  0  0
  1  5  1  0
  1 13  1  0
  2 20  2  0
  2 28  1  0
  2 29  1  0
  3 19  4  0
  3 25  4  0
  4 23  4  0
  4 27  1  0
  4 30  4  0
  5 17  1  0
  6  8  1  0
  6 29  1  0
  7 24  4  0
  7 26  4  0
  8 28  1  0
  9 13  2  0
 10 18  1  0
 10 21  4  0
 10 30  4  0
 11 17  2  0
 12 18  1  0
 13 15  1  0
 14 24  1  0
 15 25  1  0
 16 28  2  0
 17 20  1  0
 19 24  4  0
 20 23  1  0
 21 22  4  0
 22 23  4  0
 25 26  4  0
 27 29  2  0
M  END
$$$$

 Created by Python create_sdf_string function

 30 33  0  0  0  0  0  0  0  0999 V2000
    8.3036    9.8571   18.4133 C   0  0  0  0  0  0  0  0  0  0  0  0
    8.3694    7.6612   22.6703 C   0  0  0  0  0  0  0  0  0  0  0  0
    8.4143    6.6863   16.2273 C   0  0  0  0  0  0  0  0  0  0  0  0
   10.7581    6.5674   21.7636 C   0  0  0  0  0  0  0  0  0  0  0  0
    8.4452    8.7960   19.2958 O   0  0  0  0  0  0  0  0  0  0  0  0
    8.7122    6.7842   24.8569 C   0  0  0  0  0  0  0  0  0  0  0  0
   10.3400    6.1726   14.3081 C   0  0  0  0  0  0  0  0  0  0  0  0
    7.4297    7.5873   24.8962 C   0  0  0  0  0  0  0  0  0  0  0  0
    8.1566   10.0536   16.0516 O   0  0  0  0  0  0  0  0  0  0  0  0
   12.4989    6.2074   20.1776 C   0  0  0  0  0  0  0  0  0  0  0  0
    6.9192    9.1053   20.9073 O   0  0  0  0  0  0  0  0  0  0  0  0
   14.3979    6.0729   18.7784 C   0  0  0  0  0  0  0  0  0  0  0  0
    8.6811    9.5354   16.9998 C   0  0  0  0  0  0  0  0  0  0  0  0
    9.2512    4.2713   13.7653 O   0  0  0  0  0  0  0  0  0  0  0  0
    9.6495    8.6317   16.8332 N   0  0  0  0  0  0  0  0  0  0  0  0
    6.2934    8.6988   23.1988 O   0  0  0  0  0  0  0  0  0  0  0  0
    7.9806    8.6543   20.5437 C   0  0  0  0  0  0  0  0  0  0  0  0
   13.7270    5.7144   19.8610 O   0  0  0  0  0  0  0  0  0  0  0  0
    8.3351    5.5235   15.4478 C   0  0  0  0  0  0  0  0  0  0  0  0
    8.7700    7.8434   21.3915 C   0  0  0  0  0  0  0  0  0  0  0  0
   11.7856    6.8851   19.2401 C   0  0  0  0  0  0  0  0  0  0  0  0
   10.5281    7.4276   19.5649 C   0  0  0  0  0  0  0  0  0  0  0  0
   10.0256    7.2907   20.8484 C   0  0  0  0  0  0  0  0  0  0  0  0
    9.3113    5.3049   14.4911 C   0  0  0  0  0  0  0  0  0  0  0  0
    9.4607    7.5646   16.0139 C   0  0  0  0  0  0  0  0  0  0  0  0
   10.4192    7.3157   15.0955 C   0  0  0  0  0  0  0  0  0  0  0  0
   10.2489    6.4227   23.0218 N   0  0  0  0  0  0  0  0  0  0  0  0
    7.2472    8.0746   23.5050 C   0  0  0  0  0  0  0  0  0  0  0  0
    9.2051    6.9101   23.4604 C   0  0  0  0  0  0  0  0  0  0  0  0
   11.9646    6.0299   21.4251 C   0  0  0  0  0  0  0  0  0  0  0  0
  1  5  1  0
  1 13  1  0
  2 20  2  0
  2 28  1  0
  2 29  1  0
  3 19  4  0
  3 25  4  0
  4 23  4  0
  4 27  1  0
  4 30  4  0
  5 17  1  0
  6  8  1  0
  6 29  1  0
  7 24  4  0
  7 26  4  0
  8 28  1  0
  9 13  2  0
 10 18  1  0
 10 21  4  0
 10 30  4  0
 11 17  2  0
 12 18  1  0
 13 15  1  0
 14 24  1  0
 15 25  1  0
 16 28  2  0
 17 20  1  0
 19 24  4  0
 20 23  1  0
 21 22  4  0
 22 23  4  0
 25 26  4  0
 27 29  2  0
M  END
$$$$

 Created by Python create_sdf_string function

 30 33  0  0  0  0  0  0  0  0999 V2000
    8.3036    9.8571   18.4133 C   0  0  0  0  0  0  0  0  0  0  0  0
    8.3694    7.6612   22.6703 C   0  0  0  0  0  0  0  0  0  0  0  0
    8.4143    6.6863   16.2273 C   0  0  0  0  0  0  0  0  0  0  0  0
   10.7581    6.5674   21.7636 C   0  0  0  0  0  0  0  0  0  0  0  0
    8.4452    8.7960   19.2958 O   0  0  0  0  0  0  0  0  0  0  0  0
    8.7122    6.7842   24.8569 C   0  0  0  0  0  0  0  0  0  0  0  0
   10.3400    6.1726   14.3081 C   0  0  0  0  0  0  0  0  0  0  0  0
    7.4297    7.5873   24.8962 C   0  0  0  0  0  0  0  0  0  0  0  0
    8.1566   10.0536   16.0516 O   0  0  0  0  0  0  0  0  0  0  0  0
   12.4989    6.2074   20.1776 C   0  0  0  0  0  0  0  0  0  0  0  0
    6.9192    9.1053   20.9073 O   0  0  0  0  0  0  0  0  0  0  0  0
   14.3979    6.0729   18.7784 C   0  0  0  0  0  0  0  0  0  0  0  0
    8.6811    9.5354   16.9998 C   0  0  0  0  0  0  0  0  0  0  0  0
    9.2512    4.2713   13.7653 O   0  0  0  0  0  0  0  0  0  0  0  0
    9.6495    8.6317   16.8332 N   0  0  0  0  0  0  0  0  0  0  0  0
    6.2934    8.6988   23.1988 O   0  0  0  0  0  0  0  0  0  0  0  0
    7.9806    8.6543   20.5437 C   0  0  0  0  0  0  0  0  0  0  0  0
   13.7270    5.7144   19.8610 O   0  0  0  0  0  0  0  0  0  0  0  0
    8.3351    5.5235   15.4478 C   0  0  0  0  0  0  0  0  0  0  0  0
    8.7700    7.8434   21.3915 C   0  0  0  0  0  0  0  0  0  0  0  0
   11.7856    6.8851   19.2401 C   0  0  0  0  0  0  0  0  0  0  0  0
   10.5281    7.4276   19.5649 C   0  0  0  0  0  0  0  0  0  0  0  0
   10.0256    7.2907   20.8484 C   0  0  0  0  0  0  0  0  0  0  0  0
    9.3113    5.3049   14.4911 C   0  0  0  0  0  0  0  0  0  0  0  0
    9.4607    7.5646   16.0139 C   0  0  0  0  0  0  0  0  0  0  0  0
   10.4192    7.3157   15.0955 C   0  0  0  0  0  0  0  0  0  0  0  0
   10.2489    6.4227   23.0218 N   0  0  0  0  0  0  0  0  0  0  0  0
    7.2472    8.0746   23.5050 C   0  0  0  0  0  0  0  0  0  0  0  0
    9.2051    6.9101   23.4604 C   0  0  0  0  0  0  0  0  0  0  0  0
   11.9646    6.0299   21.4251 C   0  0  0  0  0  0  0  0  0  0  0  0
  1  5  1  0
  1 13  1  0
  2 20  2  0
  2 28  1  0
  2 29  1  0
  3 19  4  0
  3 25  4  0
  4 23  4  0
  4 27  1  0
  4 30  4  0
  5 17  1  0
  6  8  1  0
  6 29  1  0
  7 24  4  0
  7 26  4  0
  8 28  1  0
  9 13  2  0
 10 18  1  0
 10 21  4  0
 10 30  4  0
 11 17  2  0
 12 18  1  0
 13 15  1  0
 14 24  1  0
 15 25  1  0
 16 28  2  0
 17 20  1  0
 19 24  4  0
 20 23  1  0
 21 22  4  0
 22 23  4  0
 25 26  4  0
 27 29  2  0
M  END
$$$$

 Created by Python create_sdf_string function

 30 33  0  0  0  0  0  0  0  0999 V2000
    8.3036    9.8571   18.4133 C   0  0  0  0  0  0  0  0  0  0  0  0
    8.3694    7.6612   22.6703 C   0  0  0  0  0  0  0  0  0  0  0  0
    8.4143    6.6863   16.2273 C   0  0  0  0  0  0  0  0  0  0  0  0
   10.7581    6.5674   21.7636 C   0  0  0  0  0  0  0  0  0  0  0  0
    8.4452    8.7960   19.2958 O   0  0  0  0  0  0  0  0  0  0  0  0
    8.7122    6.7842   24.8569 C   0  0  0  0  0  0  0  0  0  0  0  0
   10.3400    6.1726   14.3081 C   0  0  0  0  0  0  0  0  0  0  0  0
    7.4297    7.5873   24.8962 C   0  0  0  0  0  0  0  0  0  0  0  0
    8.1566   10.0536   16.0516 O   0  0  0  0  0  0  0  0  0  0  0  0
   12.4989    6.2074   20.1776 C   0  0  0  0  0  0  0  0  0  0  0  0
    6.9192    9.1053   20.9073 O   0  0  0  0  0  0  0  0  0  0  0  0
   14.3979    6.0729   18.7784 C   0  0  0  0  0  0  0  0  0  0  0  0
    8.6811    9.5354   16.9998 C   0  0  0  0  0  0  0  0  0  0  0  0
    9.2512    4.2713   13.7653 O   0  0  0  0  0  0  0  0  0  0  0  0
    9.6495    8.6317   16.8332 N   0  0  0  0  0  0  0  0  0  0  0  0
    6.2934    8.6988   23.1988 O   0  0  0  0  0  0  0  0  0  0  0  0
    7.9806    8.6543   20.5437 C   0  0  0  0  0  0  0  0  0  0  0  0
   13.7270    5.7144   19.8610 O   0  0  0  0  0  0  0  0  0  0  0  0
    8.3351    5.5235   15.4478 C   0  0  0  0  0  0  0  0  0  0  0  0
    8.7700    7.8434   21.3915 C   0  0  0  0  0  0  0  0  0  0  0  0
   11.7856    6.8851   19.2401 C   0  0  0  0  0  0  0  0  0  0  0  0
   10.5281    7.4276   19.5649 C   0  0  0  0  0  0  0  0  0  0  0  0
   10.0256    7.2907   20.8484 C   0  0  0  0  0  0  0  0  0  0  0  0
    9.3113    5.3049   14.4911 C   0  0  0  0  0  0  0  0  0  0  0  0
    9.4607    7.5646   16.0139 C   0  0  0  0  0  0  0  0  0  0  0  0
   10.4192    7.3157   15.0955 C   0  0  0  0  0  0  0  0  0  0  0  0
   10.2489    6.4227   23.0218 N   0  0  0  0  0  0  0  0  0  0  0  0
    7.2472    8.0746   23.5050 C   0  0  0  0  0  0  0  0  0  0  0  0
    9.2051    6.9101   23.4604 C   0  0  0  0  0  0  0  0  0  0  0  0
   11.9646    6.0299   21.4251 C   0  0  0  0  0  0  0  0  0  0  0  0
  1  5  1  0
  1 13  1  0
  2 20  2  0
  2 28  1  0
  2 29  1  0
  3 19  4  0
  3 25  4  0
  4 23  4  0
  4 27  1  0
  4 30  4  0
  5 17  1  0
  6  8  1  0
  6 29  1  0
  7 24  4  0
  7 26  4  0
  8 28  1  0
  9 13  2  0
 10 18  1  0
 10 21  4  0
 10 30  4  0
 11 17  2  0
 12 18  1  0
 13 15  1  0
 14 24  1  0
 15 25  1  0
 16 28  2  0
 17 20  1  0
 19 24  4  0
 20 23  1  0
 21 22  4  0
 22 23  4  0
 25 26  4  0
 27 29  2  0
M  END
$$$$

 Created by Python create_sdf_string function

 30 33  0  0  0  0  0  0  0  0999 V2000
    8.3036    9.8571   18.4133 C   0  0  0  0  0  0  0  0  0  0  0  0
    8.3694    7.6612   22.6703 C   0  0  0  0  0  0  0  0  0  0  0  0
    8.4143    6.6863   16.2273 C   0  0  0  0  0  0  0  0  0  0  0  0
   10.7581    6.5674   21.7636 C   0  0  0  0  0  0  0  0  0  0  0  0
    8.4452    8.7960   19.2958 O   0  0  0  0  0  0  0  0  0  0  0  0
    8.7122    6.7842   24.8569 C   0  0  0  0  0  0  0  0  0  0  0  0
   10.3400    6.1726   14.3081 C   0  0  0  0  0  0  0  0  0  0  0  0
    7.4297    7.5873   24.8962 C   0  0  0  0  0  0  0  0  0  0  0  0
    8.1566   10.0536   16.0516 O   0  0  0  0  0  0  0  0  0  0  0  0
   12.4989    6.2074   20.1776 C   0  0  0  0  0  0  0  0  0  0  0  0
    6.9192    9.1053   20.9073 O   0  0  0  0  0  0  0  0  0  0  0  0
   14.3979    6.0729   18.7784 C   0  0  0  0  0  0  0  0  0  0  0  0
    8.6811    9.5354   16.9998 C   0  0  0  0  0  0  0  0  0  0  0  0
    9.2512    4.2713   13.7653 O   0  0  0  0  0  0  0  0  0  0  0  0
    9.6495    8.6317   16.8332 N   0  0  0  0  0  0  0  0  0  0  0  0
    6.2934    8.6988   23.1988 O   0  0  0  0  0  0  0  0  0  0  0  0
    7.9806    8.6543   20.5437 C   0  0  0  0  0  0  0  0  0  0  0  0
   13.7270    5.7144   19.8610 O   0  0  0  0  0  0  0  0  0  0  0  0
    8.3351    5.5235   15.4478 C   0  0  0  0  0  0  0  0  0  0  0  0
    8.7700    7.8434   21.3915 C   0  0  0  0  0  0  0  0  0  0  0  0
   11.7856    6.8851   19.2401 C   0  0  0  0  0  0  0  0  0  0  0  0
   10.5281    7.4276   19.5649 C   0  0  0  0  0  0  0  0  0  0  0  0
   10.0256    7.2907   20.8484 C   0  0  0  0  0  0  0  0  0  0  0  0
    9.3113    5.3049   14.4911 C   0  0  0  0  0  0  0  0  0  0  0  0
    9.4607    7.5646   16.0139 C   0  0  0  0  0  0  0  0  0  0  0  0
   10.4192    7.3157   15.0955 C   0  0  0  0  0  0  0  0  0  0  0  0
   10.2489    6.4227   23.0218 N   0  0  0  0  0  0  0  0  0  0  0  0
    7.2472    8.0746   23.5050 C   0  0  0  0  0  0  0  0  0  0  0  0
    9.2051    6.9101   23.4604 C   0  0  0  0  0  0  0  0  0  0  0  0
   11.9646    6.0299   21.4251 C   0  0  0  0  0  0  0  0  0  0  0  0
  1  5  1  0
  1 13  1  0
  2 20  2  0
  2 28  1  0
  2 29  1  0
  3 19  4  0
  3 25  4  0
  4 23  4  0
  4 27  1  0
  4 30  4  0
  5 17  1  0
  6  8  1  0
  6 29  1  0
  7 24  4  0
  7 26  4  0
  8 28  1  0
  9 13  2  0
 10 18  1  0
 10 21  4  0
 10 30  4  0
 11 17  2  0
 12 18  1  0
 13 15  1  0
 14 24  1  0
 15 25  1  0
 16 28  2  0
 17 20  1  0
 19 24  4  0
 20 23  1  0
 21 22  4  0
 22 23  4  0
 25 26  4  0
 27 29  2  0
M  END
$$$$

 Created by Python create_sdf_string function

 30 33  0  0  0  0  0  0  0  0999 V2000
    8.3036    9.8571   18.4133 C   0  0  0  0  0  0  0  0  0  0  0  0
    8.3694    7.6612   22.6703 C   0  0  0  0  0  0  0  0  0  0  0  0
    8.4143    6.6863   16.2273 C   0  0  0  0  0  0  0  0  0  0  0  0
   10.7581    6.5674   21.7636 C   0  0  0  0  0  0  0  0  0  0  0  0
    8.4452    8.7960   19.2958 O   0  0  0  0  0  0  0  0  0  0  0  0
    8.7122    6.7842   24.8569 C   0  0  0  0  0  0  0  0  0  0  0  0
   10.3400    6.1726   14.3081 C   0  0  0  0  0  0  0  0  0  0  0  0
    7.4297    7.5873   24.8962 C   0  0  0  0  0  0  0  0  0  0  0  0
    8.1566   10.0536   16.0516 O   0  0  0  0  0  0  0  0  0  0  0  0
   12.4989    6.2074   20.1776 C   0  0  0  0  0  0  0  0  0  0  0  0
    6.9192    9.1053   20.9073 O   0  0  0  0  0  0  0  0  0  0  0  0
   14.3979    6.0729   18.7784 C   0  0  0  0  0  0  0  0  0  0  0  0
    8.6811    9.5354   16.9998 C   0  0  0  0  0  0  0  0  0  0  0  0
    9.2512    4.2713   13.7653 O   0  0  0  0  0  0  0  0  0  0  0  0
    9.6495    8.6317   16.8332 N   0  0  0  0  0  0  0  0  0  0  0  0
    6.2934    8.6988   23.1988 O   0  0  0  0  0  0  0  0  0  0  0  0
    7.9806    8.6543   20.5437 C   0  0  0  0  0  0  0  0  0  0  0  0
   13.7270    5.7144   19.8610 O   0  0  0  0  0  0  0  0  0  0  0  0
    8.3351    5.5235   15.4478 C   0  0  0  0  0  0  0  0  0  0  0  0
    8.7700    7.8434   21.3915 C   0  0  0  0  0  0  0  0  0  0  0  0
   11.7856    6.8851   19.2401 C   0  0  0  0  0  0  0  0  0  0  0  0
   10.5281    7.4276   19.5649 C   0  0  0  0  0  0  0  0  0  0  0  0
   10.0256    7.2907   20.8484 C   0  0  0  0  0  0  0  0  0  0  0  0
    9.3113    5.3049   14.4911 C   0  0  0  0  0  0  0  0  0  0  0  0
    9.4607    7.5646   16.0139 C   0  0  0  0  0  0  0  0  0  0  0  0
   10.4192    7.3157   15.0955 C   0  0  0  0  0  0  0  0  0  0  0  0
   10.2489    6.4227   23.0218 N   0  0  0  0  0  0  0  0  0  0  0  0
    7.2472    8.0746   23.5050 C   0  0  0  0  0  0  0  0  0  0  0  0
    9.2051    6.9101   23.4604 C   0  0  0  0  0  0  0  0  0  0  0  0
   11.9646    6.0299   21.4251 C   0  0  0  0  0  0  0  0  0  0  0  0
  1  5  1  0
  1 13  1  0
  2 20  2  0
  2 28  1  0
  2 29  1  0
  3 19  4  0
  3 25  4  0
  4 23  4  0
  4 27  1  0
  4 30  4  0
  5 17  1  0
  6  8  1  0
  6 29  1  0
  7 24  4  0
  7 26  4  0
  8 28  1  0
  9 13  2  0
 10 18  1  0
 10 21  4  0
 10 30  4  0
 11 17  2  0
 12 18  1  0
 13 15  1  0
 14 24  1  0
 15 25  1  0
 16 28  2  0
 17 20  1  0
 19 24  4  0
 20 23  1  0
 21 22  4  0
 22 23  4  0
 25 26  4  0
 27 29  2  0
M  END
$$$$

 Created by Python create_sdf_string function

 30 33  0  0  0  0  0  0  0  0999 V2000
    8.3036    9.8571   18.4133 C   0  0  0  0  0  0  0  0  0  0  0  0
    8.3694    7.6612   22.6703 C   0  0  0  0  0  0  0  0  0  0  0  0
    8.4143    6.6863   16.2273 C   0  0  0  0  0  0  0  0  0  0  0  0
   10.7581    6.5674   21.7636 C   0  0  0  0  0  0  0  0  0  0  0  0
    8.4452    8.7960   19.2958 O   0  0  0  0  0  0  0  0  0  0  0  0
    8.7122    6.7842   24.8569 C   0  0  0  0  0  0  0  0  0  0  0  0
   10.3400    6.1726   14.3081 C   0  0  0  0  0  0  0  0  0  0  0  0
    7.4297    7.5873   24.8962 C   0  0  0  0  0  0  0  0  0  0  0  0
    8.1566   10.0536   16.0516 O   0  0  0  0  0  0  0  0  0  0  0  0
   12.4989    6.2074   20.1776 C   0  0  0  0  0  0  0  0  0  0  0  0
    6.9192    9.1053   20.9073 O   0  0  0  0  0  0  0  0  0  0  0  0
   14.3979    6.0729   18.7784 C   0  0  0  0  0  0  0  0  0  0  0  0
    8.6811    9.5354   16.9998 C   0  0  0  0  0  0  0  0  0  0  0  0
    9.2512    4.2713   13.7653 O   0  0  0  0  0  0  0  0  0  0  0  0
    9.6495    8.6317   16.8332 N   0  0  0  0  0  0  0  0  0  0  0  0
    6.2934    8.6988   23.1988 O   0  0  0  0  0  0  0  0  0  0  0  0
    7.9806    8.6543   20.5437 C   0  0  0  0  0  0  0  0  0  0  0  0
   13.7270    5.7144   19.8610 O   0  0  0  0  0  0  0  0  0  0  0  0
    8.3351    5.5235   15.4478 C   0  0  0  0  0  0  0  0  0  0  0  0
    8.7700    7.8434   21.3915 C   0  0  0  0  0  0  0  0  0  0  0  0
   11.7856    6.8851   19.2401 C   0  0  0  0  0  0  0  0  0  0  0  0
   10.5281    7.4276   19.5649 C   0  0  0  0  0  0  0  0  0  0  0  0
   10.0256    7.2907   20.8484 C   0  0  0  0  0  0  0  0  0  0  0  0
    9.3113    5.3049   14.4911 C   0  0  0  0  0  0  0  0  0  0  0  0
    9.4607    7.5646   16.0139 C   0  0  0  0  0  0  0  0  0  0  0  0
   10.4192    7.3157   15.0955 C   0  0  0  0  0  0  0  0  0  0  0  0
   10.2489    6.4227   23.0218 N   0  0  0  0  0  0  0  0  0  0  0  0
    7.2472    8.0746   23.5050 C   0  0  0  0  0  0  0  0  0  0  0  0
    9.2051    6.9101   23.4604 C   0  0  0  0  0  0  0  0  0  0  0  0
   11.9646    6.0299   21.4251 C   0  0  0  0  0  0  0  0  0  0  0  0
  1  5  1  0
  1 13  1  0
  2 20  2  0
  2 28  1  0
  2 29  1  0
  3 19  4  0
  3 25  4  0
  4 23  4  0
  4 27  1  0
  4 30  4  0
  5 17  1  0
  6  8  1  0
  6 29  1  0
  7 24  4  0
  7 26  4  0
  8 28  1  0
  9 13  2  0
 10 18  1  0
 10 21  4  0
 10 30  4  0
 11 17  2  0
 12 18  1  0
 13 15  1  0
 14 24  1  0
 15 25  1  0
 16 28  2  0
 17 20  1  0
 19 24  4  0
 20 23  1  0
 21 22  4  0
 22 23  4  0
 25 26  4  0
 27 29  2  0
M  END
$$$$

 Created by Python create_sdf_string function

 30 33  0  0  0  0  0  0  0  0999 V2000
    8.3036    9.8571   18.4133 C   0  0  0  0  0  0  0  0  0  0  0  0
    8.3694    7.6612   22.6703 C   0  0  0  0  0  0  0  0  0  0  0  0
    8.4143    6.6863   16.2273 C   0  0  0  0  0  0  0  0  0  0  0  0
   10.7581    6.5674   21.7636 C   0  0  0  0  0  0  0  0  0  0  0  0
    8.4452    8.7960   19.2958 O   0  0  0  0  0  0  0  0  0  0  0  0
    8.7122    6.7842   24.8569 C   0  0  0  0  0  0  0  0  0  0  0  0
   10.3400    6.1726   14.3081 C   0  0  0  0  0  0  0  0  0  0  0  0
    7.4297    7.5873   24.8962 C   0  0  0  0  0  0  0  0  0  0  0  0
    8.1566   10.0536   16.0516 O   0  0  0  0  0  0  0  0  0  0  0  0
   12.4989    6.2074   20.1776 C   0  0  0  0  0  0  0  0  0  0  0  0
    6.9192    9.1053   20.9073 O   0  0  0  0  0  0  0  0  0  0  0  0
   14.3979    6.0729   18.7784 C   0  0  0  0  0  0  0  0  0  0  0  0
    8.6811    9.5354   16.9998 C   0  0  0  0  0  0  0  0  0  0  0  0
    9.2512    4.2713   13.7653 O   0  0  0  0  0  0  0  0  0  0  0  0
    9.6495    8.6317   16.8332 N   0  0  0  0  0  0  0  0  0  0  0  0
    6.2934    8.6988   23.1988 O   0  0  0  0  0  0  0  0  0  0  0  0
    7.9806    8.6543   20.5437 C   0  0  0  0  0  0  0  0  0  0  0  0
   13.7270    5.7144   19.8610 O   0  0  0  0  0  0  0  0  0  0  0  0
    8.3351    5.5235   15.4478 C   0  0  0  0  0  0  0  0  0  0  0  0
    8.7700    7.8434   21.3915 C   0  0  0  0  0  0  0  0  0  0  0  0
   11.7856    6.8851   19.2401 C   0  0  0  0  0  0  0  0  0  0  0  0
   10.5281    7.4276   19.5649 C   0  0  0  0  0  0  0  0  0  0  0  0
   10.0256    7.2907   20.8484 C   0  0  0  0  0  0  0  0  0  0  0  0
    9.3113    5.3049   14.4911 C   0  0  0  0  0  0  0  0  0  0  0  0
    9.4607    7.5646   16.0139 C   0  0  0  0  0  0  0  0  0  0  0  0
   10.4192    7.3157   15.0955 C   0  0  0  0  0  0  0  0  0  0  0  0
   10.2489    6.4227   23.0218 N   0  0  0  0  0  0  0  0  0  0  0  0
    7.2472    8.0746   23.5050 C   0  0  0  0  0  0  0  0  0  0  0  0
    9.2051    6.9101   23.4604 C   0  0  0  0  0  0  0  0  0  0  0  0
   11.9646    6.0299   21.4251 C   0  0  0  0  0  0  0  0  0  0  0  0
  1  5  1  0
  1 13  1  0
  2 20  2  0
  2 28  1  0
  2 29  1  0
  3 19  4  0
  3 25  4  0
  4 23  4  0
  4 27  1  0
  4 30  4  0
  5 17  1  0
  6  8  1  0
  6 29  1  0
  7 24  4  0
  7 26  4  0
  8 28  1  0
  9 13  2  0
 10 18  1  0
 10 21  4  0
 10 30  4  0
 11 17  2  0
 12 18  1  0
 13 15  1  0
 14 24  1  0
 15 25  1  0
 16 28  2  0
 17 20  1  0
 19 24  4  0
 20 23  1  0
 21 22  4  0
 22 23  4  0
 25 26  4  0
 27 29  2  0
M  END
$$$$

 Created by Python create_sdf_string function

 30 33  0  0  0  0  0  0  0  0999 V2000
    8.3036    9.8571   18.4133 C   0  0  0  0  0  0  0  0  0  0  0  0
    8.3694    7.6612   22.6703 C   0  0  0  0  0  0  0  0  0  0  0  0
    8.4143    6.6863   16.2273 C   0  0  0  0  0  0  0  0  0  0  0  0
   10.7581    6.5674   21.7636 C   0  0  0  0  0  0  0  0  0  0  0  0
    8.4452    8.7960   19.2958 O   0  0  0  0  0  0  0  0  0  0  0  0
    8.7122    6.7842   24.8569 C   0  0  0  0  0  0  0  0  0  0  0  0
   10.3400    6.1726   14.3081 C   0  0  0  0  0  0  0  0  0  0  0  0
    7.4297    7.5873   24.8962 C   0  0  0  0  0  0  0  0  0  0  0  0
    8.1566   10.0536   16.0516 O   0  0  0  0  0  0  0  0  0  0  0  0
   12.4989    6.2074   20.1776 C   0  0  0  0  0  0  0  0  0  0  0  0
    6.9192    9.1053   20.9073 O   0  0  0  0  0  0  0  0  0  0  0  0
   14.3979    6.0729   18.7784 C   0  0  0  0  0  0  0  0  0  0  0  0
    8.6811    9.5354   16.9998 C   0  0  0  0  0  0  0  0  0  0  0  0
    9.2512    4.2713   13.7653 O   0  0  0  0  0  0  0  0  0  0  0  0
    9.6495    8.6317   16.8332 N   0  0  0  0  0  0  0  0  0  0  0  0
    6.2934    8.6988   23.1988 O   0  0  0  0  0  0  0  0  0  0  0  0
    7.9806    8.6543   20.5437 C   0  0  0  0  0  0  0  0  0  0  0  0
   13.7270    5.7144   19.8610 O   0  0  0  0  0  0  0  0  0  0  0  0
    8.3351    5.5235   15.4478 C   0  0  0  0  0  0  0  0  0  0  0  0
    8.7700    7.8434   21.3915 C   0  0  0  0  0  0  0  0  0  0  0  0
   11.7856    6.8851   19.2401 C   0  0  0  0  0  0  0  0  0  0  0  0
   10.5281    7.4276   19.5649 C   0  0  0  0  0  0  0  0  0  0  0  0
   10.0256    7.2907   20.8484 C   0  0  0  0  0  0  0  0  0  0  0  0
    9.3113    5.3049   14.4911 C   0  0  0  0  0  0  0  0  0  0  0  0
    9.4607    7.5646   16.0139 C   0  0  0  0  0  0  0  0  0  0  0  0
   10.4192    7.3157   15.0955 C   0  0  0  0  0  0  0  0  0  0  0  0
   10.2489    6.4227   23.0218 N   0  0  0  0  0  0  0  0  0  0  0  0
    7.2472    8.0746   23.5050 C   0  0  0  0  0  0  0  0  0  0  0  0
    9.2051    6.9101   23.4604 C   0  0  0  0  0  0  0  0  0  0  0  0
   11.9646    6.0299   21.4251 C   0  0  0  0  0  0  0  0  0  0  0  0
  1  5  1  0
  1 13  1  0
  2 20  2  0
  2 28  1  0
  2 29  1  0
  3 19  4  0
  3 25  4  0
  4 23  4  0
  4 27  1  0
  4 30  4  0
  5 17  1  0
  6  8  1  0
  6 29  1  0
  7 24  4  0
  7 26  4  0
  8 28  1  0
  9 13  2  0
 10 18  1  0
 10 21  4  0
 10 30  4  0
 11 17  2  0
 12 18  1  0
 13 15  1  0
 14 24  1  0
 15 25  1  0
 16 28  2  0
 17 20  1  0
 19 24  4  0
 20 23  1  0
 21 22  4  0
 22 23  4  0
 25 26  4  0
 27 29  2  0
M  END
$$$$

 Created by Python create_sdf_string function

 30 33  0  0  0  0  0  0  0  0999 V2000
    8.3036    9.8571   18.4133 C   0  0  0  0  0  0  0  0  0  0  0  0
    8.3694    7.6612   22.6703 C   0  0  0  0  0  0  0  0  0  0  0  0
    8.4143    6.6863   16.2273 C   0  0  0  0  0  0  0  0  0  0  0  0
   10.7581    6.5674   21.7636 C   0  0  0  0  0  0  0  0  0  0  0  0
    8.4452    8.7960   19.2958 O   0  0  0  0  0  0  0  0  0  0  0  0
    8.7122    6.7842   24.8569 C   0  0  0  0  0  0  0  0  0  0  0  0
   10.3400    6.1726   14.3081 C   0  0  0  0  0  0  0  0  0  0  0  0
    7.4297    7.5873   24.8962 C   0  0  0  0  0  0  0  0  0  0  0  0
    8.1566   10.0536   16.0516 O   0  0  0  0  0  0  0  0  0  0  0  0
   12.4989    6.2074   20.1776 C   0  0  0  0  0  0  0  0  0  0  0  0
    6.9192    9.1053   20.9073 O   0  0  0  0  0  0  0  0  0  0  0  0
   14.3979    6.0729   18.7784 C   0  0  0  0  0  0  0  0  0  0  0  0
    8.6811    9.5354   16.9998 C   0  0  0  0  0  0  0  0  0  0  0  0
    9.2512    4.2713   13.7653 O   0  0  0  0  0  0  0  0  0  0  0  0
    9.6495    8.6317   16.8332 N   0  0  0  0  0  0  0  0  0  0  0  0
    6.2934    8.6988   23.1988 O   0  0  0  0  0  0  0  0  0  0  0  0
    7.9806    8.6543   20.5437 C   0  0  0  0  0  0  0  0  0  0  0  0
   13.7270    5.7144   19.8610 O   0  0  0  0  0  0  0  0  0  0  0  0
    8.3351    5.5235   15.4478 C   0  0  0  0  0  0  0  0  0  0  0  0
    8.7700    7.8434   21.3915 C   0  0  0  0  0  0  0  0  0  0  0  0
   11.7856    6.8851   19.2401 C   0  0  0  0  0  0  0  0  0  0  0  0
   10.5281    7.4276   19.5649 C   0  0  0  0  0  0  0  0  0  0  0  0
   10.0256    7.2907   20.8484 C   0  0  0  0  0  0  0  0  0  0  0  0
    9.3113    5.3049   14.4911 C   0  0  0  0  0  0  0  0  0  0  0  0
    9.4607    7.5646   16.0139 C   0  0  0  0  0  0  0  0  0  0  0  0
   10.4192    7.3157   15.0955 C   0  0  0  0  0  0  0  0  0  0  0  0
   10.2489    6.4227   23.0218 N   0  0  0  0  0  0  0  0  0  0  0  0
    7.2472    8.0746   23.5050 C   0  0  0  0  0  0  0  0  0  0  0  0
    9.2051    6.9101   23.4604 C   0  0  0  0  0  0  0  0  0  0  0  0
   11.9646    6.0299   21.4251 C   0  0  0  0  0  0  0  0  0  0  0  0
  1  5  1  0
  1 13  1  0
  2 20  2  0
  2 28  1  0
  2 29  1  0
  3 19  4  0
  3 25  4  0
  4 23  4  0
  4 27  1  0
  4 30  4  0
  5 17  1  0
  6  8  1  0
  6 29  1  0
  7 24  4  0
  7 26  4  0
  8 28  1  0
  9 13  2  0
 10 18  1  0
 10 21  4  0
 10 30  4  0
 11 17  2  0
 12 18  1  0
 13 15  1  0
 14 24  1  0
 15 25  1  0
 16 28  2  0
 17 20  1  0
 19 24  4  0
 20 23  1  0
 21 22  4  0
 22 23  4  0
 25 26  4  0
 27 29  2  0
M  END
$$$$

 Created by Python create_sdf_string function

 30 33  0  0  0  0  0  0  0  0999 V2000
    8.3036    9.8571   18.4133 C   0  0  0  0  0  0  0  0  0  0  0  0
    8.3694    7.6612   22.6703 C   0  0  0  0  0  0  0  0  0  0  0  0
    8.4143    6.6863   16.2273 C   0  0  0  0  0  0  0  0  0  0  0  0
   10.7581    6.5674   21.7636 C   0  0  0  0  0  0  0  0  0  0  0  0
    8.4452    8.7960   19.2958 O   0  0  0  0  0  0  0  0  0  0  0  0
    8.7122    6.7842   24.8569 C   0  0  0  0  0  0  0  0  0  0  0  0
   10.3400    6.1726   14.3081 C   0  0  0  0  0  0  0  0  0  0  0  0
    7.4297    7.5873   24.8962 C   0  0  0  0  0  0  0  0  0  0  0  0
    8.1566   10.0536   16.0516 O   0  0  0  0  0  0  0  0  0  0  0  0
   12.4989    6.2074   20.1776 C   0  0  0  0  0  0  0  0  0  0  0  0
    6.9192    9.1053   20.9073 O   0  0  0  0  0  0  0  0  0  0  0  0
   14.3979    6.0729   18.7784 C   0  0  0  0  0  0  0  0  0  0  0  0
    8.6811    9.5354   16.9998 C   0  0  0  0  0  0  0  0  0  0  0  0
    9.2512    4.2713   13.7653 O   0  0  0  0  0  0  0  0  0  0  0  0
    9.6495    8.6317   16.8332 N   0  0  0  0  0  0  0  0  0  0  0  0
    6.2934    8.6988   23.1988 O   0  0  0  0  0  0  0  0  0  0  0  0
    7.9806    8.6543   20.5437 C   0  0  0  0  0  0  0  0  0  0  0  0
   13.7270    5.7144   19.8610 O   0  0  0  0  0  0  0  0  0  0  0  0
    8.3351    5.5235   15.4478 C   0  0  0  0  0  0  0  0  0  0  0  0
    8.7700    7.8434   21.3915 C   0  0  0  0  0  0  0  0  0  0  0  0
   11.7856    6.8851   19.2401 C   0  0  0  0  0  0  0  0  0  0  0  0
   10.5281    7.4276   19.5649 C   0  0  0  0  0  0  0  0  0  0  0  0
   10.0256    7.2907   20.8484 C   0  0  0  0  0  0  0  0  0  0  0  0
    9.3113    5.3049   14.4911 C   0  0  0  0  0  0  0  0  0  0  0  0
    9.4607    7.5646   16.0139 C   0  0  0  0  0  0  0  0  0  0  0  0
   10.4192    7.3157   15.0955 C   0  0  0  0  0  0  0  0  0  0  0  0
   10.2489    6.4227   23.0218 N   0  0  0  0  0  0  0  0  0  0  0  0
    7.2472    8.0746   23.5050 C   0  0  0  0  0  0  0  0  0  0  0  0
    9.2051    6.9101   23.4604 C   0  0  0  0  0  0  0  0  0  0  0  0
   11.9646    6.0299   21.4251 C   0  0  0  0  0  0  0  0  0  0  0  0
  1  5  1  0
  1 13  1  0
  2 20  2  0
  2 28  1  0
  2 29  1  0
  3 19  4  0
  3 25  4  0
  4 23  4  0
  4 27  1  0
  4 30  4  0
  5 17  1  0
  6  8  1  0
  6 29  1  0
  7 24  4  0
  7 26  4  0
  8 28  1  0
  9 13  2  0
 10 18  1  0
 10 21  4  0
 10 30  4  0
 11 17  2  0
 12 18  1  0
 13 15  1  0
 14 24  1  0
 15 25  1  0
 16 28  2  0
 17 20  1  0
 19 24  4  0
 20 23  1  0
 21 22  4  0
 22 23  4  0
 25 26  4  0
 27 29  2  0
M  END
$$$$

 Created by Python create_sdf_string function

 30 33  0  0  0  0  0  0  0  0999 V2000
    8.3036    9.8571   18.4133 C   0  0  0  0  0  0  0  0  0  0  0  0
    8.3694    7.6612   22.6703 C   0  0  0  0  0  0  0  0  0  0  0  0
    8.4143    6.6863   16.2273 C   0  0  0  0  0  0  0  0  0  0  0  0
   10.7581    6.5674   21.7636 C   0  0  0  0  0  0  0  0  0  0  0  0
    8.4452    8.7960   19.2958 O   0  0  0  0  0  0  0  0  0  0  0  0
    8.7122    6.7842   24.8569 C   0  0  0  0  0  0  0  0  0  0  0  0
   10.3400    6.1726   14.3081 C   0  0  0  0  0  0  0  0  0  0  0  0
    7.4297    7.5873   24.8962 C   0  0  0  0  0  0  0  0  0  0  0  0
    8.1566   10.0536   16.0516 O   0  0  0  0  0  0  0  0  0  0  0  0
   12.4989    6.2074   20.1776 C   0  0  0  0  0  0  0  0  0  0  0  0
    6.9192    9.1053   20.9073 O   0  0  0  0  0  0  0  0  0  0  0  0
   14.3979    6.0729   18.7784 C   0  0  0  0  0  0  0  0  0  0  0  0
    8.6811    9.5354   16.9998 C   0  0  0  0  0  0  0  0  0  0  0  0
    9.2512    4.2713   13.7653 O   0  0  0  0  0  0  0  0  0  0  0  0
    9.6495    8.6317   16.8332 N   0  0  0  0  0  0  0  0  0  0  0  0
    6.2934    8.6988   23.1988 O   0  0  0  0  0  0  0  0  0  0  0  0
    7.9806    8.6543   20.5437 C   0  0  0  0  0  0  0  0  0  0  0  0
   13.7270    5.7144   19.8610 O   0  0  0  0  0  0  0  0  0  0  0  0
    8.3351    5.5235   15.4478 C   0  0  0  0  0  0  0  0  0  0  0  0
    8.7700    7.8434   21.3915 C   0  0  0  0  0  0  0  0  0  0  0  0
   11.7856    6.8851   19.2401 C   0  0  0  0  0  0  0  0  0  0  0  0
   10.5281    7.4276   19.5649 C   0  0  0  0  0  0  0  0  0  0  0  0
   10.0256    7.2907   20.8484 C   0  0  0  0  0  0  0  0  0  0  0  0
    9.3113    5.3049   14.4911 C   0  0  0  0  0  0  0  0  0  0  0  0
    9.4607    7.5646   16.0139 C   0  0  0  0  0  0  0  0  0  0  0  0
   10.4192    7.3157   15.0955 C   0  0  0  0  0  0  0  0  0  0  0  0
   10.2489    6.4227   23.0218 N   0  0  0  0  0  0  0  0  0  0  0  0
    7.2472    8.0746   23.5050 C   0  0  0  0  0  0  0  0  0  0  0  0
    9.2051    6.9101   23.4604 C   0  0  0  0  0  0  0  0  0  0  0  0
   11.9646    6.0299   21.4251 C   0  0  0  0  0  0  0  0  0  0  0  0
  1  5  1  0
  1 13  1  0
  2 20  2  0
  2 28  1  0
  2 29  1  0
  3 19  4  0
  3 25  4  0
  4 23  4  0
  4 27  1  0
  4 30  4  0
  5 17  1  0
  6  8  1  0
  6 29  1  0
  7 24  4  0
  7 26  4  0
  8 28  1  0
  9 13  2  0
 10 18  1  0
 10 21  4  0
 10 30  4  0
 11 17  2  0
 12 18  1  0
 13 15  1  0
 14 24  1  0
 15 25  1  0
 16 28  2  0
 17 20  1  0
 19 24  4  0
 20 23  1  0
 21 22  4  0
 22 23  4  0
 25 26  4  0
 27 29  2  0
M  END
$$$$

 Created by Python create_sdf_string function

 30 33  0  0  0  0  0  0  0  0999 V2000
    8.3036    9.8571   18.4133 C   0  0  0  0  0  0  0  0  0  0  0  0
    8.3694    7.6612   22.6703 C   0  0  0  0  0  0  0  0  0  0  0  0
    8.4143    6.6863   16.2273 C   0  0  0  0  0  0  0  0  0  0  0  0
   10.7581    6.5674   21.7636 C   0  0  0  0  0  0  0  0  0  0  0  0
    8.4452    8.7960   19.2958 O   0  0  0  0  0  0  0  0  0  0  0  0
    8.7122    6.7842   24.8569 C   0  0  0  0  0  0  0  0  0  0  0  0
   10.3400    6.1726   14.3081 C   0  0  0  0  0  0  0  0  0  0  0  0
    7.4297    7.5873   24.8962 C   0  0  0  0  0  0  0  0  0  0  0  0
    8.1566   10.0536   16.0516 O   0  0  0  0  0  0  0  0  0  0  0  0
   12.4989    6.2074   20.1776 C   0  0  0  0  0  0  0  0  0  0  0  0
    6.9192    9.1053   20.9073 O   0  0  0  0  0  0  0  0  0  0  0  0
   14.3979    6.0729   18.7784 C   0  0  0  0  0  0  0  0  0  0  0  0
    8.6811    9.5354   16.9998 C   0  0  0  0  0  0  0  0  0  0  0  0
    9.2512    4.2713   13.7653 O   0  0  0  0  0  0  0  0  0  0  0  0
    9.6495    8.6317   16.8332 N   0  0  0  0  0  0  0  0  0  0  0  0
    6.2934    8.6988   23.1988 O   0  0  0  0  0  0  0  0  0  0  0  0
    7.9806    8.6543   20.5437 C   0  0  0  0  0  0  0  0  0  0  0  0
   13.7270    5.7144   19.8610 O   0  0  0  0  0  0  0  0  0  0  0  0
    8.3351    5.5235   15.4478 C   0  0  0  0  0  0  0  0  0  0  0  0
    8.7700    7.8434   21.3915 C   0  0  0  0  0  0  0  0  0  0  0  0
   11.7856    6.8851   19.2401 C   0  0  0  0  0  0  0  0  0  0  0  0
   10.5281    7.4276   19.5649 C   0  0  0  0  0  0  0  0  0  0  0  0
   10.0256    7.2907   20.8484 C   0  0  0  0  0  0  0  0  0  0  0  0
    9.3113    5.3049   14.4911 C   0  0  0  0  0  0  0  0  0  0  0  0
    9.4607    7.5646   16.0139 C   0  0  0  0  0  0  0  0  0  0  0  0
   10.4192    7.3157   15.0955 C   0  0  0  0  0  0  0  0  0  0  0  0
   10.2489    6.4227   23.0218 N   0  0  0  0  0  0  0  0  0  0  0  0
    7.2472    8.0746   23.5050 C   0  0  0  0  0  0  0  0  0  0  0  0
    9.2051    6.9101   23.4604 C   0  0  0  0  0  0  0  0  0  0  0  0
   11.9646    6.0299   21.4251 C   0  0  0  0  0  0  0  0  0  0  0  0
  1  5  1  0
  1 13  1  0
  2 20  2  0
  2 28  1  0
  2 29  1  0
  3 19  4  0
  3 25  4  0
  4 23  4  0
  4 27  1  0
  4 30  4  0
  5 17  1  0
  6  8  1  0
  6 29  1  0
  7 24  4  0
  7 26  4  0
  8 28  1  0
  9 13  2  0
 10 18  1  0
 10 21  4  0
 10 30  4  0
 11 17  2  0
 12 18  1  0
 13 15  1  0
 14 24  1  0
 15 25  1  0
 16 28  2  0
 17 20  1  0
 19 24  4  0
 20 23  1  0
 21 22  4  0
 22 23  4  0
 25 26  4  0
 27 29  2  0
M  END
$$$$

 Created by Python create_sdf_string function

 30 33  0  0  0  0  0  0  0  0999 V2000
    8.3036    9.8571   18.4133 C   0  0  0  0  0  0  0  0  0  0  0  0
    8.3694    7.6612   22.6703 C   0  0  0  0  0  0  0  0  0  0  0  0
    8.4143    6.6863   16.2273 C   0  0  0  0  0  0  0  0  0  0  0  0
   10.7581    6.5674   21.7636 C   0  0  0  0  0  0  0  0  0  0  0  0
    8.4452    8.7960   19.2958 O   0  0  0  0  0  0  0  0  0  0  0  0
    8.7122    6.7842   24.8569 C   0  0  0  0  0  0  0  0  0  0  0  0
   10.3400    6.1726   14.3081 C   0  0  0  0  0  0  0  0  0  0  0  0
    7.4297    7.5873   24.8962 C   0  0  0  0  0  0  0  0  0  0  0  0
    8.1566   10.0536   16.0516 O   0  0  0  0  0  0  0  0  0  0  0  0
   12.4989    6.2074   20.1776 C   0  0  0  0  0  0  0  0  0  0  0  0
    6.9192    9.1053   20.9073 O   0  0  0  0  0  0  0  0  0  0  0  0
   14.3979    6.0729   18.7784 C   0  0  0  0  0  0  0  0  0  0  0  0
    8.6811    9.5354   16.9998 C   0  0  0  0  0  0  0  0  0  0  0  0
    9.2512    4.2713   13.7653 O   0  0  0  0  0  0  0  0  0  0  0  0
    9.6495    8.6317   16.8332 N   0  0  0  0  0  0  0  0  0  0  0  0
    6.2934    8.6988   23.1988 O   0  0  0  0  0  0  0  0  0  0  0  0
    7.9806    8.6543   20.5437 C   0  0  0  0  0  0  0  0  0  0  0  0
   13.7270    5.7144   19.8610 O   0  0  0  0  0  0  0  0  0  0  0  0
    8.3351    5.5235   15.4478 C   0  0  0  0  0  0  0  0  0  0  0  0
    8.7700    7.8434   21.3915 C   0  0  0  0  0  0  0  0  0  0  0  0
   11.7856    6.8851   19.2401 C   0  0  0  0  0  0  0  0  0  0  0  0
   10.5281    7.4276   19.5649 C   0  0  0  0  0  0  0  0  0  0  0  0
   10.0256    7.2907   20.8484 C   0  0  0  0  0  0  0  0  0  0  0  0
    9.3113    5.3049   14.4911 C   0  0  0  0  0  0  0  0  0  0  0  0
    9.4607    7.5646   16.0139 C   0  0  0  0  0  0  0  0  0  0  0  0
   10.4192    7.3157   15.0955 C   0  0  0  0  0  0  0  0  0  0  0  0
   10.2489    6.4227   23.0218 N   0  0  0  0  0  0  0  0  0  0  0  0
    7.2472    8.0746   23.5050 C   0  0  0  0  0  0  0  0  0  0  0  0
    9.2051    6.9101   23.4604 C   0  0  0  0  0  0  0  0  0  0  0  0
   11.9646    6.0299   21.4251 C   0  0  0  0  0  0  0  0  0  0  0  0
  1  5  1  0
  1 13  1  0
  2 20  2  0
  2 28  1  0
  2 29  1  0
  3 19  4  0
  3 25  4  0
  4 23  4  0
  4 27  1  0
  4 30  4  0
  5 17  1  0
  6  8  1  0
  6 29  1  0
  7 24  4  0
  7 26  4  0
  8 28  1  0
  9 13  2  0
 10 18  1  0
 10 21  4  0
 10 30  4  0
 11 17  2  0
 12 18  1  0
 13 15  1  0
 14 24  1  0
 15 25  1  0
 16 28  2  0
 17 20  1  0
 19 24  4  0
 20 23  1  0
 21 22  4  0
 22 23  4  0
 25 26  4  0
 27 29  2  0
M  END
$$$$

 Created by Python create_sdf_string function

 30 33  0  0  0  0  0  0  0  0999 V2000
    8.3036    9.8571   18.4133 C   0  0  0  0  0  0  0  0  0  0  0  0
    8.3694    7.6612   22.6703 C   0  0  0  0  0  0  0  0  0  0  0  0
    8.4143    6.6863   16.2273 C   0  0  0  0  0  0  0  0  0  0  0  0
   10.7581    6.5674   21.7636 C   0  0  0  0  0  0  0  0  0  0  0  0
    8.4452    8.7960   19.2958 O   0  0  0  0  0  0  0  0  0  0  0  0
    8.7122    6.7842   24.8569 C   0  0  0  0  0  0  0  0  0  0  0  0
   10.3400    6.1726   14.3081 C   0  0  0  0  0  0  0  0  0  0  0  0
    7.4297    7.5873   24.8962 C   0  0  0  0  0  0  0  0  0  0  0  0
    8.1566   10.0536   16.0516 O   0  0  0  0  0  0  0  0  0  0  0  0
   12.4989    6.2074   20.1776 C   0  0  0  0  0  0  0  0  0  0  0  0
    6.9192    9.1053   20.9073 O   0  0  0  0  0  0  0  0  0  0  0  0
   14.3979    6.0729   18.7784 C   0  0  0  0  0  0  0  0  0  0  0  0
    8.6811    9.5354   16.9998 C   0  0  0  0  0  0  0  0  0  0  0  0
    9.2512    4.2713   13.7653 O   0  0  0  0  0  0  0  0  0  0  0  0
    9.6495    8.6317   16.8332 N   0  0  0  0  0  0  0  0  0  0  0  0
    6.2934    8.6988   23.1988 O   0  0  0  0  0  0  0  0  0  0  0  0
    7.9806    8.6543   20.5437 C   0  0  0  0  0  0  0  0  0  0  0  0
   13.7270    5.7144   19.8610 O   0  0  0  0  0  0  0  0  0  0  0  0
    8.3351    5.5235   15.4478 C   0  0  0  0  0  0  0  0  0  0  0  0
    8.7700    7.8434   21.3915 C   0  0  0  0  0  0  0  0  0  0  0  0
   11.7856    6.8851   19.2401 C   0  0  0  0  0  0  0  0  0  0  0  0
   10.5281    7.4276   19.5649 C   0  0  0  0  0  0  0  0  0  0  0  0
   10.0256    7.2907   20.8484 C   0  0  0  0  0  0  0  0  0  0  0  0
    9.3113    5.3049   14.4911 C   0  0  0  0  0  0  0  0  0  0  0  0
    9.4607    7.5646   16.0139 C   0  0  0  0  0  0  0  0  0  0  0  0
   10.4192    7.3157   15.0955 C   0  0  0  0  0  0  0  0  0  0  0  0
   10.2489    6.4227   23.0218 N   0  0  0  0  0  0  0  0  0  0  0  0
    7.2472    8.0746   23.5050 C   0  0  0  0  0  0  0  0  0  0  0  0
    9.2051    6.9101   23.4604 C   0  0  0  0  0  0  0  0  0  0  0  0
   11.9646    6.0299   21.4251 C   0  0  0  0  0  0  0  0  0  0  0  0
  1  5  1  0
  1 13  1  0
  2 20  2  0
  2 28  1  0
  2 29  1  0
  3 19  4  0
  3 25  4  0
  4 23  4  0
  4 27  1  0
  4 30  4  0
  5 17  1  0
  6  8  1  0
  6 29  1  0
  7 24  4  0
  7 26  4  0
  8 28  1  0
  9 13  2  0
 10 18  1  0
 10 21  4  0
 10 30  4  0
 11 17  2  0
 12 18  1  0
 13 15  1  0
 14 24  1  0
 15 25  1  0
 16 28  2  0
 17 20  1  0
 19 24  4  0
 20 23  1  0
 21 22  4  0
 22 23  4  0
 25 26  4  0
 27 29  2  0
M  END
$$$$

 Created by Python create_sdf_string function

 30 33  0  0  0  0  0  0  0  0999 V2000
    8.3036    9.8571   18.4133 C   0  0  0  0  0  0  0  0  0  0  0  0
    8.3694    7.6612   22.6703 C   0  0  0  0  0  0  0  0  0  0  0  0
    8.4143    6.6863   16.2273 C   0  0  0  0  0  0  0  0  0  0  0  0
   10.7581    6.5674   21.7636 C   0  0  0  0  0  0  0  0  0  0  0  0
    8.4452    8.7960   19.2958 O   0  0  0  0  0  0  0  0  0  0  0  0
    8.7122    6.7842   24.8569 C   0  0  0  0  0  0  0  0  0  0  0  0
   10.3400    6.1726   14.3081 C   0  0  0  0  0  0  0  0  0  0  0  0
    7.4297    7.5873   24.8962 C   0  0  0  0  0  0  0  0  0  0  0  0
    8.1566   10.0536   16.0516 O   0  0  0  0  0  0  0  0  0  0  0  0
   12.4989    6.2074   20.1776 C   0  0  0  0  0  0  0  0  0  0  0  0
    6.9192    9.1053   20.9073 O   0  0  0  0  0  0  0  0  0  0  0  0
   14.3979    6.0729   18.7784 C   0  0  0  0  0  0  0  0  0  0  0  0
    8.6811    9.5354   16.9998 C   0  0  0  0  0  0  0  0  0  0  0  0
    9.2512    4.2713   13.7653 O   0  0  0  0  0  0  0  0  0  0  0  0
    9.6495    8.6317   16.8332 N   0  0  0  0  0  0  0  0  0  0  0  0
    6.2934    8.6988   23.1988 O   0  0  0  0  0  0  0  0  0  0  0  0
    7.9806    8.6543   20.5437 C   0  0  0  0  0  0  0  0  0  0  0  0
   13.7270    5.7144   19.8610 O   0  0  0  0  0  0  0  0  0  0  0  0
    8.3351    5.5235   15.4478 C   0  0  0  0  0  0  0  0  0  0  0  0
    8.7700    7.8434   21.3915 C   0  0  0  0  0  0  0  0  0  0  0  0
   11.7856    6.8851   19.2401 C   0  0  0  0  0  0  0  0  0  0  0  0
   10.5281    7.4276   19.5649 C   0  0  0  0  0  0  0  0  0  0  0  0
   10.0256    7.2907   20.8484 C   0  0  0  0  0  0  0  0  0  0  0  0
    9.3113    5.3049   14.4911 C   0  0  0  0  0  0  0  0  0  0  0  0
    9.4607    7.5646   16.0139 C   0  0  0  0  0  0  0  0  0  0  0  0
   10.4192    7.3157   15.0955 C   0  0  0  0  0  0  0  0  0  0  0  0
   10.2489    6.4227   23.0218 N   0  0  0  0  0  0  0  0  0  0  0  0
    7.2472    8.0746   23.5050 C   0  0  0  0  0  0  0  0  0  0  0  0
    9.2051    6.9101   23.4604 C   0  0  0  0  0  0  0  0  0  0  0  0
   11.9646    6.0299   21.4251 C   0  0  0  0  0  0  0  0  0  0  0  0
  1  5  1  0
  1 13  1  0
  2 20  2  0
  2 28  1  0
  2 29  1  0
  3 19  4  0
  3 25  4  0
  4 23  4  0
  4 27  1  0
  4 30  4  0
  5 17  1  0
  6  8  1  0
  6 29  1  0
  7 24  4  0
  7 26  4  0
  8 28  1  0
  9 13  2  0
 10 18  1  0
 10 21  4  0
 10 30  4  0
 11 17  2  0
 12 18  1  0
 13 15  1  0
 14 24  1  0
 15 25  1  0
 16 28  2  0
 17 20  1  0
 19 24  4  0
 20 23  1  0
 21 22  4  0
 22 23  4  0
 25 26  4  0
 27 29  2  0
M  END
$$$$

 Created by Python create_sdf_string function

 30 33  0  0  0  0  0  0  0  0999 V2000
    8.3036    9.8571   18.4133 C   0  0  0  0  0  0  0  0  0  0  0  0
    8.3694    7.6612   22.6703 C   0  0  0  0  0  0  0  0  0  0  0  0
    8.4143    6.6863   16.2273 C   0  0  0  0  0  0  0  0  0  0  0  0
   10.7581    6.5674   21.7636 C   0  0  0  0  0  0  0  0  0  0  0  0
    8.4452    8.7960   19.2958 O   0  0  0  0  0  0  0  0  0  0  0  0
    8.7122    6.7842   24.8569 C   0  0  0  0  0  0  0  0  0  0  0  0
   10.3400    6.1726   14.3081 C   0  0  0  0  0  0  0  0  0  0  0  0
    7.4297    7.5873   24.8962 C   0  0  0  0  0  0  0  0  0  0  0  0
    8.1566   10.0536   16.0516 O   0  0  0  0  0  0  0  0  0  0  0  0
   12.4989    6.2074   20.1776 C   0  0  0  0  0  0  0  0  0  0  0  0
    6.9192    9.1053   20.9073 O   0  0  0  0  0  0  0  0  0  0  0  0
   14.3979    6.0729   18.7784 C   0  0  0  0  0  0  0  0  0  0  0  0
    8.6811    9.5354   16.9998 C   0  0  0  0  0  0  0  0  0  0  0  0
    9.2512    4.2713   13.7653 O   0  0  0  0  0  0  0  0  0  0  0  0
    9.6495    8.6317   16.8332 N   0  0  0  0  0  0  0  0  0  0  0  0
    6.2934    8.6988   23.1988 O   0  0  0  0  0  0  0  0  0  0  0  0
    7.9806    8.6543   20.5437 C   0  0  0  0  0  0  0  0  0  0  0  0
   13.7270    5.7144   19.8610 O   0  0  0  0  0  0  0  0  0  0  0  0
    8.3351    5.5235   15.4478 C   0  0  0  0  0  0  0  0  0  0  0  0
    8.7700    7.8434   21.3915 C   0  0  0  0  0  0  0  0  0  0  0  0
   11.7856    6.8851   19.2401 C   0  0  0  0  0  0  0  0  0  0  0  0
   10.5281    7.4276   19.5649 C   0  0  0  0  0  0  0  0  0  0  0  0
   10.0256    7.2907   20.8484 C   0  0  0  0  0  0  0  0  0  0  0  0
    9.3113    5.3049   14.4911 C   0  0  0  0  0  0  0  0  0  0  0  0
    9.4607    7.5646   16.0139 C   0  0  0  0  0  0  0  0  0  0  0  0
   10.4192    7.3157   15.0955 C   0  0  0  0  0  0  0  0  0  0  0  0
   10.2489    6.4227   23.0218 N   0  0  0  0  0  0  0  0  0  0  0  0
    7.2472    8.0746   23.5050 C   0  0  0  0  0  0  0  0  0  0  0  0
    9.2051    6.9101   23.4604 C   0  0  0  0  0  0  0  0  0  0  0  0
   11.9646    6.0299   21.4251 C   0  0  0  0  0  0  0  0  0  0  0  0
  1  5  1  0
  1 13  1  0
  2 20  2  0
  2 28  1  0
  2 29  1  0
  3 19  4  0
  3 25  4  0
  4 23  4  0
  4 27  1  0
  4 30  4  0
  5 17  1  0
  6  8  1  0
  6 29  1  0
  7 24  4  0
  7 26  4  0
  8 28  1  0
  9 13  2  0
 10 18  1  0
 10 21  4  0
 10 30  4  0
 11 17  2  0
 12 18  1  0
 13 15  1  0
 14 24  1  0
 15 25  1  0
 16 28  2  0
 17 20  1  0
 19 24  4  0
 20 23  1  0
 21 22  4  0
 22 23  4  0
 25 26  4  0
 27 29  2  0
M  END
$$$$

 Created by Python create_sdf_string function

 30 33  0  0  0  0  0  0  0  0999 V2000
    8.3036    9.8571   18.4133 C   0  0  0  0  0  0  0  0  0  0  0  0
    8.3694    7.6612   22.6703 C   0  0  0  0  0  0  0  0  0  0  0  0
    8.4143    6.6863   16.2273 C   0  0  0  0  0  0  0  0  0  0  0  0
   10.7581    6.5674   21.7636 C   0  0  0  0  0  0  0  0  0  0  0  0
    8.4452    8.7960   19.2958 O   0  0  0  0  0  0  0  0  0  0  0  0
    8.7122    6.7842   24.8569 C   0  0  0  0  0  0  0  0  0  0  0  0
   10.3400    6.1726   14.3081 C   0  0  0  0  0  0  0  0  0  0  0  0
    7.4297    7.5873   24.8962 C   0  0  0  0  0  0  0  0  0  0  0  0
    8.1566   10.0536   16.0516 O   0  0  0  0  0  0  0  0  0  0  0  0
   12.4989    6.2074   20.1776 C   0  0  0  0  0  0  0  0  0  0  0  0
    6.9192    9.1053   20.9073 O   0  0  0  0  0  0  0  0  0  0  0  0
   14.3979    6.0729   18.7784 C   0  0  0  0  0  0  0  0  0  0  0  0
    8.6811    9.5354   16.9998 C   0  0  0  0  0  0  0  0  0  0  0  0
    9.2512    4.2713   13.7653 O   0  0  0  0  0  0  0  0  0  0  0  0
    9.6495    8.6317   16.8332 N   0  0  0  0  0  0  0  0  0  0  0  0
    6.2934    8.6988   23.1988 O   0  0  0  0  0  0  0  0  0  0  0  0
    7.9806    8.6543   20.5437 C   0  0  0  0  0  0  0  0  0  0  0  0
   13.7270    5.7144   19.8610 O   0  0  0  0  0  0  0  0  0  0  0  0
    8.3351    5.5235   15.4478 C   0  0  0  0  0  0  0  0  0  0  0  0
    8.7700    7.8434   21.3915 C   0  0  0  0  0  0  0  0  0  0  0  0
   11.7856    6.8851   19.2401 C   0  0  0  0  0  0  0  0  0  0  0  0
   10.5281    7.4276   19.5649 C   0  0  0  0  0  0  0  0  0  0  0  0
   10.0256    7.2907   20.8484 C   0  0  0  0  0  0  0  0  0  0  0  0
    9.3113    5.3049   14.4911 C   0  0  0  0  0  0  0  0  0  0  0  0
    9.4607    7.5646   16.0139 C   0  0  0  0  0  0  0  0  0  0  0  0
   10.4192    7.3157   15.0955 C   0  0  0  0  0  0  0  0  0  0  0  0
   10.2489    6.4227   23.0218 N   0  0  0  0  0  0  0  0  0  0  0  0
    7.2472    8.0746   23.5050 C   0  0  0  0  0  0  0  0  0  0  0  0
    9.2051    6.9101   23.4604 C   0  0  0  0  0  0  0  0  0  0  0  0
   11.9646    6.0299   21.4251 C   0  0  0  0  0  0  0  0  0  0  0  0
  1  5  1  0
  1 13  1  0
  2 20  2  0
  2 28  1  0
  2 29  1  0
  3 19  4  0
  3 25  4  0
  4 23  4  0
  4 27  1  0
  4 30  4  0
  5 17  1  0
  6  8  1  0
  6 29  1  0
  7 24  4  0
  7 26  4  0
  8 28  1  0
  9 13  2  0
 10 18  1  0
 10 21  4  0
 10 30  4  0
 11 17  2  0
 12 18  1  0
 13 15  1  0
 14 24  1  0
 15 25  1  0
 16 28  2  0
 17 20  1  0
 19 24  4  0
 20 23  1  0
 21 22  4  0
 22 23  4  0
 25 26  4  0
 27 29  2  0
M  END
$$$$

 Created by Python create_sdf_string function

 30 33  0  0  0  0  0  0  0  0999 V2000
    8.3036    9.8571   18.4133 C   0  0  0  0  0  0  0  0  0  0  0  0
    8.3694    7.6612   22.6703 C   0  0  0  0  0  0  0  0  0  0  0  0
    8.4143    6.6863   16.2273 C   0  0  0  0  0  0  0  0  0  0  0  0
   10.7581    6.5674   21.7636 C   0  0  0  0  0  0  0  0  0  0  0  0
    8.4452    8.7960   19.2958 O   0  0  0  0  0  0  0  0  0  0  0  0
    8.7122    6.7842   24.8569 C   0  0  0  0  0  0  0  0  0  0  0  0
   10.3400    6.1726   14.3081 C   0  0  0  0  0  0  0  0  0  0  0  0
    7.4297    7.5873   24.8962 C   0  0  0  0  0  0  0  0  0  0  0  0
    8.1566   10.0536   16.0516 O   0  0  0  0  0  0  0  0  0  0  0  0
   12.4989    6.2074   20.1776 C   0  0  0  0  0  0  0  0  0  0  0  0
    6.9192    9.1053   20.9073 O   0  0  0  0  0  0  0  0  0  0  0  0
   14.3979    6.0729   18.7784 C   0  0  0  0  0  0  0  0  0  0  0  0
    8.6811    9.5354   16.9998 C   0  0  0  0  0  0  0  0  0  0  0  0
    9.2512    4.2713   13.7653 O   0  0  0  0  0  0  0  0  0  0  0  0
    9.6495    8.6317   16.8332 N   0  0  0  0  0  0  0  0  0  0  0  0
    6.2934    8.6988   23.1988 O   0  0  0  0  0  0  0  0  0  0  0  0
    7.9806    8.6543   20.5437 C   0  0  0  0  0  0  0  0  0  0  0  0
   13.7270    5.7144   19.8610 O   0  0  0  0  0  0  0  0  0  0  0  0
    8.3351    5.5235   15.4478 C   0  0  0  0  0  0  0  0  0  0  0  0
    8.7700    7.8434   21.3915 C   0  0  0  0  0  0  0  0  0  0  0  0
   11.7856    6.8851   19.2401 C   0  0  0  0  0  0  0  0  0  0  0  0
   10.5281    7.4276   19.5649 C   0  0  0  0  0  0  0  0  0  0  0  0
   10.0256    7.2907   20.8484 C   0  0  0  0  0  0  0  0  0  0  0  0
    9.3113    5.3049   14.4911 C   0  0  0  0  0  0  0  0  0  0  0  0
    9.4607    7.5646   16.0139 C   0  0  0  0  0  0  0  0  0  0  0  0
   10.4192    7.3157   15.0955 C   0  0  0  0  0  0  0  0  0  0  0  0
   10.2489    6.4227   23.0218 N   0  0  0  0  0  0  0  0  0  0  0  0
    7.2472    8.0746   23.5050 C   0  0  0  0  0  0  0  0  0  0  0  0
    9.2051    6.9101   23.4604 C   0  0  0  0  0  0  0  0  0  0  0  0
   11.9646    6.0299   21.4251 C   0  0  0  0  0  0  0  0  0  0  0  0
  1  5  1  0
  1 13  1  0
  2 20  2  0
  2 28  1  0
  2 29  1  0
  3 19  4  0
  3 25  4  0
  4 23  4  0
  4 27  1  0
  4 30  4  0
  5 17  1  0
  6  8  1  0
  6 29  1  0
  7 24  4  0
  7 26  4  0
  8 28  1  0
  9 13  2  0
 10 18  1  0
 10 21  4  0
 10 30  4  0
 11 17  2  0
 12 18  1  0
 13 15  1  0
 14 24  1  0
 15 25  1  0
 16 28  2  0
 17 20  1  0
 19 24  4  0
 20 23  1  0
 21 22  4  0
 22 23  4  0
 25 26  4  0
 27 29  2  0
M  END
$$$$

 Created by Python create_sdf_string function

 30 33  0  0  0  0  0  0  0  0999 V2000
    8.3036    9.8571   18.4133 C   0  0  0  0  0  0  0  0  0  0  0  0
    8.3694    7.6612   22.6703 C   0  0  0  0  0  0  0  0  0  0  0  0
    8.4143    6.6863   16.2273 C   0  0  0  0  0  0  0  0  0  0  0  0
   10.7581    6.5674   21.7636 C   0  0  0  0  0  0  0  0  0  0  0  0
    8.4452    8.7960   19.2958 O   0  0  0  0  0  0  0  0  0  0  0  0
    8.7122    6.7842   24.8569 C   0  0  0  0  0  0  0  0  0  0  0  0
   10.3400    6.1726   14.3081 C   0  0  0  0  0  0  0  0  0  0  0  0
    7.4297    7.5873   24.8962 C   0  0  0  0  0  0  0  0  0  0  0  0
    8.1566   10.0536   16.0516 O   0  0  0  0  0  0  0  0  0  0  0  0
   12.4989    6.2074   20.1776 C   0  0  0  0  0  0  0  0  0  0  0  0
    6.9192    9.1053   20.9073 O   0  0  0  0  0  0  0  0  0  0  0  0
   14.3979    6.0729   18.7784 C   0  0  0  0  0  0  0  0  0  0  0  0
    8.6811    9.5354   16.9998 C   0  0  0  0  0  0  0  0  0  0  0  0
    9.2512    4.2713   13.7653 O   0  0  0  0  0  0  0  0  0  0  0  0
    9.6495    8.6317   16.8332 N   0  0  0  0  0  0  0  0  0  0  0  0
    6.2934    8.6988   23.1988 O   0  0  0  0  0  0  0  0  0  0  0  0
    7.9806    8.6543   20.5437 C   0  0  0  0  0  0  0  0  0  0  0  0
   13.7270    5.7144   19.8610 O   0  0  0  0  0  0  0  0  0  0  0  0
    8.3351    5.5235   15.4478 C   0  0  0  0  0  0  0  0  0  0  0  0
    8.7700    7.8434   21.3915 C   0  0  0  0  0  0  0  0  0  0  0  0
   11.7856    6.8851   19.2401 C   0  0  0  0  0  0  0  0  0  0  0  0
   10.5281    7.4276   19.5649 C   0  0  0  0  0  0  0  0  0  0  0  0
   10.0256    7.2907   20.8484 C   0  0  0  0  0  0  0  0  0  0  0  0
    9.3113    5.3049   14.4911 C   0  0  0  0  0  0  0  0  0  0  0  0
    9.4607    7.5646   16.0139 C   0  0  0  0  0  0  0  0  0  0  0  0
   10.4192    7.3157   15.0955 C   0  0  0  0  0  0  0  0  0  0  0  0
   10.2489    6.4227   23.0218 N   0  0  0  0  0  0  0  0  0  0  0  0
    7.2472    8.0746   23.5050 C   0  0  0  0  0  0  0  0  0  0  0  0
    9.2051    6.9101   23.4604 C   0  0  0  0  0  0  0  0  0  0  0  0
   11.9646    6.0299   21.4251 C   0  0  0  0  0  0  0  0  0  0  0  0
  1  5  1  0
  1 13  1  0
  2 20  2  0
  2 28  1  0
  2 29  1  0
  3 19  4  0
  3 25  4  0
  4 23  4  0
  4 27  1  0
  4 30  4  0
  5 17  1  0
  6  8  1  0
  6 29  1  0
  7 24  4  0
  7 26  4  0
  8 28  1  0
  9 13  2  0
 10 18  1  0
 10 21  4  0
 10 30  4  0
 11 17  2  0
 12 18  1  0
 13 15  1  0
 14 24  1  0
 15 25  1  0
 16 28  2  0
 17 20  1  0
 19 24  4  0
 20 23  1  0
 21 22  4  0
 22 23  4  0
 25 26  4  0
 27 29  2  0
M  END
$$$$

 Created by Python create_sdf_string function

 30 33  0  0  0  0  0  0  0  0999 V2000
    8.3036    9.8571   18.4133 C   0  0  0  0  0  0  0  0  0  0  0  0
    8.3694    7.6612   22.6703 C   0  0  0  0  0  0  0  0  0  0  0  0
    8.4143    6.6863   16.2273 C   0  0  0  0  0  0  0  0  0  0  0  0
   10.7581    6.5674   21.7636 C   0  0  0  0  0  0  0  0  0  0  0  0
    8.4452    8.7960   19.2958 O   0  0  0  0  0  0  0  0  0  0  0  0
    8.7122    6.7842   24.8569 C   0  0  0  0  0  0  0  0  0  0  0  0
   10.3400    6.1726   14.3081 C   0  0  0  0  0  0  0  0  0  0  0  0
    7.4297    7.5873   24.8962 C   0  0  0  0  0  0  0  0  0  0  0  0
    8.1566   10.0536   16.0516 O   0  0  0  0  0  0  0  0  0  0  0  0
   12.4989    6.2074   20.1776 C   0  0  0  0  0  0  0  0  0  0  0  0
    6.9192    9.1053   20.9073 O   0  0  0  0  0  0  0  0  0  0  0  0
   14.3979    6.0729   18.7784 C   0  0  0  0  0  0  0  0  0  0  0  0
    8.6811    9.5354   16.9998 C   0  0  0  0  0  0  0  0  0  0  0  0
    9.2512    4.2713   13.7653 O   0  0  0  0  0  0  0  0  0  0  0  0
    9.6495    8.6317   16.8332 N   0  0  0  0  0  0  0  0  0  0  0  0
    6.2934    8.6988   23.1988 O   0  0  0  0  0  0  0  0  0  0  0  0
    7.9806    8.6543   20.5437 C   0  0  0  0  0  0  0  0  0  0  0  0
   13.7270    5.7144   19.8610 O   0  0  0  0  0  0  0  0  0  0  0  0
    8.3351    5.5235   15.4478 C   0  0  0  0  0  0  0  0  0  0  0  0
    8.7700    7.8434   21.3915 C   0  0  0  0  0  0  0  0  0  0  0  0
   11.7856    6.8851   19.2401 C   0  0  0  0  0  0  0  0  0  0  0  0
   10.5281    7.4276   19.5649 C   0  0  0  0  0  0  0  0  0  0  0  0
   10.0256    7.2907   20.8484 C   0  0  0  0  0  0  0  0  0  0  0  0
    9.3113    5.3049   14.4911 C   0  0  0  0  0  0  0  0  0  0  0  0
    9.4607    7.5646   16.0139 C   0  0  0  0  0  0  0  0  0  0  0  0
   10.4192    7.3157   15.0955 C   0  0  0  0  0  0  0  0  0  0  0  0
   10.2489    6.4227   23.0218 N   0  0  0  0  0  0  0  0  0  0  0  0
    7.2472    8.0746   23.5050 C   0  0  0  0  0  0  0  0  0  0  0  0
    9.2051    6.9101   23.4604 C   0  0  0  0  0  0  0  0  0  0  0  0
   11.9646    6.0299   21.4251 C   0  0  0  0  0  0  0  0  0  0  0  0
  1  5  1  0
  1 13  1  0
  2 20  2  0
  2 28  1  0
  2 29  1  0
  3 19  4  0
  3 25  4  0
  4 23  4  0
  4 27  1  0
  4 30  4  0
  5 17  1  0
  6  8  1  0
  6 29  1  0
  7 24  4  0
  7 26  4  0
  8 28  1  0
  9 13  2  0
 10 18  1  0
 10 21  4  0
 10 30  4  0
 11 17  2  0
 12 18  1  0
 13 15  1  0
 14 24  1  0
 15 25  1  0
 16 28  2  0
 17 20  1  0
 19 24  4  0
 20 23  1  0
 21 22  4  0
 22 23  4  0
 25 26  4  0
 27 29  2  0
M  END
$$$$

 Created by Python create_sdf_string function

 30 33  0  0  0  0  0  0  0  0999 V2000
    8.3036    9.8571   18.4133 C   0  0  0  0  0  0  0  0  0  0  0  0
    8.3694    7.6612   22.6703 C   0  0  0  0  0  0  0  0  0  0  0  0
    8.4143    6.6863   16.2273 C   0  0  0  0  0  0  0  0  0  0  0  0
   10.7581    6.5674   21.7636 C   0  0  0  0  0  0  0  0  0  0  0  0
    8.4452    8.7960   19.2958 O   0  0  0  0  0  0  0  0  0  0  0  0
    8.7122    6.7842   24.8569 C   0  0  0  0  0  0  0  0  0  0  0  0
   10.3400    6.1726   14.3081 C   0  0  0  0  0  0  0  0  0  0  0  0
    7.4297    7.5873   24.8962 C   0  0  0  0  0  0  0  0  0  0  0  0
    8.1566   10.0536   16.0516 O   0  0  0  0  0  0  0  0  0  0  0  0
   12.4989    6.2074   20.1776 C   0  0  0  0  0  0  0  0  0  0  0  0
    6.9192    9.1053   20.9073 O   0  0  0  0  0  0  0  0  0  0  0  0
   14.3979    6.0729   18.7784 C   0  0  0  0  0  0  0  0  0  0  0  0
    8.6811    9.5354   16.9998 C   0  0  0  0  0  0  0  0  0  0  0  0
    9.2512    4.2713   13.7653 O   0  0  0  0  0  0  0  0  0  0  0  0
    9.6495    8.6317   16.8332 N   0  0  0  0  0  0  0  0  0  0  0  0
    6.2934    8.6988   23.1988 O   0  0  0  0  0  0  0  0  0  0  0  0
    7.9806    8.6543   20.5437 C   0  0  0  0  0  0  0  0  0  0  0  0
   13.7270    5.7144   19.8610 O   0  0  0  0  0  0  0  0  0  0  0  0
    8.3351    5.5235   15.4478 C   0  0  0  0  0  0  0  0  0  0  0  0
    8.7700    7.8434   21.3915 C   0  0  0  0  0  0  0  0  0  0  0  0
   11.7856    6.8851   19.2401 C   0  0  0  0  0  0  0  0  0  0  0  0
   10.5281    7.4276   19.5649 C   0  0  0  0  0  0  0  0  0  0  0  0
   10.0256    7.2907   20.8484 C   0  0  0  0  0  0  0  0  0  0  0  0
    9.3113    5.3049   14.4911 C   0  0  0  0  0  0  0  0  0  0  0  0
    9.4607    7.5646   16.0139 C   0  0  0  0  0  0  0  0  0  0  0  0
   10.4192    7.3157   15.0955 C   0  0  0  0  0  0  0  0  0  0  0  0
   10.2489    6.4227   23.0218 N   0  0  0  0  0  0  0  0  0  0  0  0
    7.2472    8.0746   23.5050 C   0  0  0  0  0  0  0  0  0  0  0  0
    9.2051    6.9101   23.4604 C   0  0  0  0  0  0  0  0  0  0  0  0
   11.9646    6.0299   21.4251 C   0  0  0  0  0  0  0  0  0  0  0  0
  1  5  1  0
  1 13  1  0
  2 20  2  0
  2 28  1  0
  2 29  1  0
  3 19  4  0
  3 25  4  0
  4 23  4  0
  4 27  1  0
  4 30  4  0
  5 17  1  0
  6  8  1  0
  6 29  1  0
  7 24  4  0
  7 26  4  0
  8 28  1  0
  9 13  2  0
 10 18  1  0
 10 21  4  0
 10 30  4  0
 11 17  2  0
 12 18  1  0
 13 15  1  0
 14 24  1  0
 15 25  1  0
 16 28  2  0
 17 20  1  0
 19 24  4  0
 20 23  1  0
 21 22  4  0
 22 23  4  0
 25 26  4  0
 27 29  2  0
M  END
$$$$

 Created by Python create_sdf_string function

 30 33  0  0  0  0  0  0  0  0999 V2000
    8.3036    9.8571   18.4133 C   0  0  0  0  0  0  0  0  0  0  0  0
    8.3694    7.6612   22.6703 C   0  0  0  0  0  0  0  0  0  0  0  0
    8.4143    6.6863   16.2273 C   0  0  0  0  0  0  0  0  0  0  0  0
   10.7581    6.5674   21.7636 C   0  0  0  0  0  0  0  0  0  0  0  0
    8.4452    8.7960   19.2958 O   0  0  0  0  0  0  0  0  0  0  0  0
    8.7122    6.7842   24.8569 C   0  0  0  0  0  0  0  0  0  0  0  0
   10.3400    6.1726   14.3081 C   0  0  0  0  0  0  0  0  0  0  0  0
    7.4297    7.5873   24.8962 C   0  0  0  0  0  0  0  0  0  0  0  0
    8.1566   10.0536   16.0516 O   0  0  0  0  0  0  0  0  0  0  0  0
   12.4989    6.2074   20.1776 C   0  0  0  0  0  0  0  0  0  0  0  0
    6.9192    9.1053   20.9073 O   0  0  0  0  0  0  0  0  0  0  0  0
   14.3979    6.0729   18.7784 C   0  0  0  0  0  0  0  0  0  0  0  0
    8.6811    9.5354   16.9998 C   0  0  0  0  0  0  0  0  0  0  0  0
    9.2512    4.2713   13.7653 O   0  0  0  0  0  0  0  0  0  0  0  0
    9.6495    8.6317   16.8332 N   0  0  0  0  0  0  0  0  0  0  0  0
    6.2934    8.6988   23.1988 O   0  0  0  0  0  0  0  0  0  0  0  0
    7.9806    8.6543   20.5437 C   0  0  0  0  0  0  0  0  0  0  0  0
   13.7270    5.7144   19.8610 O   0  0  0  0  0  0  0  0  0  0  0  0
    8.3351    5.5235   15.4478 C   0  0  0  0  0  0  0  0  0  0  0  0
    8.7700    7.8434   21.3915 C   0  0  0  0  0  0  0  0  0  0  0  0
   11.7856    6.8851   19.2401 C   0  0  0  0  0  0  0  0  0  0  0  0
   10.5281    7.4276   19.5649 C   0  0  0  0  0  0  0  0  0  0  0  0
   10.0256    7.2907   20.8484 C   0  0  0  0  0  0  0  0  0  0  0  0
    9.3113    5.3049   14.4911 C   0  0  0  0  0  0  0  0  0  0  0  0
    9.4607    7.5646   16.0139 C   0  0  0  0  0  0  0  0  0  0  0  0
   10.4192    7.3157   15.0955 C   0  0  0  0  0  0  0  0  0  0  0  0
   10.2489    6.4227   23.0218 N   0  0  0  0  0  0  0  0  0  0  0  0
    7.2472    8.0746   23.5050 C   0  0  0  0  0  0  0  0  0  0  0  0
    9.2051    6.9101   23.4604 C   0  0  0  0  0  0  0  0  0  0  0  0
   11.9646    6.0299   21.4251 C   0  0  0  0  0  0  0  0  0  0  0  0
  1  5  1  0
  1 13  1  0
  2 20  2  0
  2 28  1  0
  2 29  1  0
  3 19  4  0
  3 25  4  0
  4 23  4  0
  4 27  1  0
  4 30  4  0
  5 17  1  0
  6  8  1  0
  6 29  1  0
  7 24  4  0
  7 26  4  0
  8 28  1  0
  9 13  2  0
 10 18  1  0
 10 21  4  0
 10 30  4  0
 11 17  2  0
 12 18  1  0
 13 15  1  0
 14 24  1  0
 15 25  1  0
 16 28  2  0
 17 20  1  0
 19 24  4  0
 20 23  1  0
 21 22  4  0
 22 23  4  0
 25 26  4  0
 27 29  2  0
M  END
$$$$

 Created by Python create_sdf_string function

 30 33  0  0  0  0  0  0  0  0999 V2000
    8.3036    9.8571   18.4133 C   0  0  0  0  0  0  0  0  0  0  0  0
    8.3694    7.6612   22.6703 C   0  0  0  0  0  0  0  0  0  0  0  0
    8.4143    6.6863   16.2273 C   0  0  0  0  0  0  0  0  0  0  0  0
   10.7581    6.5674   21.7636 C   0  0  0  0  0  0  0  0  0  0  0  0
    8.4452    8.7960   19.2958 O   0  0  0  0  0  0  0  0  0  0  0  0
    8.7122    6.7842   24.8569 C   0  0  0  0  0  0  0  0  0  0  0  0
   10.3400    6.1726   14.3081 C   0  0  0  0  0  0  0  0  0  0  0  0
    7.4297    7.5873   24.8962 C   0  0  0  0  0  0  0  0  0  0  0  0
    8.1566   10.0536   16.0516 O   0  0  0  0  0  0  0  0  0  0  0  0
   12.4989    6.2074   20.1776 C   0  0  0  0  0  0  0  0  0  0  0  0
    6.9192    9.1053   20.9073 O   0  0  0  0  0  0  0  0  0  0  0  0
   14.3979    6.0729   18.7784 C   0  0  0  0  0  0  0  0  0  0  0  0
    8.6811    9.5354   16.9998 C   0  0  0  0  0  0  0  0  0  0  0  0
    9.2512    4.2713   13.7653 O   0  0  0  0  0  0  0  0  0  0  0  0
    9.6495    8.6317   16.8332 N   0  0  0  0  0  0  0  0  0  0  0  0
    6.2934    8.6988   23.1988 O   0  0  0  0  0  0  0  0  0  0  0  0
    7.9806    8.6543   20.5437 C   0  0  0  0  0  0  0  0  0  0  0  0
   13.7270    5.7144   19.8610 O   0  0  0  0  0  0  0  0  0  0  0  0
    8.3351    5.5235   15.4478 C   0  0  0  0  0  0  0  0  0  0  0  0
    8.7700    7.8434   21.3915 C   0  0  0  0  0  0  0  0  0  0  0  0
   11.7856    6.8851   19.2401 C   0  0  0  0  0  0  0  0  0  0  0  0
   10.5281    7.4276   19.5649 C   0  0  0  0  0  0  0  0  0  0  0  0
   10.0256    7.2907   20.8484 C   0  0  0  0  0  0  0  0  0  0  0  0
    9.3113    5.3049   14.4911 C   0  0  0  0  0  0  0  0  0  0  0  0
    9.4607    7.5646   16.0139 C   0  0  0  0  0  0  0  0  0  0  0  0
   10.4192    7.3157   15.0955 C   0  0  0  0  0  0  0  0  0  0  0  0
   10.2489    6.4227   23.0218 N   0  0  0  0  0  0  0  0  0  0  0  0
    7.2472    8.0746   23.5050 C   0  0  0  0  0  0  0  0  0  0  0  0
    9.2051    6.9101   23.4604 C   0  0  0  0  0  0  0  0  0  0  0  0
   11.9646    6.0299   21.4251 C   0  0  0  0  0  0  0  0  0  0  0  0
  1  5  1  0
  1 13  1  0
  2 20  2  0
  2 28  1  0
  2 29  1  0
  3 19  4  0
  3 25  4  0
  4 23  4  0
  4 27  1  0
  4 30  4  0
  5 17  1  0
  6  8  1  0
  6 29  1  0
  7 24  4  0
  7 26  4  0
  8 28  1  0
  9 13  2  0
 10 18  1  0
 10 21  4  0
 10 30  4  0
 11 17  2  0
 12 18  1  0
 13 15  1  0
 14 24  1  0
 15 25  1  0
 16 28  2  0
 17 20  1  0
 19 24  4  0
 20 23  1  0
 21 22  4  0
 22 23  4  0
 25 26  4  0
 27 29  2  0
M  END
$$$$

 Created by Python create_sdf_string function

 30 33  0  0  0  0  0  0  0  0999 V2000
    8.3036    9.8571   18.4133 C   0  0  0  0  0  0  0  0  0  0  0  0
    8.3694    7.6612   22.6703 C   0  0  0  0  0  0  0  0  0  0  0  0
    8.4143    6.6863   16.2273 C   0  0  0  0  0  0  0  0  0  0  0  0
   10.7581    6.5674   21.7636 C   0  0  0  0  0  0  0  0  0  0  0  0
    8.4452    8.7960   19.2958 O   0  0  0  0  0  0  0  0  0  0  0  0
    8.7122    6.7842   24.8569 C   0  0  0  0  0  0  0  0  0  0  0  0
   10.3400    6.1726   14.3081 C   0  0  0  0  0  0  0  0  0  0  0  0
    7.4297    7.5873   24.8962 C   0  0  0  0  0  0  0  0  0  0  0  0
    8.1566   10.0536   16.0516 O   0  0  0  0  0  0  0  0  0  0  0  0
   12.4989    6.2074   20.1776 C   0  0  0  0  0  0  0  0  0  0  0  0
    6.9192    9.1053   20.9073 O   0  0  0  0  0  0  0  0  0  0  0  0
   14.3979    6.0729   18.7784 C   0  0  0  0  0  0  0  0  0  0  0  0
    8.6811    9.5354   16.9998 C   0  0  0  0  0  0  0  0  0  0  0  0
    9.2512    4.2713   13.7653 O   0  0  0  0  0  0  0  0  0  0  0  0
    9.6495    8.6317   16.8332 N   0  0  0  0  0  0  0  0  0  0  0  0
    6.2934    8.6988   23.1988 O   0  0  0  0  0  0  0  0  0  0  0  0
    7.9806    8.6543   20.5437 C   0  0  0  0  0  0  0  0  0  0  0  0
   13.7270    5.7144   19.8610 O   0  0  0  0  0  0  0  0  0  0  0  0
    8.3351    5.5235   15.4478 C   0  0  0  0  0  0  0  0  0  0  0  0
    8.7700    7.8434   21.3915 C   0  0  0  0  0  0  0  0  0  0  0  0
   11.7856    6.8851   19.2401 C   0  0  0  0  0  0  0  0  0  0  0  0
   10.5281    7.4276   19.5649 C   0  0  0  0  0  0  0  0  0  0  0  0
   10.0256    7.2907   20.8484 C   0  0  0  0  0  0  0  0  0  0  0  0
    9.3113    5.3049   14.4911 C   0  0  0  0  0  0  0  0  0  0  0  0
    9.4607    7.5646   16.0139 C   0  0  0  0  0  0  0  0  0  0  0  0
   10.4192    7.3157   15.0955 C   0  0  0  0  0  0  0  0  0  0  0  0
   10.2489    6.4227   23.0218 N   0  0  0  0  0  0  0  0  0  0  0  0
    7.2472    8.0746   23.5050 C   0  0  0  0  0  0  0  0  0  0  0  0
    9.2051    6.9101   23.4604 C   0  0  0  0  0  0  0  0  0  0  0  0
   11.9646    6.0299   21.4251 C   0  0  0  0  0  0  0  0  0  0  0  0
  1  5  1  0
  1 13  1  0
  2 20  2  0
  2 28  1  0
  2 29  1  0
  3 19  4  0
  3 25  4  0
  4 23  4  0
  4 27  1  0
  4 30  4  0
  5 17  1  0
  6  8  1  0
  6 29  1  0
  7 24  4  0
  7 26  4  0
  8 28  1  0
  9 13  2  0
 10 18  1  0
 10 21  4  0
 10 30  4  0
 11 17  2  0
 12 18  1  0
 13 15  1  0
 14 24  1  0
 15 25  1  0
 16 28  2  0
 17 20  1  0
 19 24  4  0
 20 23  1  0
 21 22  4  0
 22 23  4  0
 25 26  4  0
 27 29  2  0
M  END
$$$$

 Created by Python create_sdf_string function

 30 33  0  0  0  0  0  0  0  0999 V2000
    8.3036    9.8571   18.4133 C   0  0  0  0  0  0  0  0  0  0  0  0
    8.3694    7.6612   22.6703 C   0  0  0  0  0  0  0  0  0  0  0  0
    8.4143    6.6863   16.2273 C   0  0  0  0  0  0  0  0  0  0  0  0
   10.7581    6.5674   21.7636 C   0  0  0  0  0  0  0  0  0  0  0  0
    8.4452    8.7960   19.2958 O   0  0  0  0  0  0  0  0  0  0  0  0
    8.7122    6.7842   24.8569 C   0  0  0  0  0  0  0  0  0  0  0  0
   10.3400    6.1726   14.3081 C   0  0  0  0  0  0  0  0  0  0  0  0
    7.4297    7.5873   24.8962 C   0  0  0  0  0  0  0  0  0  0  0  0
    8.1566   10.0536   16.0516 O   0  0  0  0  0  0  0  0  0  0  0  0
   12.4989    6.2074   20.1776 C   0  0  0  0  0  0  0  0  0  0  0  0
    6.9192    9.1053   20.9073 O   0  0  0  0  0  0  0  0  0  0  0  0
   14.3979    6.0729   18.7784 C   0  0  0  0  0  0  0  0  0  0  0  0
    8.6811    9.5354   16.9998 C   0  0  0  0  0  0  0  0  0  0  0  0
    9.2512    4.2713   13.7653 O   0  0  0  0  0  0  0  0  0  0  0  0
    9.6495    8.6317   16.8332 N   0  0  0  0  0  0  0  0  0  0  0  0
    6.2934    8.6988   23.1988 O   0  0  0  0  0  0  0  0  0  0  0  0
    7.9806    8.6543   20.5437 C   0  0  0  0  0  0  0  0  0  0  0  0
   13.7270    5.7144   19.8610 O   0  0  0  0  0  0  0  0  0  0  0  0
    8.3351    5.5235   15.4478 C   0  0  0  0  0  0  0  0  0  0  0  0
    8.7700    7.8434   21.3915 C   0  0  0  0  0  0  0  0  0  0  0  0
   11.7856    6.8851   19.2401 C   0  0  0  0  0  0  0  0  0  0  0  0
   10.5281    7.4276   19.5649 C   0  0  0  0  0  0  0  0  0  0  0  0
   10.0256    7.2907   20.8484 C   0  0  0  0  0  0  0  0  0  0  0  0
    9.3113    5.3049   14.4911 C   0  0  0  0  0  0  0  0  0  0  0  0
    9.4607    7.5646   16.0139 C   0  0  0  0  0  0  0  0  0  0  0  0
   10.4192    7.3157   15.0955 C   0  0  0  0  0  0  0  0  0  0  0  0
   10.2489    6.4227   23.0218 N   0  0  0  0  0  0  0  0  0  0  0  0
    7.2472    8.0746   23.5050 C   0  0  0  0  0  0  0  0  0  0  0  0
    9.2051    6.9101   23.4604 C   0  0  0  0  0  0  0  0  0  0  0  0
   11.9646    6.0299   21.4251 C   0  0  0  0  0  0  0  0  0  0  0  0
  1  5  1  0
  1 13  1  0
  2 20  2  0
  2 28  1  0
  2 29  1  0
  3 19  4  0
  3 25  4  0
  4 23  4  0
  4 27  1  0
  4 30  4  0
  5 17  1  0
  6  8  1  0
  6 29  1  0
  7 24  4  0
  7 26  4  0
  8 28  1  0
  9 13  2  0
 10 18  1  0
 10 21  4  0
 10 30  4  0
 11 17  2  0
 12 18  1  0
 13 15  1  0
 14 24  1  0
 15 25  1  0
 16 28  2  0
 17 20  1  0
 19 24  4  0
 20 23  1  0
 21 22  4  0
 22 23  4  0
 25 26  4  0
 27 29  2  0
M  END
$$$$

 Created by Python create_sdf_string function

 30 33  0  0  0  0  0  0  0  0999 V2000
    8.3036    9.8571   18.4133 C   0  0  0  0  0  0  0  0  0  0  0  0
    8.3694    7.6612   22.6703 C   0  0  0  0  0  0  0  0  0  0  0  0
    8.4143    6.6863   16.2273 C   0  0  0  0  0  0  0  0  0  0  0  0
   10.7581    6.5674   21.7636 C   0  0  0  0  0  0  0  0  0  0  0  0
    8.4452    8.7960   19.2958 O   0  0  0  0  0  0  0  0  0  0  0  0
    8.7122    6.7842   24.8569 C   0  0  0  0  0  0  0  0  0  0  0  0
   10.3400    6.1726   14.3081 C   0  0  0  0  0  0  0  0  0  0  0  0
    7.4297    7.5873   24.8962 C   0  0  0  0  0  0  0  0  0  0  0  0
    8.1566   10.0536   16.0516 O   0  0  0  0  0  0  0  0  0  0  0  0
   12.4989    6.2074   20.1776 C   0  0  0  0  0  0  0  0  0  0  0  0
    6.9192    9.1053   20.9073 O   0  0  0  0  0  0  0  0  0  0  0  0
   14.3979    6.0729   18.7784 C   0  0  0  0  0  0  0  0  0  0  0  0
    8.6811    9.5354   16.9998 C   0  0  0  0  0  0  0  0  0  0  0  0
    9.2512    4.2713   13.7653 O   0  0  0  0  0  0  0  0  0  0  0  0
    9.6495    8.6317   16.8332 N   0  0  0  0  0  0  0  0  0  0  0  0
    6.2934    8.6988   23.1988 O   0  0  0  0  0  0  0  0  0  0  0  0
    7.9806    8.6543   20.5437 C   0  0  0  0  0  0  0  0  0  0  0  0
   13.7270    5.7144   19.8610 O   0  0  0  0  0  0  0  0  0  0  0  0
    8.3351    5.5235   15.4478 C   0  0  0  0  0  0  0  0  0  0  0  0
    8.7700    7.8434   21.3915 C   0  0  0  0  0  0  0  0  0  0  0  0
   11.7856    6.8851   19.2401 C   0  0  0  0  0  0  0  0  0  0  0  0
   10.5281    7.4276   19.5649 C   0  0  0  0  0  0  0  0  0  0  0  0
   10.0256    7.2907   20.8484 C   0  0  0  0  0  0  0  0  0  0  0  0
    9.3113    5.3049   14.4911 C   0  0  0  0  0  0  0  0  0  0  0  0
    9.4607    7.5646   16.0139 C   0  0  0  0  0  0  0  0  0  0  0  0
   10.4192    7.3157   15.0955 C   0  0  0  0  0  0  0  0  0  0  0  0
   10.2489    6.4227   23.0218 N   0  0  0  0  0  0  0  0  0  0  0  0
    7.2472    8.0746   23.5050 C   0  0  0  0  0  0  0  0  0  0  0  0
    9.2051    6.9101   23.4604 C   0  0  0  0  0  0  0  0  0  0  0  0
   11.9646    6.0299   21.4251 C   0  0  0  0  0  0  0  0  0  0  0  0
  1  5  1  0
  1 13  1  0
  2 20  2  0
  2 28  1  0
  2 29  1  0
  3 19  4  0
  3 25  4  0
  4 23  4  0
  4 27  1  0
  4 30  4  0
  5 17  1  0
  6  8  1  0
  6 29  1  0
  7 24  4  0
  7 26  4  0
  8 28  1  0
  9 13  2  0
 10 18  1  0
 10 21  4  0
 10 30  4  0
 11 17  2  0
 12 18  1  0
 13 15  1  0
 14 24  1  0
 15 25  1  0
 16 28  2  0
 17 20  1  0
 19 24  4  0
 20 23  1  0
 21 22  4  0
 22 23  4  0
 25 26  4  0
 27 29  2  0
M  END
$$$$

 Created by Python create_sdf_string function

 30 33  0  0  0  0  0  0  0  0999 V2000
    8.3036    9.8571   18.4133 C   0  0  0  0  0  0  0  0  0  0  0  0
    8.3694    7.6612   22.6703 C   0  0  0  0  0  0  0  0  0  0  0  0
    8.4143    6.6863   16.2273 C   0  0  0  0  0  0  0  0  0  0  0  0
   10.7581    6.5674   21.7636 C   0  0  0  0  0  0  0  0  0  0  0  0
    8.4452    8.7960   19.2958 O   0  0  0  0  0  0  0  0  0  0  0  0
    8.7122    6.7842   24.8569 C   0  0  0  0  0  0  0  0  0  0  0  0
   10.3400    6.1726   14.3081 C   0  0  0  0  0  0  0  0  0  0  0  0
    7.4297    7.5873   24.8962 C   0  0  0  0  0  0  0  0  0  0  0  0
    8.1566   10.0536   16.0516 O   0  0  0  0  0  0  0  0  0  0  0  0
   12.4989    6.2074   20.1776 C   0  0  0  0  0  0  0  0  0  0  0  0
    6.9192    9.1053   20.9073 O   0  0  0  0  0  0  0  0  0  0  0  0
   14.3979    6.0729   18.7784 C   0  0  0  0  0  0  0  0  0  0  0  0
    8.6811    9.5354   16.9998 C   0  0  0  0  0  0  0  0  0  0  0  0
    9.2512    4.2713   13.7653 O   0  0  0  0  0  0  0  0  0  0  0  0
    9.6495    8.6317   16.8332 N   0  0  0  0  0  0  0  0  0  0  0  0
    6.2934    8.6988   23.1988 O   0  0  0  0  0  0  0  0  0  0  0  0
    7.9806    8.6543   20.5437 C   0  0  0  0  0  0  0  0  0  0  0  0
   13.7270    5.7144   19.8610 O   0  0  0  0  0  0  0  0  0  0  0  0
    8.3351    5.5235   15.4478 C   0  0  0  0  0  0  0  0  0  0  0  0
    8.7700    7.8434   21.3915 C   0  0  0  0  0  0  0  0  0  0  0  0
   11.7856    6.8851   19.2401 C   0  0  0  0  0  0  0  0  0  0  0  0
   10.5281    7.4276   19.5649 C   0  0  0  0  0  0  0  0  0  0  0  0
   10.0256    7.2907   20.8484 C   0  0  0  0  0  0  0  0  0  0  0  0
    9.3113    5.3049   14.4911 C   0  0  0  0  0  0  0  0  0  0  0  0
    9.4607    7.5646   16.0139 C   0  0  0  0  0  0  0  0  0  0  0  0
   10.4192    7.3157   15.0955 C   0  0  0  0  0  0  0  0  0  0  0  0
   10.2489    6.4227   23.0218 N   0  0  0  0  0  0  0  0  0  0  0  0
    7.2472    8.0746   23.5050 C   0  0  0  0  0  0  0  0  0  0  0  0
    9.2051    6.9101   23.4604 C   0  0  0  0  0  0  0  0  0  0  0  0
   11.9646    6.0299   21.4251 C   0  0  0  0  0  0  0  0  0  0  0  0
  1  5  1  0
  1 13  1  0
  2 20  2  0
  2 28  1  0
  2 29  1  0
  3 19  4  0
  3 25  4  0
  4 23  4  0
  4 27  1  0
  4 30  4  0
  5 17  1  0
  6  8  1  0
  6 29  1  0
  7 24  4  0
  7 26  4  0
  8 28  1  0
  9 13  2  0
 10 18  1  0
 10 21  4  0
 10 30  4  0
 11 17  2  0
 12 18  1  0
 13 15  1  0
 14 24  1  0
 15 25  1  0
 16 28  2  0
 17 20  1  0
 19 24  4  0
 20 23  1  0
 21 22  4  0
 22 23  4  0
 25 26  4  0
 27 29  2  0
M  END
$$$$

 Created by Python create_sdf_string function

 30 33  0  0  0  0  0  0  0  0999 V2000
    8.3036    9.8571   18.4133 C   0  0  0  0  0  0  0  0  0  0  0  0
    8.3694    7.6612   22.6703 C   0  0  0  0  0  0  0  0  0  0  0  0
    8.4143    6.6863   16.2273 C   0  0  0  0  0  0  0  0  0  0  0  0
   10.7581    6.5674   21.7636 C   0  0  0  0  0  0  0  0  0  0  0  0
    8.4452    8.7960   19.2958 O   0  0  0  0  0  0  0  0  0  0  0  0
    8.7122    6.7842   24.8569 C   0  0  0  0  0  0  0  0  0  0  0  0
   10.3400    6.1726   14.3081 C   0  0  0  0  0  0  0  0  0  0  0  0
    7.4297    7.5873   24.8962 C   0  0  0  0  0  0  0  0  0  0  0  0
    8.1566   10.0536   16.0516 O   0  0  0  0  0  0  0  0  0  0  0  0
   12.4989    6.2074   20.1776 C   0  0  0  0  0  0  0  0  0  0  0  0
    6.9192    9.1053   20.9073 O   0  0  0  0  0  0  0  0  0  0  0  0
   14.3979    6.0729   18.7784 C   0  0  0  0  0  0  0  0  0  0  0  0
    8.6811    9.5354   16.9998 C   0  0  0  0  0  0  0  0  0  0  0  0
    9.2512    4.2713   13.7653 O   0  0  0  0  0  0  0  0  0  0  0  0
    9.6495    8.6317   16.8332 N   0  0  0  0  0  0  0  0  0  0  0  0
    6.2934    8.6988   23.1988 O   0  0  0  0  0  0  0  0  0  0  0  0
    7.9806    8.6543   20.5437 C   0  0  0  0  0  0  0  0  0  0  0  0
   13.7270    5.7144   19.8610 O   0  0  0  0  0  0  0  0  0  0  0  0
    8.3351    5.5235   15.4478 C   0  0  0  0  0  0  0  0  0  0  0  0
    8.7700    7.8434   21.3915 C   0  0  0  0  0  0  0  0  0  0  0  0
   11.7856    6.8851   19.2401 C   0  0  0  0  0  0  0  0  0  0  0  0
   10.5281    7.4276   19.5649 C   0  0  0  0  0  0  0  0  0  0  0  0
   10.0256    7.2907   20.8484 C   0  0  0  0  0  0  0  0  0  0  0  0
    9.3113    5.3049   14.4911 C   0  0  0  0  0  0  0  0  0  0  0  0
    9.4607    7.5646   16.0139 C   0  0  0  0  0  0  0  0  0  0  0  0
   10.4192    7.3157   15.0955 C   0  0  0  0  0  0  0  0  0  0  0  0
   10.2489    6.4227   23.0218 N   0  0  0  0  0  0  0  0  0  0  0  0
    7.2472    8.0746   23.5050 C   0  0  0  0  0  0  0  0  0  0  0  0
    9.2051    6.9101   23.4604 C   0  0  0  0  0  0  0  0  0  0  0  0
   11.9646    6.0299   21.4251 C   0  0  0  0  0  0  0  0  0  0  0  0
  1  5  1  0
  1 13  1  0
  2 20  2  0
  2 28  1  0
  2 29  1  0
  3 19  4  0
  3 25  4  0
  4 23  4  0
  4 27  1  0
  4 30  4  0
  5 17  1  0
  6  8  1  0
  6 29  1  0
  7 24  4  0
  7 26  4  0
  8 28  1  0
  9 13  2  0
 10 18  1  0
 10 21  4  0
 10 30  4  0
 11 17  2  0
 12 18  1  0
 13 15  1  0
 14 24  1  0
 15 25  1  0
 16 28  2  0
 17 20  1  0
 19 24  4  0
 20 23  1  0
 21 22  4  0
 22 23  4  0
 25 26  4  0
 27 29  2  0
M  END
$$$$

 Created by Python create_sdf_string function

 30 33  0  0  0  0  0  0  0  0999 V2000
    8.3036    9.8571   18.4133 C   0  0  0  0  0  0  0  0  0  0  0  0
    8.3694    7.6612   22.6703 C   0  0  0  0  0  0  0  0  0  0  0  0
    8.4143    6.6863   16.2273 C   0  0  0  0  0  0  0  0  0  0  0  0
   10.7581    6.5674   21.7636 C   0  0  0  0  0  0  0  0  0  0  0  0
    8.4452    8.7960   19.2958 O   0  0  0  0  0  0  0  0  0  0  0  0
    8.7122    6.7842   24.8569 C   0  0  0  0  0  0  0  0  0  0  0  0
   10.3400    6.1726   14.3081 C   0  0  0  0  0  0  0  0  0  0  0  0
    7.4297    7.5873   24.8962 C   0  0  0  0  0  0  0  0  0  0  0  0
    8.1566   10.0536   16.0516 O   0  0  0  0  0  0  0  0  0  0  0  0
   12.4989    6.2074   20.1776 C   0  0  0  0  0  0  0  0  0  0  0  0
    6.9192    9.1053   20.9073 O   0  0  0  0  0  0  0  0  0  0  0  0
   14.3979    6.0729   18.7784 C   0  0  0  0  0  0  0  0  0  0  0  0
    8.6811    9.5354   16.9998 C   0  0  0  0  0  0  0  0  0  0  0  0
    9.2512    4.2713   13.7653 O   0  0  0  0  0  0  0  0  0  0  0  0
    9.6495    8.6317   16.8332 N   0  0  0  0  0  0  0  0  0  0  0  0
    6.2934    8.6988   23.1988 O   0  0  0  0  0  0  0  0  0  0  0  0
    7.9806    8.6543   20.5437 C   0  0  0  0  0  0  0  0  0  0  0  0
   13.7270    5.7144   19.8610 O   0  0  0  0  0  0  0  0  0  0  0  0
    8.3351    5.5235   15.4478 C   0  0  0  0  0  0  0  0  0  0  0  0
    8.7700    7.8434   21.3915 C   0  0  0  0  0  0  0  0  0  0  0  0
   11.7856    6.8851   19.2401 C   0  0  0  0  0  0  0  0  0  0  0  0
   10.5281    7.4276   19.5649 C   0  0  0  0  0  0  0  0  0  0  0  0
   10.0256    7.2907   20.8484 C   0  0  0  0  0  0  0  0  0  0  0  0
    9.3113    5.3049   14.4911 C   0  0  0  0  0  0  0  0  0  0  0  0
    9.4607    7.5646   16.0139 C   0  0  0  0  0  0  0  0  0  0  0  0
   10.4192    7.3157   15.0955 C   0  0  0  0  0  0  0  0  0  0  0  0
   10.2489    6.4227   23.0218 N   0  0  0  0  0  0  0  0  0  0  0  0
    7.2472    8.0746   23.5050 C   0  0  0  0  0  0  0  0  0  0  0  0
    9.2051    6.9101   23.4604 C   0  0  0  0  0  0  0  0  0  0  0  0
   11.9646    6.0299   21.4251 C   0  0  0  0  0  0  0  0  0  0  0  0
  1  5  1  0
  1 13  1  0
  2 20  2  0
  2 28  1  0
  2 29  1  0
  3 19  4  0
  3 25  4  0
  4 23  4  0
  4 27  1  0
  4 30  4  0
  5 17  1  0
  6  8  1  0
  6 29  1  0
  7 24  4  0
  7 26  4  0
  8 28  1  0
  9 13  2  0
 10 18  1  0
 10 21  4  0
 10 30  4  0
 11 17  2  0
 12 18  1  0
 13 15  1  0
 14 24  1  0
 15 25  1  0
 16 28  2  0
 17 20  1  0
 19 24  4  0
 20 23  1  0
 21 22  4  0
 22 23  4  0
 25 26  4  0
 27 29  2  0
M  END
$$$$

 Created by Python create_sdf_string function

 30 33  0  0  0  0  0  0  0  0999 V2000
    8.3036    9.8571   18.4133 C   0  0  0  0  0  0  0  0  0  0  0  0
    8.3694    7.6612   22.6703 C   0  0  0  0  0  0  0  0  0  0  0  0
    8.4143    6.6863   16.2273 C   0  0  0  0  0  0  0  0  0  0  0  0
   10.7581    6.5674   21.7636 C   0  0  0  0  0  0  0  0  0  0  0  0
    8.4452    8.7960   19.2958 O   0  0  0  0  0  0  0  0  0  0  0  0
    8.7122    6.7842   24.8569 C   0  0  0  0  0  0  0  0  0  0  0  0
   10.3400    6.1726   14.3081 C   0  0  0  0  0  0  0  0  0  0  0  0
    7.4297    7.5873   24.8962 C   0  0  0  0  0  0  0  0  0  0  0  0
    8.1566   10.0536   16.0516 O   0  0  0  0  0  0  0  0  0  0  0  0
   12.4989    6.2074   20.1776 C   0  0  0  0  0  0  0  0  0  0  0  0
    6.9192    9.1053   20.9073 O   0  0  0  0  0  0  0  0  0  0  0  0
   14.3979    6.0729   18.7784 C   0  0  0  0  0  0  0  0  0  0  0  0
    8.6811    9.5354   16.9998 C   0  0  0  0  0  0  0  0  0  0  0  0
    9.2512    4.2713   13.7653 O   0  0  0  0  0  0  0  0  0  0  0  0
    9.6495    8.6317   16.8332 N   0  0  0  0  0  0  0  0  0  0  0  0
    6.2934    8.6988   23.1988 O   0  0  0  0  0  0  0  0  0  0  0  0
    7.9806    8.6543   20.5437 C   0  0  0  0  0  0  0  0  0  0  0  0
   13.7270    5.7144   19.8610 O   0  0  0  0  0  0  0  0  0  0  0  0
    8.3351    5.5235   15.4478 C   0  0  0  0  0  0  0  0  0  0  0  0
    8.7700    7.8434   21.3915 C   0  0  0  0  0  0  0  0  0  0  0  0
   11.7856    6.8851   19.2401 C   0  0  0  0  0  0  0  0  0  0  0  0
   10.5281    7.4276   19.5649 C   0  0  0  0  0  0  0  0  0  0  0  0
   10.0256    7.2907   20.8484 C   0  0  0  0  0  0  0  0  0  0  0  0
    9.3113    5.3049   14.4911 C   0  0  0  0  0  0  0  0  0  0  0  0
    9.4607    7.5646   16.0139 C   0  0  0  0  0  0  0  0  0  0  0  0
   10.4192    7.3157   15.0955 C   0  0  0  0  0  0  0  0  0  0  0  0
   10.2489    6.4227   23.0218 N   0  0  0  0  0  0  0  0  0  0  0  0
    7.2472    8.0746   23.5050 C   0  0  0  0  0  0  0  0  0  0  0  0
    9.2051    6.9101   23.4604 C   0  0  0  0  0  0  0  0  0  0  0  0
   11.9646    6.0299   21.4251 C   0  0  0  0  0  0  0  0  0  0  0  0
  1  5  1  0
  1 13  1  0
  2 20  2  0
  2 28  1  0
  2 29  1  0
  3 19  4  0
  3 25  4  0
  4 23  4  0
  4 27  1  0
  4 30  4  0
  5 17  1  0
  6  8  1  0
  6 29  1  0
  7 24  4  0
  7 26  4  0
  8 28  1  0
  9 13  2  0
 10 18  1  0
 10 21  4  0
 10 30  4  0
 11 17  2  0
 12 18  1  0
 13 15  1  0
 14 24  1  0
 15 25  1  0
 16 28  2  0
 17 20  1  0
 19 24  4  0
 20 23  1  0
 21 22  4  0
 22 23  4  0
 25 26  4  0
 27 29  2  0
M  END
$$$$

 Created by Python create_sdf_string function

 30 33  0  0  0  0  0  0  0  0999 V2000
    8.3036    9.8571   18.4133 C   0  0  0  0  0  0  0  0  0  0  0  0
    8.3694    7.6612   22.6703 C   0  0  0  0  0  0  0  0  0  0  0  0
    8.4143    6.6863   16.2273 C   0  0  0  0  0  0  0  0  0  0  0  0
   10.7581    6.5674   21.7636 C   0  0  0  0  0  0  0  0  0  0  0  0
    8.4452    8.7960   19.2958 O   0  0  0  0  0  0  0  0  0  0  0  0
    8.7122    6.7842   24.8569 C   0  0  0  0  0  0  0  0  0  0  0  0
   10.3400    6.1726   14.3081 C   0  0  0  0  0  0  0  0  0  0  0  0
    7.4297    7.5873   24.8962 C   0  0  0  0  0  0  0  0  0  0  0  0
    8.1566   10.0536   16.0516 O   0  0  0  0  0  0  0  0  0  0  0  0
   12.4989    6.2074   20.1776 C   0  0  0  0  0  0  0  0  0  0  0  0
    6.9192    9.1053   20.9073 O   0  0  0  0  0  0  0  0  0  0  0  0
   14.3979    6.0729   18.7784 C   0  0  0  0  0  0  0  0  0  0  0  0
    8.6811    9.5354   16.9998 C   0  0  0  0  0  0  0  0  0  0  0  0
    9.2512    4.2713   13.7653 O   0  0  0  0  0  0  0  0  0  0  0  0
    9.6495    8.6317   16.8332 N   0  0  0  0  0  0  0  0  0  0  0  0
    6.2934    8.6988   23.1988 O   0  0  0  0  0  0  0  0  0  0  0  0
    7.9806    8.6543   20.5437 C   0  0  0  0  0  0  0  0  0  0  0  0
   13.7270    5.7144   19.8610 O   0  0  0  0  0  0  0  0  0  0  0  0
    8.3351    5.5235   15.4478 C   0  0  0  0  0  0  0  0  0  0  0  0
    8.7700    7.8434   21.3915 C   0  0  0  0  0  0  0  0  0  0  0  0
   11.7856    6.8851   19.2401 C   0  0  0  0  0  0  0  0  0  0  0  0
   10.5281    7.4276   19.5649 C   0  0  0  0  0  0  0  0  0  0  0  0
   10.0256    7.2907   20.8484 C   0  0  0  0  0  0  0  0  0  0  0  0
    9.3113    5.3049   14.4911 C   0  0  0  0  0  0  0  0  0  0  0  0
    9.4607    7.5646   16.0139 C   0  0  0  0  0  0  0  0  0  0  0  0
   10.4192    7.3157   15.0955 C   0  0  0  0  0  0  0  0  0  0  0  0
   10.2489    6.4227   23.0218 N   0  0  0  0  0  0  0  0  0  0  0  0
    7.2472    8.0746   23.5050 C   0  0  0  0  0  0  0  0  0  0  0  0
    9.2051    6.9101   23.4604 C   0  0  0  0  0  0  0  0  0  0  0  0
   11.9646    6.0299   21.4251 C   0  0  0  0  0  0  0  0  0  0  0  0
  1  5  1  0
  1 13  1  0
  2 20  2  0
  2 28  1  0
  2 29  1  0
  3 19  4  0
  3 25  4  0
  4 23  4  0
  4 27  1  0
  4 30  4  0
  5 17  1  0
  6  8  1  0
  6 29  1  0
  7 24  4  0
  7 26  4  0
  8 28  1  0
  9 13  2  0
 10 18  1  0
 10 21  4  0
 10 30  4  0
 11 17  2  0
 12 18  1  0
 13 15  1  0
 14 24  1  0
 15 25  1  0
 16 28  2  0
 17 20  1  0
 19 24  4  0
 20 23  1  0
 21 22  4  0
 22 23  4  0
 25 26  4  0
 27 29  2  0
M  END
$$$$

 Created by Python create_sdf_string function

 30 33  0  0  0  0  0  0  0  0999 V2000
    8.3036    9.8571   18.4133 C   0  0  0  0  0  0  0  0  0  0  0  0
    8.3694    7.6612   22.6703 C   0  0  0  0  0  0  0  0  0  0  0  0
    8.4143    6.6863   16.2273 C   0  0  0  0  0  0  0  0  0  0  0  0
   10.7581    6.5674   21.7636 C   0  0  0  0  0  0  0  0  0  0  0  0
    8.4452    8.7960   19.2958 O   0  0  0  0  0  0  0  0  0  0  0  0
    8.7122    6.7842   24.8569 C   0  0  0  0  0  0  0  0  0  0  0  0
   10.3400    6.1726   14.3081 C   0  0  0  0  0  0  0  0  0  0  0  0
    7.4297    7.5873   24.8962 C   0  0  0  0  0  0  0  0  0  0  0  0
    8.1566   10.0536   16.0516 O   0  0  0  0  0  0  0  0  0  0  0  0
   12.4989    6.2074   20.1776 C   0  0  0  0  0  0  0  0  0  0  0  0
    6.9192    9.1053   20.9073 O   0  0  0  0  0  0  0  0  0  0  0  0
   14.3979    6.0729   18.7784 C   0  0  0  0  0  0  0  0  0  0  0  0
    8.6811    9.5354   16.9998 C   0  0  0  0  0  0  0  0  0  0  0  0
    9.2512    4.2713   13.7653 O   0  0  0  0  0  0  0  0  0  0  0  0
    9.6495    8.6317   16.8332 N   0  0  0  0  0  0  0  0  0  0  0  0
    6.2934    8.6988   23.1988 O   0  0  0  0  0  0  0  0  0  0  0  0
    7.9806    8.6543   20.5437 C   0  0  0  0  0  0  0  0  0  0  0  0
   13.7270    5.7144   19.8610 O   0  0  0  0  0  0  0  0  0  0  0  0
    8.3351    5.5235   15.4478 C   0  0  0  0  0  0  0  0  0  0  0  0
    8.7700    7.8434   21.3915 C   0  0  0  0  0  0  0  0  0  0  0  0
   11.7856    6.8851   19.2401 C   0  0  0  0  0  0  0  0  0  0  0  0
   10.5281    7.4276   19.5649 C   0  0  0  0  0  0  0  0  0  0  0  0
   10.0256    7.2907   20.8484 C   0  0  0  0  0  0  0  0  0  0  0  0
    9.3113    5.3049   14.4911 C   0  0  0  0  0  0  0  0  0  0  0  0
    9.4607    7.5646   16.0139 C   0  0  0  0  0  0  0  0  0  0  0  0
   10.4192    7.3157   15.0955 C   0  0  0  0  0  0  0  0  0  0  0  0
   10.2489    6.4227   23.0218 N   0  0  0  0  0  0  0  0  0  0  0  0
    7.2472    8.0746   23.5050 C   0  0  0  0  0  0  0  0  0  0  0  0
    9.2051    6.9101   23.4604 C   0  0  0  0  0  0  0  0  0  0  0  0
   11.9646    6.0299   21.4251 C   0  0  0  0  0  0  0  0  0  0  0  0
  1  5  1  0
  1 13  1  0
  2 20  2  0
  2 28  1  0
  2 29  1  0
  3 19  4  0
  3 25  4  0
  4 23  4  0
  4 27  1  0
  4 30  4  0
  5 17  1  0
  6  8  1  0
  6 29  1  0
  7 24  4  0
  7 26  4  0
  8 28  1  0
  9 13  2  0
 10 18  1  0
 10 21  4  0
 10 30  4  0
 11 17  2  0
 12 18  1  0
 13 15  1  0
 14 24  1  0
 15 25  1  0
 16 28  2  0
 17 20  1  0
 19 24  4  0
 20 23  1  0
 21 22  4  0
 22 23  4  0
 25 26  4  0
 27 29  2  0
M  END
$$$$

 Created by Python create_sdf_string function

 30 33  0  0  0  0  0  0  0  0999 V2000
    8.3036    9.8571   18.4133 C   0  0  0  0  0  0  0  0  0  0  0  0
    8.3694    7.6612   22.6703 C   0  0  0  0  0  0  0  0  0  0  0  0
    8.4143    6.6863   16.2273 C   0  0  0  0  0  0  0  0  0  0  0  0
   10.7581    6.5674   21.7636 C   0  0  0  0  0  0  0  0  0  0  0  0
    8.4452    8.7960   19.2958 O   0  0  0  0  0  0  0  0  0  0  0  0
    8.7122    6.7842   24.8569 C   0  0  0  0  0  0  0  0  0  0  0  0
   10.3400    6.1726   14.3081 C   0  0  0  0  0  0  0  0  0  0  0  0
    7.4297    7.5873   24.8962 C   0  0  0  0  0  0  0  0  0  0  0  0
    8.1566   10.0536   16.0516 O   0  0  0  0  0  0  0  0  0  0  0  0
   12.4989    6.2074   20.1776 C   0  0  0  0  0  0  0  0  0  0  0  0
    6.9192    9.1053   20.9073 O   0  0  0  0  0  0  0  0  0  0  0  0
   14.3979    6.0729   18.7784 C   0  0  0  0  0  0  0  0  0  0  0  0
    8.6811    9.5354   16.9998 C   0  0  0  0  0  0  0  0  0  0  0  0
    9.2512    4.2713   13.7653 O   0  0  0  0  0  0  0  0  0  0  0  0
    9.6495    8.6317   16.8332 N   0  0  0  0  0  0  0  0  0  0  0  0
    6.2934    8.6988   23.1988 O   0  0  0  0  0  0  0  0  0  0  0  0
    7.9806    8.6543   20.5437 C   0  0  0  0  0  0  0  0  0  0  0  0
   13.7270    5.7144   19.8610 O   0  0  0  0  0  0  0  0  0  0  0  0
    8.3351    5.5235   15.4478 C   0  0  0  0  0  0  0  0  0  0  0  0
    8.7700    7.8434   21.3915 C   0  0  0  0  0  0  0  0  0  0  0  0
   11.7856    6.8851   19.2401 C   0  0  0  0  0  0  0  0  0  0  0  0
   10.5281    7.4276   19.5649 C   0  0  0  0  0  0  0  0  0  0  0  0
   10.0256    7.2907   20.8484 C   0  0  0  0  0  0  0  0  0  0  0  0
    9.3113    5.3049   14.4911 C   0  0  0  0  0  0  0  0  0  0  0  0
    9.4607    7.5646   16.0139 C   0  0  0  0  0  0  0  0  0  0  0  0
   10.4192    7.3157   15.0955 C   0  0  0  0  0  0  0  0  0  0  0  0
   10.2489    6.4227   23.0218 N   0  0  0  0  0  0  0  0  0  0  0  0
    7.2472    8.0746   23.5050 C   0  0  0  0  0  0  0  0  0  0  0  0
    9.2051    6.9101   23.4604 C   0  0  0  0  0  0  0  0  0  0  0  0
   11.9646    6.0299   21.4251 C   0  0  0  0  0  0  0  0  0  0  0  0
  1  5  1  0
  1 13  1  0
  2 20  2  0
  2 28  1  0
  2 29  1  0
  3 19  4  0
  3 25  4  0
  4 23  4  0
  4 27  1  0
  4 30  4  0
  5 17  1  0
  6  8  1  0
  6 29  1  0
  7 24  4  0
  7 26  4  0
  8 28  1  0
  9 13  2  0
 10 18  1  0
 10 21  4  0
 10 30  4  0
 11 17  2  0
 12 18  1  0
 13 15  1  0
 14 24  1  0
 15 25  1  0
 16 28  2  0
 17 20  1  0
 19 24  4  0
 20 23  1  0
 21 22  4  0
 22 23  4  0
 25 26  4  0
 27 29  2  0
M  END
$$$$

 Created by Python create_sdf_string function

 30 33  0  0  0  0  0  0  0  0999 V2000
    8.3036    9.8571   18.4133 C   0  0  0  0  0  0  0  0  0  0  0  0
    8.3694    7.6612   22.6703 C   0  0  0  0  0  0  0  0  0  0  0  0
    8.4143    6.6863   16.2273 C   0  0  0  0  0  0  0  0  0  0  0  0
   10.7581    6.5674   21.7636 C   0  0  0  0  0  0  0  0  0  0  0  0
    8.4452    8.7960   19.2958 O   0  0  0  0  0  0  0  0  0  0  0  0
    8.7122    6.7842   24.8569 C   0  0  0  0  0  0  0  0  0  0  0  0
   10.3400    6.1726   14.3081 C   0  0  0  0  0  0  0  0  0  0  0  0
    7.4297    7.5873   24.8962 C   0  0  0  0  0  0  0  0  0  0  0  0
    8.1566   10.0536   16.0516 O   0  0  0  0  0  0  0  0  0  0  0  0
   12.4989    6.2074   20.1776 C   0  0  0  0  0  0  0  0  0  0  0  0
    6.9192    9.1053   20.9073 O   0  0  0  0  0  0  0  0  0  0  0  0
   14.3979    6.0729   18.7784 C   0  0  0  0  0  0  0  0  0  0  0  0
    8.6811    9.5354   16.9998 C   0  0  0  0  0  0  0  0  0  0  0  0
    9.2512    4.2713   13.7653 O   0  0  0  0  0  0  0  0  0  0  0  0
    9.6495    8.6317   16.8332 N   0  0  0  0  0  0  0  0  0  0  0  0
    6.2934    8.6988   23.1988 O   0  0  0  0  0  0  0  0  0  0  0  0
    7.9806    8.6543   20.5437 C   0  0  0  0  0  0  0  0  0  0  0  0
   13.7270    5.7144   19.8610 O   0  0  0  0  0  0  0  0  0  0  0  0
    8.3351    5.5235   15.4478 C   0  0  0  0  0  0  0  0  0  0  0  0
    8.7700    7.8434   21.3915 C   0  0  0  0  0  0  0  0  0  0  0  0
   11.7856    6.8851   19.2401 C   0  0  0  0  0  0  0  0  0  0  0  0
   10.5281    7.4276   19.5649 C   0  0  0  0  0  0  0  0  0  0  0  0
   10.0256    7.2907   20.8484 C   0  0  0  0  0  0  0  0  0  0  0  0
    9.3113    5.3049   14.4911 C   0  0  0  0  0  0  0  0  0  0  0  0
    9.4607    7.5646   16.0139 C   0  0  0  0  0  0  0  0  0  0  0  0
   10.4192    7.3157   15.0955 C   0  0  0  0  0  0  0  0  0  0  0  0
   10.2489    6.4227   23.0218 N   0  0  0  0  0  0  0  0  0  0  0  0
    7.2472    8.0746   23.5050 C   0  0  0  0  0  0  0  0  0  0  0  0
    9.2051    6.9101   23.4604 C   0  0  0  0  0  0  0  0  0  0  0  0
   11.9646    6.0299   21.4251 C   0  0  0  0  0  0  0  0  0  0  0  0
  1  5  1  0
  1 13  1  0
  2 20  2  0
  2 28  1  0
  2 29  1  0
  3 19  4  0
  3 25  4  0
  4 23  4  0
  4 27  1  0
  4 30  4  0
  5 17  1  0
  6  8  1  0
  6 29  1  0
  7 24  4  0
  7 26  4  0
  8 28  1  0
  9 13  2  0
 10 18  1  0
 10 21  4  0
 10 30  4  0
 11 17  2  0
 12 18  1  0
 13 15  1  0
 14 24  1  0
 15 25  1  0
 16 28  2  0
 17 20  1  0
 19 24  4  0
 20 23  1  0
 21 22  4  0
 22 23  4  0
 25 26  4  0
 27 29  2  0
M  END
$$$$

 Created by Python create_sdf_string function

 30 33  0  0  0  0  0  0  0  0999 V2000
    8.3036    9.8571   18.4133 C   0  0  0  0  0  0  0  0  0  0  0  0
    8.3694    7.6612   22.6703 C   0  0  0  0  0  0  0  0  0  0  0  0
    8.4143    6.6863   16.2273 C   0  0  0  0  0  0  0  0  0  0  0  0
   10.7581    6.5674   21.7636 C   0  0  0  0  0  0  0  0  0  0  0  0
    8.4452    8.7960   19.2958 O   0  0  0  0  0  0  0  0  0  0  0  0
    8.7122    6.7842   24.8569 C   0  0  0  0  0  0  0  0  0  0  0  0
   10.3400    6.1726   14.3081 C   0  0  0  0  0  0  0  0  0  0  0  0
    7.4297    7.5873   24.8962 C   0  0  0  0  0  0  0  0  0  0  0  0
    8.1566   10.0536   16.0516 O   0  0  0  0  0  0  0  0  0  0  0  0
   12.4989    6.2074   20.1776 C   0  0  0  0  0  0  0  0  0  0  0  0
    6.9192    9.1053   20.9073 O   0  0  0  0  0  0  0  0  0  0  0  0
   14.3979    6.0729   18.7784 C   0  0  0  0  0  0  0  0  0  0  0  0
    8.6811    9.5354   16.9998 C   0  0  0  0  0  0  0  0  0  0  0  0
    9.2512    4.2713   13.7653 O   0  0  0  0  0  0  0  0  0  0  0  0
    9.6495    8.6317   16.8332 N   0  0  0  0  0  0  0  0  0  0  0  0
    6.2934    8.6988   23.1988 O   0  0  0  0  0  0  0  0  0  0  0  0
    7.9806    8.6543   20.5437 C   0  0  0  0  0  0  0  0  0  0  0  0
   13.7270    5.7144   19.8610 O   0  0  0  0  0  0  0  0  0  0  0  0
    8.3351    5.5235   15.4478 C   0  0  0  0  0  0  0  0  0  0  0  0
    8.7700    7.8434   21.3915 C   0  0  0  0  0  0  0  0  0  0  0  0
   11.7856    6.8851   19.2401 C   0  0  0  0  0  0  0  0  0  0  0  0
   10.5281    7.4276   19.5649 C   0  0  0  0  0  0  0  0  0  0  0  0
   10.0256    7.2907   20.8484 C   0  0  0  0  0  0  0  0  0  0  0  0
    9.3113    5.3049   14.4911 C   0  0  0  0  0  0  0  0  0  0  0  0
    9.4607    7.5646   16.0139 C   0  0  0  0  0  0  0  0  0  0  0  0
   10.4192    7.3157   15.0955 C   0  0  0  0  0  0  0  0  0  0  0  0
   10.2489    6.4227   23.0218 N   0  0  0  0  0  0  0  0  0  0  0  0
    7.2472    8.0746   23.5050 C   0  0  0  0  0  0  0  0  0  0  0  0
    9.2051    6.9101   23.4604 C   0  0  0  0  0  0  0  0  0  0  0  0
   11.9646    6.0299   21.4251 C   0  0  0  0  0  0  0  0  0  0  0  0
  1  5  1  0
  1 13  1  0
  2 20  2  0
  2 28  1  0
  2 29  1  0
  3 19  4  0
  3 25  4  0
  4 23  4  0
  4 27  1  0
  4 30  4  0
  5 17  1  0
  6  8  1  0
  6 29  1  0
  7 24  4  0
  7 26  4  0
  8 28  1  0
  9 13  2  0
 10 18  1  0
 10 21  4  0
 10 30  4  0
 11 17  2  0
 12 18  1  0
 13 15  1  0
 14 24  1  0
 15 25  1  0
 16 28  2  0
 17 20  1  0
 19 24  4  0
 20 23  1  0
 21 22  4  0
 22 23  4  0
 25 26  4  0
 27 29  2  0
M  END
$$$$

 Created by Python create_sdf_string function

 30 33  0  0  0  0  0  0  0  0999 V2000
    8.3036    9.8571   18.4133 C   0  0  0  0  0  0  0  0  0  0  0  0
    8.3694    7.6612   22.6703 C   0  0  0  0  0  0  0  0  0  0  0  0
    8.4143    6.6863   16.2273 C   0  0  0  0  0  0  0  0  0  0  0  0
   10.7581    6.5674   21.7636 C   0  0  0  0  0  0  0  0  0  0  0  0
    8.4452    8.7960   19.2958 O   0  0  0  0  0  0  0  0  0  0  0  0
    8.7122    6.7842   24.8569 C   0  0  0  0  0  0  0  0  0  0  0  0
   10.3400    6.1726   14.3081 C   0  0  0  0  0  0  0  0  0  0  0  0
    7.4297    7.5873   24.8962 C   0  0  0  0  0  0  0  0  0  0  0  0
    8.1566   10.0536   16.0516 O   0  0  0  0  0  0  0  0  0  0  0  0
   12.4989    6.2074   20.1776 C   0  0  0  0  0  0  0  0  0  0  0  0
    6.9192    9.1053   20.9073 O   0  0  0  0  0  0  0  0  0  0  0  0
   14.3979    6.0729   18.7784 C   0  0  0  0  0  0  0  0  0  0  0  0
    8.6811    9.5354   16.9998 C   0  0  0  0  0  0  0  0  0  0  0  0
    9.2512    4.2713   13.7653 O   0  0  0  0  0  0  0  0  0  0  0  0
    9.6495    8.6317   16.8332 N   0  0  0  0  0  0  0  0  0  0  0  0
    6.2934    8.6988   23.1988 O   0  0  0  0  0  0  0  0  0  0  0  0
    7.9806    8.6543   20.5437 C   0  0  0  0  0  0  0  0  0  0  0  0
   13.7270    5.7144   19.8610 O   0  0  0  0  0  0  0  0  0  0  0  0
    8.3351    5.5235   15.4478 C   0  0  0  0  0  0  0  0  0  0  0  0
    8.7700    7.8434   21.3915 C   0  0  0  0  0  0  0  0  0  0  0  0
   11.7856    6.8851   19.2401 C   0  0  0  0  0  0  0  0  0  0  0  0
   10.5281    7.4276   19.5649 C   0  0  0  0  0  0  0  0  0  0  0  0
   10.0256    7.2907   20.8484 C   0  0  0  0  0  0  0  0  0  0  0  0
    9.3113    5.3049   14.4911 C   0  0  0  0  0  0  0  0  0  0  0  0
    9.4607    7.5646   16.0139 C   0  0  0  0  0  0  0  0  0  0  0  0
   10.4192    7.3157   15.0955 C   0  0  0  0  0  0  0  0  0  0  0  0
   10.2489    6.4227   23.0218 N   0  0  0  0  0  0  0  0  0  0  0  0
    7.2472    8.0746   23.5050 C   0  0  0  0  0  0  0  0  0  0  0  0
    9.2051    6.9101   23.4604 C   0  0  0  0  0  0  0  0  0  0  0  0
   11.9646    6.0299   21.4251 C   0  0  0  0  0  0  0  0  0  0  0  0
  1  5  1  0
  1 13  1  0
  2 20  2  0
  2 28  1  0
  2 29  1  0
  3 19  4  0
  3 25  4  0
  4 23  4  0
  4 27  1  0
  4 30  4  0
  5 17  1  0
  6  8  1  0
  6 29  1  0
  7 24  4  0
  7 26  4  0
  8 28  1  0
  9 13  2  0
 10 18  1  0
 10 21  4  0
 10 30  4  0
 11 17  2  0
 12 18  1  0
 13 15  1  0
 14 24  1  0
 15 25  1  0
 16 28  2  0
 17 20  1  0
 19 24  4  0
 20 23  1  0
 21 22  4  0
 22 23  4  0
 25 26  4  0
 27 29  2  0
M  END
$$$$

 Created by Python create_sdf_string function

 30 33  0  0  0  0  0  0  0  0999 V2000
    8.3036    9.8571   18.4133 C   0  0  0  0  0  0  0  0  0  0  0  0
    8.3694    7.6612   22.6703 C   0  0  0  0  0  0  0  0  0  0  0  0
    8.4143    6.6863   16.2273 C   0  0  0  0  0  0  0  0  0  0  0  0
   10.7581    6.5674   21.7636 C   0  0  0  0  0  0  0  0  0  0  0  0
    8.4452    8.7960   19.2958 O   0  0  0  0  0  0  0  0  0  0  0  0
    8.7122    6.7842   24.8569 C   0  0  0  0  0  0  0  0  0  0  0  0
   10.3400    6.1726   14.3081 C   0  0  0  0  0  0  0  0  0  0  0  0
    7.4297    7.5873   24.8962 C   0  0  0  0  0  0  0  0  0  0  0  0
    8.1566   10.0536   16.0516 O   0  0  0  0  0  0  0  0  0  0  0  0
   12.4989    6.2074   20.1776 C   0  0  0  0  0  0  0  0  0  0  0  0
    6.9192    9.1053   20.9073 O   0  0  0  0  0  0  0  0  0  0  0  0
   14.3979    6.0729   18.7784 C   0  0  0  0  0  0  0  0  0  0  0  0
    8.6811    9.5354   16.9998 C   0  0  0  0  0  0  0  0  0  0  0  0
    9.2512    4.2713   13.7653 O   0  0  0  0  0  0  0  0  0  0  0  0
    9.6495    8.6317   16.8332 N   0  0  0  0  0  0  0  0  0  0  0  0
    6.2934    8.6988   23.1988 O   0  0  0  0  0  0  0  0  0  0  0  0
    7.9806    8.6543   20.5437 C   0  0  0  0  0  0  0  0  0  0  0  0
   13.7270    5.7144   19.8610 O   0  0  0  0  0  0  0  0  0  0  0  0
    8.3351    5.5235   15.4478 C   0  0  0  0  0  0  0  0  0  0  0  0
    8.7700    7.8434   21.3915 C   0  0  0  0  0  0  0  0  0  0  0  0
   11.7856    6.8851   19.2401 C   0  0  0  0  0  0  0  0  0  0  0  0
   10.5281    7.4276   19.5649 C   0  0  0  0  0  0  0  0  0  0  0  0
   10.0256    7.2907   20.8484 C   0  0  0  0  0  0  0  0  0  0  0  0
    9.3113    5.3049   14.4911 C   0  0  0  0  0  0  0  0  0  0  0  0
    9.4607    7.5646   16.0139 C   0  0  0  0  0  0  0  0  0  0  0  0
   10.4192    7.3157   15.0955 C   0  0  0  0  0  0  0  0  0  0  0  0
   10.2489    6.4227   23.0218 N   0  0  0  0  0  0  0  0  0  0  0  0
    7.2472    8.0746   23.5050 C   0  0  0  0  0  0  0  0  0  0  0  0
    9.2051    6.9101   23.4604 C   0  0  0  0  0  0  0  0  0  0  0  0
   11.9646    6.0299   21.4251 C   0  0  0  0  0  0  0  0  0  0  0  0
  1  5  1  0
  1 13  1  0
  2 20  2  0
  2 28  1  0
  2 29  1  0
  3 19  4  0
  3 25  4  0
  4 23  4  0
  4 27  1  0
  4 30  4  0
  5 17  1  0
  6  8  1  0
  6 29  1  0
  7 24  4  0
  7 26  4  0
  8 28  1  0
  9 13  2  0
 10 18  1  0
 10 21  4  0
 10 30  4  0
 11 17  2  0
 12 18  1  0
 13 15  1  0
 14 24  1  0
 15 25  1  0
 16 28  2  0
 17 20  1  0
 19 24  4  0
 20 23  1  0
 21 22  4  0
 22 23  4  0
 25 26  4  0
 27 29  2  0
M  END
$$$$

 Created by Python create_sdf_string function

 30 33  0  0  0  0  0  0  0  0999 V2000
    8.3036    9.8571   18.4133 C   0  0  0  0  0  0  0  0  0  0  0  0
    8.3694    7.6612   22.6703 C   0  0  0  0  0  0  0  0  0  0  0  0
    8.4143    6.6863   16.2273 C   0  0  0  0  0  0  0  0  0  0  0  0
   10.7581    6.5674   21.7636 C   0  0  0  0  0  0  0  0  0  0  0  0
    8.4452    8.7960   19.2958 O   0  0  0  0  0  0  0  0  0  0  0  0
    8.7122    6.7842   24.8569 C   0  0  0  0  0  0  0  0  0  0  0  0
   10.3400    6.1726   14.3081 C   0  0  0  0  0  0  0  0  0  0  0  0
    7.4297    7.5873   24.8962 C   0  0  0  0  0  0  0  0  0  0  0  0
    8.1566   10.0536   16.0516 O   0  0  0  0  0  0  0  0  0  0  0  0
   12.4989    6.2074   20.1776 C   0  0  0  0  0  0  0  0  0  0  0  0
    6.9192    9.1053   20.9073 O   0  0  0  0  0  0  0  0  0  0  0  0
   14.3979    6.0729   18.7784 C   0  0  0  0  0  0  0  0  0  0  0  0
    8.6811    9.5354   16.9998 C   0  0  0  0  0  0  0  0  0  0  0  0
    9.2512    4.2713   13.7653 O   0  0  0  0  0  0  0  0  0  0  0  0
    9.6495    8.6317   16.8332 N   0  0  0  0  0  0  0  0  0  0  0  0
    6.2934    8.6988   23.1988 O   0  0  0  0  0  0  0  0  0  0  0  0
    7.9806    8.6543   20.5437 C   0  0  0  0  0  0  0  0  0  0  0  0
   13.7270    5.7144   19.8610 O   0  0  0  0  0  0  0  0  0  0  0  0
    8.3351    5.5235   15.4478 C   0  0  0  0  0  0  0  0  0  0  0  0
    8.7700    7.8434   21.3915 C   0  0  0  0  0  0  0  0  0  0  0  0
   11.7856    6.8851   19.2401 C   0  0  0  0  0  0  0  0  0  0  0  0
   10.5281    7.4276   19.5649 C   0  0  0  0  0  0  0  0  0  0  0  0
   10.0256    7.2907   20.8484 C   0  0  0  0  0  0  0  0  0  0  0  0
    9.3113    5.3049   14.4911 C   0  0  0  0  0  0  0  0  0  0  0  0
    9.4607    7.5646   16.0139 C   0  0  0  0  0  0  0  0  0  0  0  0
   10.4192    7.3157   15.0955 C   0  0  0  0  0  0  0  0  0  0  0  0
   10.2489    6.4227   23.0218 N   0  0  0  0  0  0  0  0  0  0  0  0
    7.2472    8.0746   23.5050 C   0  0  0  0  0  0  0  0  0  0  0  0
    9.2051    6.9101   23.4604 C   0  0  0  0  0  0  0  0  0  0  0  0
   11.9646    6.0299   21.4251 C   0  0  0  0  0  0  0  0  0  0  0  0
  1  5  1  0
  1 13  1  0
  2 20  2  0
  2 28  1  0
  2 29  1  0
  3 19  4  0
  3 25  4  0
  4 23  4  0
  4 27  1  0
  4 30  4  0
  5 17  1  0
  6  8  1  0
  6 29  1  0
  7 24  4  0
  7 26  4  0
  8 28  1  0
  9 13  2  0
 10 18  1  0
 10 21  4  0
 10 30  4  0
 11 17  2  0
 12 18  1  0
 13 15  1  0
 14 24  1  0
 15 25  1  0
 16 28  2  0
 17 20  1  0
 19 24  4  0
 20 23  1  0
 21 22  4  0
 22 23  4  0
 25 26  4  0
 27 29  2  0
M  END
$$$$

 Created by Python create_sdf_string function

 30 33  0  0  0  0  0  0  0  0999 V2000
    8.3036    9.8571   18.4133 C   0  0  0  0  0  0  0  0  0  0  0  0
    8.3694    7.6612   22.6703 C   0  0  0  0  0  0  0  0  0  0  0  0
    8.4143    6.6863   16.2273 C   0  0  0  0  0  0  0  0  0  0  0  0
   10.7581    6.5674   21.7636 C   0  0  0  0  0  0  0  0  0  0  0  0
    8.4452    8.7960   19.2958 O   0  0  0  0  0  0  0  0  0  0  0  0
    8.7122    6.7842   24.8569 C   0  0  0  0  0  0  0  0  0  0  0  0
   10.3400    6.1726   14.3081 C   0  0  0  0  0  0  0  0  0  0  0  0
    7.4297    7.5873   24.8962 C   0  0  0  0  0  0  0  0  0  0  0  0
    8.1566   10.0536   16.0516 O   0  0  0  0  0  0  0  0  0  0  0  0
   12.4989    6.2074   20.1776 C   0  0  0  0  0  0  0  0  0  0  0  0
    6.9192    9.1053   20.9073 O   0  0  0  0  0  0  0  0  0  0  0  0
   14.3979    6.0729   18.7784 C   0  0  0  0  0  0  0  0  0  0  0  0
    8.6811    9.5354   16.9998 C   0  0  0  0  0  0  0  0  0  0  0  0
    9.2512    4.2713   13.7653 O   0  0  0  0  0  0  0  0  0  0  0  0
    9.6495    8.6317   16.8332 N   0  0  0  0  0  0  0  0  0  0  0  0
    6.2934    8.6988   23.1988 O   0  0  0  0  0  0  0  0  0  0  0  0
    7.9806    8.6543   20.5437 C   0  0  0  0  0  0  0  0  0  0  0  0
   13.7270    5.7144   19.8610 O   0  0  0  0  0  0  0  0  0  0  0  0
    8.3351    5.5235   15.4478 C   0  0  0  0  0  0  0  0  0  0  0  0
    8.7700    7.8434   21.3915 C   0  0  0  0  0  0  0  0  0  0  0  0
   11.7856    6.8851   19.2401 C   0  0  0  0  0  0  0  0  0  0  0  0
   10.5281    7.4276   19.5649 C   0  0  0  0  0  0  0  0  0  0  0  0
   10.0256    7.2907   20.8484 C   0  0  0  0  0  0  0  0  0  0  0  0
    9.3113    5.3049   14.4911 C   0  0  0  0  0  0  0  0  0  0  0  0
    9.4607    7.5646   16.0139 C   0  0  0  0  0  0  0  0  0  0  0  0
   10.4192    7.3157   15.0955 C   0  0  0  0  0  0  0  0  0  0  0  0
   10.2489    6.4227   23.0218 N   0  0  0  0  0  0  0  0  0  0  0  0
    7.2472    8.0746   23.5050 C   0  0  0  0  0  0  0  0  0  0  0  0
    9.2051    6.9101   23.4604 C   0  0  0  0  0  0  0  0  0  0  0  0
   11.9646    6.0299   21.4251 C   0  0  0  0  0  0  0  0  0  0  0  0
  1  5  1  0
  1 13  1  0
  2 20  2  0
  2 28  1  0
  2 29  1  0
  3 19  4  0
  3 25  4  0
  4 23  4  0
  4 27  1  0
  4 30  4  0
  5 17  1  0
  6  8  1  0
  6 29  1  0
  7 24  4  0
  7 26  4  0
  8 28  1  0
  9 13  2  0
 10 18  1  0
 10 21  4  0
 10 30  4  0
 11 17  2  0
 12 18  1  0
 13 15  1  0
 14 24  1  0
 15 25  1  0
 16 28  2  0
 17 20  1  0
 19 24  4  0
 20 23  1  0
 21 22  4  0
 22 23  4  0
 25 26  4  0
 27 29  2  0
M  END
$$$$

 Created by Python create_sdf_string function

 30 33  0  0  0  0  0  0  0  0999 V2000
    8.3036    9.8571   18.4133 C   0  0  0  0  0  0  0  0  0  0  0  0
    8.3694    7.6612   22.6703 C   0  0  0  0  0  0  0  0  0  0  0  0
    8.4143    6.6863   16.2273 C   0  0  0  0  0  0  0  0  0  0  0  0
   10.7581    6.5674   21.7636 C   0  0  0  0  0  0  0  0  0  0  0  0
    8.4452    8.7960   19.2958 O   0  0  0  0  0  0  0  0  0  0  0  0
    8.7122    6.7842   24.8569 C   0  0  0  0  0  0  0  0  0  0  0  0
   10.3400    6.1726   14.3081 C   0  0  0  0  0  0  0  0  0  0  0  0
    7.4297    7.5873   24.8962 C   0  0  0  0  0  0  0  0  0  0  0  0
    8.1566   10.0536   16.0516 O   0  0  0  0  0  0  0  0  0  0  0  0
   12.4989    6.2074   20.1776 C   0  0  0  0  0  0  0  0  0  0  0  0
    6.9192    9.1053   20.9073 O   0  0  0  0  0  0  0  0  0  0  0  0
   14.3979    6.0729   18.7784 C   0  0  0  0  0  0  0  0  0  0  0  0
    8.6811    9.5354   16.9998 C   0  0  0  0  0  0  0  0  0  0  0  0
    9.2512    4.2713   13.7653 O   0  0  0  0  0  0  0  0  0  0  0  0
    9.6495    8.6317   16.8332 N   0  0  0  0  0  0  0  0  0  0  0  0
    6.2934    8.6988   23.1988 O   0  0  0  0  0  0  0  0  0  0  0  0
    7.9806    8.6543   20.5437 C   0  0  0  0  0  0  0  0  0  0  0  0
   13.7270    5.7144   19.8610 O   0  0  0  0  0  0  0  0  0  0  0  0
    8.3351    5.5235   15.4478 C   0  0  0  0  0  0  0  0  0  0  0  0
    8.7700    7.8434   21.3915 C   0  0  0  0  0  0  0  0  0  0  0  0
   11.7856    6.8851   19.2401 C   0  0  0  0  0  0  0  0  0  0  0  0
   10.5281    7.4276   19.5649 C   0  0  0  0  0  0  0  0  0  0  0  0
   10.0256    7.2907   20.8484 C   0  0  0  0  0  0  0  0  0  0  0  0
    9.3113    5.3049   14.4911 C   0  0  0  0  0  0  0  0  0  0  0  0
    9.4607    7.5646   16.0139 C   0  0  0  0  0  0  0  0  0  0  0  0
   10.4192    7.3157   15.0955 C   0  0  0  0  0  0  0  0  0  0  0  0
   10.2489    6.4227   23.0218 N   0  0  0  0  0  0  0  0  0  0  0  0
    7.2472    8.0746   23.5050 C   0  0  0  0  0  0  0  0  0  0  0  0
    9.2051    6.9101   23.4604 C   0  0  0  0  0  0  0  0  0  0  0  0
   11.9646    6.0299   21.4251 C   0  0  0  0  0  0  0  0  0  0  0  0
  1  5  1  0
  1 13  1  0
  2 20  2  0
  2 28  1  0
  2 29  1  0
  3 19  4  0
  3 25  4  0
  4 23  4  0
  4 27  1  0
  4 30  4  0
  5 17  1  0
  6  8  1  0
  6 29  1  0
  7 24  4  0
  7 26  4  0
  8 28  1  0
  9 13  2  0
 10 18  1  0
 10 21  4  0
 10 30  4  0
 11 17  2  0
 12 18  1  0
 13 15  1  0
 14 24  1  0
 15 25  1  0
 16 28  2  0
 17 20  1  0
 19 24  4  0
 20 23  1  0
 21 22  4  0
 22 23  4  0
 25 26  4  0
 27 29  2  0
M  END
$$$$

 Created by Python create_sdf_string function

 30 33  0  0  0  0  0  0  0  0999 V2000
    8.3036    9.8571   18.4133 C   0  0  0  0  0  0  0  0  0  0  0  0
    8.3694    7.6612   22.6703 C   0  0  0  0  0  0  0  0  0  0  0  0
    8.4143    6.6863   16.2273 C   0  0  0  0  0  0  0  0  0  0  0  0
   10.7581    6.5674   21.7636 C   0  0  0  0  0  0  0  0  0  0  0  0
    8.4452    8.7960   19.2958 O   0  0  0  0  0  0  0  0  0  0  0  0
    8.7122    6.7842   24.8569 C   0  0  0  0  0  0  0  0  0  0  0  0
   10.3400    6.1726   14.3081 C   0  0  0  0  0  0  0  0  0  0  0  0
    7.4297    7.5873   24.8962 C   0  0  0  0  0  0  0  0  0  0  0  0
    8.1566   10.0536   16.0516 O   0  0  0  0  0  0  0  0  0  0  0  0
   12.4989    6.2074   20.1776 C   0  0  0  0  0  0  0  0  0  0  0  0
    6.9192    9.1053   20.9073 O   0  0  0  0  0  0  0  0  0  0  0  0
   14.3979    6.0729   18.7784 C   0  0  0  0  0  0  0  0  0  0  0  0
    8.6811    9.5354   16.9998 C   0  0  0  0  0  0  0  0  0  0  0  0
    9.2512    4.2713   13.7653 O   0  0  0  0  0  0  0  0  0  0  0  0
    9.6495    8.6317   16.8332 N   0  0  0  0  0  0  0  0  0  0  0  0
    6.2934    8.6988   23.1988 O   0  0  0  0  0  0  0  0  0  0  0  0
    7.9806    8.6543   20.5437 C   0  0  0  0  0  0  0  0  0  0  0  0
   13.7270    5.7144   19.8610 O   0  0  0  0  0  0  0  0  0  0  0  0
    8.3351    5.5235   15.4478 C   0  0  0  0  0  0  0  0  0  0  0  0
    8.7700    7.8434   21.3915 C   0  0  0  0  0  0  0  0  0  0  0  0
   11.7856    6.8851   19.2401 C   0  0  0  0  0  0  0  0  0  0  0  0
   10.5281    7.4276   19.5649 C   0  0  0  0  0  0  0  0  0  0  0  0
   10.0256    7.2907   20.8484 C   0  0  0  0  0  0  0  0  0  0  0  0
    9.3113    5.3049   14.4911 C   0  0  0  0  0  0  0  0  0  0  0  0
    9.4607    7.5646   16.0139 C   0  0  0  0  0  0  0  0  0  0  0  0
   10.4192    7.3157   15.0955 C   0  0  0  0  0  0  0  0  0  0  0  0
   10.2489    6.4227   23.0218 N   0  0  0  0  0  0  0  0  0  0  0  0
    7.2472    8.0746   23.5050 C   0  0  0  0  0  0  0  0  0  0  0  0
    9.2051    6.9101   23.4604 C   0  0  0  0  0  0  0  0  0  0  0  0
   11.9646    6.0299   21.4251 C   0  0  0  0  0  0  0  0  0  0  0  0
  1  5  1  0
  1 13  1  0
  2 20  2  0
  2 28  1  0
  2 29  1  0
  3 19  4  0
  3 25  4  0
  4 23  4  0
  4 27  1  0
  4 30  4  0
  5 17  1  0
  6  8  1  0
  6 29  1  0
  7 24  4  0
  7 26  4  0
  8 28  1  0
  9 13  2  0
 10 18  1  0
 10 21  4  0
 10 30  4  0
 11 17  2  0
 12 18  1  0
 13 15  1  0
 14 24  1  0
 15 25  1  0
 16 28  2  0
 17 20  1  0
 19 24  4  0
 20 23  1  0
 21 22  4  0
 22 23  4  0
 25 26  4  0
 27 29  2  0
M  END
$$$$

 Created by Python create_sdf_string function

 30 33  0  0  0  0  0  0  0  0999 V2000
    8.3036    9.8571   18.4133 C   0  0  0  0  0  0  0  0  0  0  0  0
    8.3694    7.6612   22.6703 C   0  0  0  0  0  0  0  0  0  0  0  0
    8.4143    6.6863   16.2273 C   0  0  0  0  0  0  0  0  0  0  0  0
   10.7581    6.5674   21.7636 C   0  0  0  0  0  0  0  0  0  0  0  0
    8.4452    8.7960   19.2958 O   0  0  0  0  0  0  0  0  0  0  0  0
    8.7122    6.7842   24.8569 C   0  0  0  0  0  0  0  0  0  0  0  0
   10.3400    6.1726   14.3081 C   0  0  0  0  0  0  0  0  0  0  0  0
    7.4297    7.5873   24.8962 C   0  0  0  0  0  0  0  0  0  0  0  0
    8.1566   10.0536   16.0516 O   0  0  0  0  0  0  0  0  0  0  0  0
   12.4989    6.2074   20.1776 C   0  0  0  0  0  0  0  0  0  0  0  0
    6.9192    9.1053   20.9073 O   0  0  0  0  0  0  0  0  0  0  0  0
   14.3979    6.0729   18.7784 C   0  0  0  0  0  0  0  0  0  0  0  0
    8.6811    9.5354   16.9998 C   0  0  0  0  0  0  0  0  0  0  0  0
    9.2512    4.2713   13.7653 O   0  0  0  0  0  0  0  0  0  0  0  0
    9.6495    8.6317   16.8332 N   0  0  0  0  0  0  0  0  0  0  0  0
    6.2934    8.6988   23.1988 O   0  0  0  0  0  0  0  0  0  0  0  0
    7.9806    8.6543   20.5437 C   0  0  0  0  0  0  0  0  0  0  0  0
   13.7270    5.7144   19.8610 O   0  0  0  0  0  0  0  0  0  0  0  0
    8.3351    5.5235   15.4478 C   0  0  0  0  0  0  0  0  0  0  0  0
    8.7700    7.8434   21.3915 C   0  0  0  0  0  0  0  0  0  0  0  0
   11.7856    6.8851   19.2401 C   0  0  0  0  0  0  0  0  0  0  0  0
   10.5281    7.4276   19.5649 C   0  0  0  0  0  0  0  0  0  0  0  0
   10.0256    7.2907   20.8484 C   0  0  0  0  0  0  0  0  0  0  0  0
    9.3113    5.3049   14.4911 C   0  0  0  0  0  0  0  0  0  0  0  0
    9.4607    7.5646   16.0139 C   0  0  0  0  0  0  0  0  0  0  0  0
   10.4192    7.3157   15.0955 C   0  0  0  0  0  0  0  0  0  0  0  0
   10.2489    6.4227   23.0218 N   0  0  0  0  0  0  0  0  0  0  0  0
    7.2472    8.0746   23.5050 C   0  0  0  0  0  0  0  0  0  0  0  0
    9.2051    6.9101   23.4604 C   0  0  0  0  0  0  0  0  0  0  0  0
   11.9646    6.0299   21.4251 C   0  0  0  0  0  0  0  0  0  0  0  0
  1  5  1  0
  1 13  1  0
  2 20  2  0
  2 28  1  0
  2 29  1  0
  3 19  4  0
  3 25  4  0
  4 23  4  0
  4 27  1  0
  4 30  4  0
  5 17  1  0
  6  8  1  0
  6 29  1  0
  7 24  4  0
  7 26  4  0
  8 28  1  0
  9 13  2  0
 10 18  1  0
 10 21  4  0
 10 30  4  0
 11 17  2  0
 12 18  1  0
 13 15  1  0
 14 24  1  0
 15 25  1  0
 16 28  2  0
 17 20  1  0
 19 24  4  0
 20 23  1  0
 21 22  4  0
 22 23  4  0
 25 26  4  0
 27 29  2  0
M  END
$$$$

 Created by Python create_sdf_string function

 30 33  0  0  0  0  0  0  0  0999 V2000
    8.3036    9.8571   18.4133 C   0  0  0  0  0  0  0  0  0  0  0  0
    8.3694    7.6612   22.6703 C   0  0  0  0  0  0  0  0  0  0  0  0
    8.4143    6.6863   16.2273 C   0  0  0  0  0  0  0  0  0  0  0  0
   10.7581    6.5674   21.7636 C   0  0  0  0  0  0  0  0  0  0  0  0
    8.4452    8.7960   19.2958 O   0  0  0  0  0  0  0  0  0  0  0  0
    8.7122    6.7842   24.8569 C   0  0  0  0  0  0  0  0  0  0  0  0
   10.3400    6.1726   14.3081 C   0  0  0  0  0  0  0  0  0  0  0  0
    7.4297    7.5873   24.8962 C   0  0  0  0  0  0  0  0  0  0  0  0
    8.1566   10.0536   16.0516 O   0  0  0  0  0  0  0  0  0  0  0  0
   12.4989    6.2074   20.1776 C   0  0  0  0  0  0  0  0  0  0  0  0
    6.9192    9.1053   20.9073 O   0  0  0  0  0  0  0  0  0  0  0  0
   14.3979    6.0729   18.7784 C   0  0  0  0  0  0  0  0  0  0  0  0
    8.6811    9.5354   16.9998 C   0  0  0  0  0  0  0  0  0  0  0  0
    9.2512    4.2713   13.7653 O   0  0  0  0  0  0  0  0  0  0  0  0
    9.6495    8.6317   16.8332 N   0  0  0  0  0  0  0  0  0  0  0  0
    6.2934    8.6988   23.1988 O   0  0  0  0  0  0  0  0  0  0  0  0
    7.9806    8.6543   20.5437 C   0  0  0  0  0  0  0  0  0  0  0  0
   13.7270    5.7144   19.8610 O   0  0  0  0  0  0  0  0  0  0  0  0
    8.3351    5.5235   15.4478 C   0  0  0  0  0  0  0  0  0  0  0  0
    8.7700    7.8434   21.3915 C   0  0  0  0  0  0  0  0  0  0  0  0
   11.7856    6.8851   19.2401 C   0  0  0  0  0  0  0  0  0  0  0  0
   10.5281    7.4276   19.5649 C   0  0  0  0  0  0  0  0  0  0  0  0
   10.0256    7.2907   20.8484 C   0  0  0  0  0  0  0  0  0  0  0  0
    9.3113    5.3049   14.4911 C   0  0  0  0  0  0  0  0  0  0  0  0
    9.4607    7.5646   16.0139 C   0  0  0  0  0  0  0  0  0  0  0  0
   10.4192    7.3157   15.0955 C   0  0  0  0  0  0  0  0  0  0  0  0
   10.2489    6.4227   23.0218 N   0  0  0  0  0  0  0  0  0  0  0  0
    7.2472    8.0746   23.5050 C   0  0  0  0  0  0  0  0  0  0  0  0
    9.2051    6.9101   23.4604 C   0  0  0  0  0  0  0  0  0  0  0  0
   11.9646    6.0299   21.4251 C   0  0  0  0  0  0  0  0  0  0  0  0
  1  5  1  0
  1 13  1  0
  2 20  2  0
  2 28  1  0
  2 29  1  0
  3 19  4  0
  3 25  4  0
  4 23  4  0
  4 27  1  0
  4 30  4  0
  5 17  1  0
  6  8  1  0
  6 29  1  0
  7 24  4  0
  7 26  4  0
  8 28  1  0
  9 13  2  0
 10 18  1  0
 10 21  4  0
 10 30  4  0
 11 17  2  0
 12 18  1  0
 13 15  1  0
 14 24  1  0
 15 25  1  0
 16 28  2  0
 17 20  1  0
 19 24  4  0
 20 23  1  0
 21 22  4  0
 22 23  4  0
 25 26  4  0
 27 29  2  0
M  END
$$$$

 Created by Python create_sdf_string function

 30 33  0  0  0  0  0  0  0  0999 V2000
    8.3036    9.8571   18.4133 C   0  0  0  0  0  0  0  0  0  0  0  0
    8.3694    7.6612   22.6703 C   0  0  0  0  0  0  0  0  0  0  0  0
    8.4143    6.6863   16.2273 C   0  0  0  0  0  0  0  0  0  0  0  0
   10.7581    6.5674   21.7636 C   0  0  0  0  0  0  0  0  0  0  0  0
    8.4452    8.7960   19.2958 O   0  0  0  0  0  0  0  0  0  0  0  0
    8.7122    6.7842   24.8569 C   0  0  0  0  0  0  0  0  0  0  0  0
   10.3400    6.1726   14.3081 C   0  0  0  0  0  0  0  0  0  0  0  0
    7.4297    7.5873   24.8962 C   0  0  0  0  0  0  0  0  0  0  0  0
    8.1566   10.0536   16.0516 O   0  0  0  0  0  0  0  0  0  0  0  0
   12.4989    6.2074   20.1776 C   0  0  0  0  0  0  0  0  0  0  0  0
    6.9192    9.1053   20.9073 O   0  0  0  0  0  0  0  0  0  0  0  0
   14.3979    6.0729   18.7784 C   0  0  0  0  0  0  0  0  0  0  0  0
    8.6811    9.5354   16.9998 C   0  0  0  0  0  0  0  0  0  0  0  0
    9.2512    4.2713   13.7653 O   0  0  0  0  0  0  0  0  0  0  0  0
    9.6495    8.6317   16.8332 N   0  0  0  0  0  0  0  0  0  0  0  0
    6.2934    8.6988   23.1988 O   0  0  0  0  0  0  0  0  0  0  0  0
    7.9806    8.6543   20.5437 C   0  0  0  0  0  0  0  0  0  0  0  0
   13.7270    5.7144   19.8610 O   0  0  0  0  0  0  0  0  0  0  0  0
    8.3351    5.5235   15.4478 C   0  0  0  0  0  0  0  0  0  0  0  0
    8.7700    7.8434   21.3915 C   0  0  0  0  0  0  0  0  0  0  0  0
   11.7856    6.8851   19.2401 C   0  0  0  0  0  0  0  0  0  0  0  0
   10.5281    7.4276   19.5649 C   0  0  0  0  0  0  0  0  0  0  0  0
   10.0256    7.2907   20.8484 C   0  0  0  0  0  0  0  0  0  0  0  0
    9.3113    5.3049   14.4911 C   0  0  0  0  0  0  0  0  0  0  0  0
    9.4607    7.5646   16.0139 C   0  0  0  0  0  0  0  0  0  0  0  0
   10.4192    7.3157   15.0955 C   0  0  0  0  0  0  0  0  0  0  0  0
   10.2489    6.4227   23.0218 N   0  0  0  0  0  0  0  0  0  0  0  0
    7.2472    8.0746   23.5050 C   0  0  0  0  0  0  0  0  0  0  0  0
    9.2051    6.9101   23.4604 C   0  0  0  0  0  0  0  0  0  0  0  0
   11.9646    6.0299   21.4251 C   0  0  0  0  0  0  0  0  0  0  0  0
  1  5  1  0
  1 13  1  0
  2 20  2  0
  2 28  1  0
  2 29  1  0
  3 19  4  0
  3 25  4  0
  4 23  4  0
  4 27  1  0
  4 30  4  0
  5 17  1  0
  6  8  1  0
  6 29  1  0
  7 24  4  0
  7 26  4  0
  8 28  1  0
  9 13  2  0
 10 18  1  0
 10 21  4  0
 10 30  4  0
 11 17  2  0
 12 18  1  0
 13 15  1  0
 14 24  1  0
 15 25  1  0
 16 28  2  0
 17 20  1  0
 19 24  4  0
 20 23  1  0
 21 22  4  0
 22 23  4  0
 25 26  4  0
 27 29  2  0
M  END
$$$$

 Created by Python create_sdf_string function

 30 33  0  0  0  0  0  0  0  0999 V2000
    8.3036    9.8571   18.4133 C   0  0  0  0  0  0  0  0  0  0  0  0
    8.3694    7.6612   22.6703 C   0  0  0  0  0  0  0  0  0  0  0  0
    8.4143    6.6863   16.2273 C   0  0  0  0  0  0  0  0  0  0  0  0
   10.7581    6.5674   21.7636 C   0  0  0  0  0  0  0  0  0  0  0  0
    8.4452    8.7960   19.2958 O   0  0  0  0  0  0  0  0  0  0  0  0
    8.7122    6.7842   24.8569 C   0  0  0  0  0  0  0  0  0  0  0  0
   10.3400    6.1726   14.3081 C   0  0  0  0  0  0  0  0  0  0  0  0
    7.4297    7.5873   24.8962 C   0  0  0  0  0  0  0  0  0  0  0  0
    8.1566   10.0536   16.0516 O   0  0  0  0  0  0  0  0  0  0  0  0
   12.4989    6.2074   20.1776 C   0  0  0  0  0  0  0  0  0  0  0  0
    6.9192    9.1053   20.9073 O   0  0  0  0  0  0  0  0  0  0  0  0
   14.3979    6.0729   18.7784 C   0  0  0  0  0  0  0  0  0  0  0  0
    8.6811    9.5354   16.9998 C   0  0  0  0  0  0  0  0  0  0  0  0
    9.2512    4.2713   13.7653 O   0  0  0  0  0  0  0  0  0  0  0  0
    9.6495    8.6317   16.8332 N   0  0  0  0  0  0  0  0  0  0  0  0
    6.2934    8.6988   23.1988 O   0  0  0  0  0  0  0  0  0  0  0  0
    7.9806    8.6543   20.5437 C   0  0  0  0  0  0  0  0  0  0  0  0
   13.7270    5.7144   19.8610 O   0  0  0  0  0  0  0  0  0  0  0  0
    8.3351    5.5235   15.4478 C   0  0  0  0  0  0  0  0  0  0  0  0
    8.7700    7.8434   21.3915 C   0  0  0  0  0  0  0  0  0  0  0  0
   11.7856    6.8851   19.2401 C   0  0  0  0  0  0  0  0  0  0  0  0
   10.5281    7.4276   19.5649 C   0  0  0  0  0  0  0  0  0  0  0  0
   10.0256    7.2907   20.8484 C   0  0  0  0  0  0  0  0  0  0  0  0
    9.3113    5.3049   14.4911 C   0  0  0  0  0  0  0  0  0  0  0  0
    9.4607    7.5646   16.0139 C   0  0  0  0  0  0  0  0  0  0  0  0
   10.4192    7.3157   15.0955 C   0  0  0  0  0  0  0  0  0  0  0  0
   10.2489    6.4227   23.0218 N   0  0  0  0  0  0  0  0  0  0  0  0
    7.2472    8.0746   23.5050 C   0  0  0  0  0  0  0  0  0  0  0  0
    9.2051    6.9101   23.4604 C   0  0  0  0  0  0  0  0  0  0  0  0
   11.9646    6.0299   21.4251 C   0  0  0  0  0  0  0  0  0  0  0  0
  1  5  1  0
  1 13  1  0
  2 20  2  0
  2 28  1  0
  2 29  1  0
  3 19  4  0
  3 25  4  0
  4 23  4  0
  4 27  1  0
  4 30  4  0
  5 17  1  0
  6  8  1  0
  6 29  1  0
  7 24  4  0
  7 26  4  0
  8 28  1  0
  9 13  2  0
 10 18  1  0
 10 21  4  0
 10 30  4  0
 11 17  2  0
 12 18  1  0
 13 15  1  0
 14 24  1  0
 15 25  1  0
 16 28  2  0
 17 20  1  0
 19 24  4  0
 20 23  1  0
 21 22  4  0
 22 23  4  0
 25 26  4  0
 27 29  2  0
M  END
$$$$

 Created by Python create_sdf_string function

 30 33  0  0  0  0  0  0  0  0999 V2000
    8.3036    9.8571   18.4133 C   0  0  0  0  0  0  0  0  0  0  0  0
    8.3694    7.6612   22.6703 C   0  0  0  0  0  0  0  0  0  0  0  0
    8.4143    6.6863   16.2273 C   0  0  0  0  0  0  0  0  0  0  0  0
   10.7581    6.5674   21.7636 C   0  0  0  0  0  0  0  0  0  0  0  0
    8.4452    8.7960   19.2958 O   0  0  0  0  0  0  0  0  0  0  0  0
    8.7122    6.7842   24.8569 C   0  0  0  0  0  0  0  0  0  0  0  0
   10.3400    6.1726   14.3081 C   0  0  0  0  0  0  0  0  0  0  0  0
    7.4297    7.5873   24.8962 C   0  0  0  0  0  0  0  0  0  0  0  0
    8.1566   10.0536   16.0516 O   0  0  0  0  0  0  0  0  0  0  0  0
   12.4989    6.2074   20.1776 C   0  0  0  0  0  0  0  0  0  0  0  0
    6.9192    9.1053   20.9073 O   0  0  0  0  0  0  0  0  0  0  0  0
   14.3979    6.0729   18.7784 C   0  0  0  0  0  0  0  0  0  0  0  0
    8.6811    9.5354   16.9998 C   0  0  0  0  0  0  0  0  0  0  0  0
    9.2512    4.2713   13.7653 O   0  0  0  0  0  0  0  0  0  0  0  0
    9.6495    8.6317   16.8332 N   0  0  0  0  0  0  0  0  0  0  0  0
    6.2934    8.6988   23.1988 O   0  0  0  0  0  0  0  0  0  0  0  0
    7.9806    8.6543   20.5437 C   0  0  0  0  0  0  0  0  0  0  0  0
   13.7270    5.7144   19.8610 O   0  0  0  0  0  0  0  0  0  0  0  0
    8.3351    5.5235   15.4478 C   0  0  0  0  0  0  0  0  0  0  0  0
    8.7700    7.8434   21.3915 C   0  0  0  0  0  0  0  0  0  0  0  0
   11.7856    6.8851   19.2401 C   0  0  0  0  0  0  0  0  0  0  0  0
   10.5281    7.4276   19.5649 C   0  0  0  0  0  0  0  0  0  0  0  0
   10.0256    7.2907   20.8484 C   0  0  0  0  0  0  0  0  0  0  0  0
    9.3113    5.3049   14.4911 C   0  0  0  0  0  0  0  0  0  0  0  0
    9.4607    7.5646   16.0139 C   0  0  0  0  0  0  0  0  0  0  0  0
   10.4192    7.3157   15.0955 C   0  0  0  0  0  0  0  0  0  0  0  0
   10.2489    6.4227   23.0218 N   0  0  0  0  0  0  0  0  0  0  0  0
    7.2472    8.0746   23.5050 C   0  0  0  0  0  0  0  0  0  0  0  0
    9.2051    6.9101   23.4604 C   0  0  0  0  0  0  0  0  0  0  0  0
   11.9646    6.0299   21.4251 C   0  0  0  0  0  0  0  0  0  0  0  0
  1  5  1  0
  1 13  1  0
  2 20  2  0
  2 28  1  0
  2 29  1  0
  3 19  4  0
  3 25  4  0
  4 23  4  0
  4 27  1  0
  4 30  4  0
  5 17  1  0
  6  8  1  0
  6 29  1  0
  7 24  4  0
  7 26  4  0
  8 28  1  0
  9 13  2  0
 10 18  1  0
 10 21  4  0
 10 30  4  0
 11 17  2  0
 12 18  1  0
 13 15  1  0
 14 24  1  0
 15 25  1  0
 16 28  2  0
 17 20  1  0
 19 24  4  0
 20 23  1  0
 21 22  4  0
 22 23  4  0
 25 26  4  0
 27 29  2  0
M  END
$$$$

 Created by Python create_sdf_string function

 30 33  0  0  0  0  0  0  0  0999 V2000
    8.3036    9.8571   18.4133 C   0  0  0  0  0  0  0  0  0  0  0  0
    8.3694    7.6612   22.6703 C   0  0  0  0  0  0  0  0  0  0  0  0
    8.4143    6.6863   16.2273 C   0  0  0  0  0  0  0  0  0  0  0  0
   10.7581    6.5674   21.7636 C   0  0  0  0  0  0  0  0  0  0  0  0
    8.4452    8.7960   19.2958 O   0  0  0  0  0  0  0  0  0  0  0  0
    8.7122    6.7842   24.8569 C   0  0  0  0  0  0  0  0  0  0  0  0
   10.3400    6.1726   14.3081 C   0  0  0  0  0  0  0  0  0  0  0  0
    7.4297    7.5873   24.8962 C   0  0  0  0  0  0  0  0  0  0  0  0
    8.1566   10.0536   16.0516 O   0  0  0  0  0  0  0  0  0  0  0  0
   12.4989    6.2074   20.1776 C   0  0  0  0  0  0  0  0  0  0  0  0
    6.9192    9.1053   20.9073 O   0  0  0  0  0  0  0  0  0  0  0  0
   14.3979    6.0729   18.7784 C   0  0  0  0  0  0  0  0  0  0  0  0
    8.6811    9.5354   16.9998 C   0  0  0  0  0  0  0  0  0  0  0  0
    9.2512    4.2713   13.7653 O   0  0  0  0  0  0  0  0  0  0  0  0
    9.6495    8.6317   16.8332 N   0  0  0  0  0  0  0  0  0  0  0  0
    6.2934    8.6988   23.1988 O   0  0  0  0  0  0  0  0  0  0  0  0
    7.9806    8.6543   20.5437 C   0  0  0  0  0  0  0  0  0  0  0  0
   13.7270    5.7144   19.8610 O   0  0  0  0  0  0  0  0  0  0  0  0
    8.3351    5.5235   15.4478 C   0  0  0  0  0  0  0  0  0  0  0  0
    8.7700    7.8434   21.3915 C   0  0  0  0  0  0  0  0  0  0  0  0
   11.7856    6.8851   19.2401 C   0  0  0  0  0  0  0  0  0  0  0  0
   10.5281    7.4276   19.5649 C   0  0  0  0  0  0  0  0  0  0  0  0
   10.0256    7.2907   20.8484 C   0  0  0  0  0  0  0  0  0  0  0  0
    9.3113    5.3049   14.4911 C   0  0  0  0  0  0  0  0  0  0  0  0
    9.4607    7.5646   16.0139 C   0  0  0  0  0  0  0  0  0  0  0  0
   10.4192    7.3157   15.0955 C   0  0  0  0  0  0  0  0  0  0  0  0
   10.2489    6.4227   23.0218 N   0  0  0  0  0  0  0  0  0  0  0  0
    7.2472    8.0746   23.5050 C   0  0  0  0  0  0  0  0  0  0  0  0
    9.2051    6.9101   23.4604 C   0  0  0  0  0  0  0  0  0  0  0  0
   11.9646    6.0299   21.4251 C   0  0  0  0  0  0  0  0  0  0  0  0
  1  5  1  0
  1 13  1  0
  2 20  2  0
  2 28  1  0
  2 29  1  0
  3 19  4  0
  3 25  4  0
  4 23  4  0
  4 27  1  0
  4 30  4  0
  5 17  1  0
  6  8  1  0
  6 29  1  0
  7 24  4  0
  7 26  4  0
  8 28  1  0
  9 13  2  0
 10 18  1  0
 10 21  4  0
 10 30  4  0
 11 17  2  0
 12 18  1  0
 13 15  1  0
 14 24  1  0
 15 25  1  0
 16 28  2  0
 17 20  1  0
 19 24  4  0
 20 23  1  0
 21 22  4  0
 22 23  4  0
 25 26  4  0
 27 29  2  0
M  END
$$$$

 Created by Python create_sdf_string function

 30 33  0  0  0  0  0  0  0  0999 V2000
    8.3036    9.8571   18.4133 C   0  0  0  0  0  0  0  0  0  0  0  0
    8.3694    7.6612   22.6703 C   0  0  0  0  0  0  0  0  0  0  0  0
    8.4143    6.6863   16.2273 C   0  0  0  0  0  0  0  0  0  0  0  0
   10.7581    6.5674   21.7636 C   0  0  0  0  0  0  0  0  0  0  0  0
    8.4452    8.7960   19.2958 O   0  0  0  0  0  0  0  0  0  0  0  0
    8.7122    6.7842   24.8569 C   0  0  0  0  0  0  0  0  0  0  0  0
   10.3400    6.1726   14.3081 C   0  0  0  0  0  0  0  0  0  0  0  0
    7.4297    7.5873   24.8962 C   0  0  0  0  0  0  0  0  0  0  0  0
    8.1566   10.0536   16.0516 O   0  0  0  0  0  0  0  0  0  0  0  0
   12.4989    6.2074   20.1776 C   0  0  0  0  0  0  0  0  0  0  0  0
    6.9192    9.1053   20.9073 O   0  0  0  0  0  0  0  0  0  0  0  0
   14.3979    6.0729   18.7784 C   0  0  0  0  0  0  0  0  0  0  0  0
    8.6811    9.5354   16.9998 C   0  0  0  0  0  0  0  0  0  0  0  0
    9.2512    4.2713   13.7653 O   0  0  0  0  0  0  0  0  0  0  0  0
    9.6495    8.6317   16.8332 N   0  0  0  0  0  0  0  0  0  0  0  0
    6.2934    8.6988   23.1988 O   0  0  0  0  0  0  0  0  0  0  0  0
    7.9806    8.6543   20.5437 C   0  0  0  0  0  0  0  0  0  0  0  0
   13.7270    5.7144   19.8610 O   0  0  0  0  0  0  0  0  0  0  0  0
    8.3351    5.5235   15.4478 C   0  0  0  0  0  0  0  0  0  0  0  0
    8.7700    7.8434   21.3915 C   0  0  0  0  0  0  0  0  0  0  0  0
   11.7856    6.8851   19.2401 C   0  0  0  0  0  0  0  0  0  0  0  0
   10.5281    7.4276   19.5649 C   0  0  0  0  0  0  0  0  0  0  0  0
   10.0256    7.2907   20.8484 C   0  0  0  0  0  0  0  0  0  0  0  0
    9.3113    5.3049   14.4911 C   0  0  0  0  0  0  0  0  0  0  0  0
    9.4607    7.5646   16.0139 C   0  0  0  0  0  0  0  0  0  0  0  0
   10.4192    7.3157   15.0955 C   0  0  0  0  0  0  0  0  0  0  0  0
   10.2489    6.4227   23.0218 N   0  0  0  0  0  0  0  0  0  0  0  0
    7.2472    8.0746   23.5050 C   0  0  0  0  0  0  0  0  0  0  0  0
    9.2051    6.9101   23.4604 C   0  0  0  0  0  0  0  0  0  0  0  0
   11.9646    6.0299   21.4251 C   0  0  0  0  0  0  0  0  0  0  0  0
  1  5  1  0
  1 13  1  0
  2 20  2  0
  2 28  1  0
  2 29  1  0
  3 19  4  0
  3 25  4  0
  4 23  4  0
  4 27  1  0
  4 30  4  0
  5 17  1  0
  6  8  1  0
  6 29  1  0
  7 24  4  0
  7 26  4  0
  8 28  1  0
  9 13  2  0
 10 18  1  0
 10 21  4  0
 10 30  4  0
 11 17  2  0
 12 18  1  0
 13 15  1  0
 14 24  1  0
 15 25  1  0
 16 28  2  0
 17 20  1  0
 19 24  4  0
 20 23  1  0
 21 22  4  0
 22 23  4  0
 25 26  4  0
 27 29  2  0
M  END
$$$$

 Created by Python create_sdf_string function

 30 33  0  0  0  0  0  0  0  0999 V2000
    8.3036    9.8571   18.4133 C   0  0  0  0  0  0  0  0  0  0  0  0
    8.3694    7.6612   22.6703 C   0  0  0  0  0  0  0  0  0  0  0  0
    8.4143    6.6863   16.2273 C   0  0  0  0  0  0  0  0  0  0  0  0
   10.7581    6.5674   21.7636 C   0  0  0  0  0  0  0  0  0  0  0  0
    8.4452    8.7960   19.2958 O   0  0  0  0  0  0  0  0  0  0  0  0
    8.7122    6.7842   24.8569 C   0  0  0  0  0  0  0  0  0  0  0  0
   10.3400    6.1726   14.3081 C   0  0  0  0  0  0  0  0  0  0  0  0
    7.4297    7.5873   24.8962 C   0  0  0  0  0  0  0  0  0  0  0  0
    8.1566   10.0536   16.0516 O   0  0  0  0  0  0  0  0  0  0  0  0
   12.4989    6.2074   20.1776 C   0  0  0  0  0  0  0  0  0  0  0  0
    6.9192    9.1053   20.9073 O   0  0  0  0  0  0  0  0  0  0  0  0
   14.3979    6.0729   18.7784 C   0  0  0  0  0  0  0  0  0  0  0  0
    8.6811    9.5354   16.9998 C   0  0  0  0  0  0  0  0  0  0  0  0
    9.2512    4.2713   13.7653 O   0  0  0  0  0  0  0  0  0  0  0  0
    9.6495    8.6317   16.8332 N   0  0  0  0  0  0  0  0  0  0  0  0
    6.2934    8.6988   23.1988 O   0  0  0  0  0  0  0  0  0  0  0  0
    7.9806    8.6543   20.5437 C   0  0  0  0  0  0  0  0  0  0  0  0
   13.7270    5.7144   19.8610 O   0  0  0  0  0  0  0  0  0  0  0  0
    8.3351    5.5235   15.4478 C   0  0  0  0  0  0  0  0  0  0  0  0
    8.7700    7.8434   21.3915 C   0  0  0  0  0  0  0  0  0  0  0  0
   11.7856    6.8851   19.2401 C   0  0  0  0  0  0  0  0  0  0  0  0
   10.5281    7.4276   19.5649 C   0  0  0  0  0  0  0  0  0  0  0  0
   10.0256    7.2907   20.8484 C   0  0  0  0  0  0  0  0  0  0  0  0
    9.3113    5.3049   14.4911 C   0  0  0  0  0  0  0  0  0  0  0  0
    9.4607    7.5646   16.0139 C   0  0  0  0  0  0  0  0  0  0  0  0
   10.4192    7.3157   15.0955 C   0  0  0  0  0  0  0  0  0  0  0  0
   10.2489    6.4227   23.0218 N   0  0  0  0  0  0  0  0  0  0  0  0
    7.2472    8.0746   23.5050 C   0  0  0  0  0  0  0  0  0  0  0  0
    9.2051    6.9101   23.4604 C   0  0  0  0  0  0  0  0  0  0  0  0
   11.9646    6.0299   21.4251 C   0  0  0  0  0  0  0  0  0  0  0  0
  1  5  1  0
  1 13  1  0
  2 20  2  0
  2 28  1  0
  2 29  1  0
  3 19  4  0
  3 25  4  0
  4 23  4  0
  4 27  1  0
  4 30  4  0
  5 17  1  0
  6  8  1  0
  6 29  1  0
  7 24  4  0
  7 26  4  0
  8 28  1  0
  9 13  2  0
 10 18  1  0
 10 21  4  0
 10 30  4  0
 11 17  2  0
 12 18  1  0
 13 15  1  0
 14 24  1  0
 15 25  1  0
 16 28  2  0
 17 20  1  0
 19 24  4  0
 20 23  1  0
 21 22  4  0
 22 23  4  0
 25 26  4  0
 27 29  2  0
M  END
$$$$

 Created by Python create_sdf_string function

 30 33  0  0  0  0  0  0  0  0999 V2000
    8.3036    9.8571   18.4133 C   0  0  0  0  0  0  0  0  0  0  0  0
    8.3694    7.6612   22.6703 C   0  0  0  0  0  0  0  0  0  0  0  0
    8.4143    6.6863   16.2273 C   0  0  0  0  0  0  0  0  0  0  0  0
   10.7581    6.5674   21.7636 C   0  0  0  0  0  0  0  0  0  0  0  0
    8.4452    8.7960   19.2958 O   0  0  0  0  0  0  0  0  0  0  0  0
    8.7122    6.7842   24.8569 C   0  0  0  0  0  0  0  0  0  0  0  0
   10.3400    6.1726   14.3081 C   0  0  0  0  0  0  0  0  0  0  0  0
    7.4297    7.5873   24.8962 C   0  0  0  0  0  0  0  0  0  0  0  0
    8.1566   10.0536   16.0516 O   0  0  0  0  0  0  0  0  0  0  0  0
   12.4989    6.2074   20.1776 C   0  0  0  0  0  0  0  0  0  0  0  0
    6.9192    9.1053   20.9073 O   0  0  0  0  0  0  0  0  0  0  0  0
   14.3979    6.0729   18.7784 C   0  0  0  0  0  0  0  0  0  0  0  0
    8.6811    9.5354   16.9998 C   0  0  0  0  0  0  0  0  0  0  0  0
    9.2512    4.2713   13.7653 O   0  0  0  0  0  0  0  0  0  0  0  0
    9.6495    8.6317   16.8332 N   0  0  0  0  0  0  0  0  0  0  0  0
    6.2934    8.6988   23.1988 O   0  0  0  0  0  0  0  0  0  0  0  0
    7.9806    8.6543   20.5437 C   0  0  0  0  0  0  0  0  0  0  0  0
   13.7270    5.7144   19.8610 O   0  0  0  0  0  0  0  0  0  0  0  0
    8.3351    5.5235   15.4478 C   0  0  0  0  0  0  0  0  0  0  0  0
    8.7700    7.8434   21.3915 C   0  0  0  0  0  0  0  0  0  0  0  0
   11.7856    6.8851   19.2401 C   0  0  0  0  0  0  0  0  0  0  0  0
   10.5281    7.4276   19.5649 C   0  0  0  0  0  0  0  0  0  0  0  0
   10.0256    7.2907   20.8484 C   0  0  0  0  0  0  0  0  0  0  0  0
    9.3113    5.3049   14.4911 C   0  0  0  0  0  0  0  0  0  0  0  0
    9.4607    7.5646   16.0139 C   0  0  0  0  0  0  0  0  0  0  0  0
   10.4192    7.3157   15.0955 C   0  0  0  0  0  0  0  0  0  0  0  0
   10.2489    6.4227   23.0218 N   0  0  0  0  0  0  0  0  0  0  0  0
    7.2472    8.0746   23.5050 C   0  0  0  0  0  0  0  0  0  0  0  0
    9.2051    6.9101   23.4604 C   0  0  0  0  0  0  0  0  0  0  0  0
   11.9646    6.0299   21.4251 C   0  0  0  0  0  0  0  0  0  0  0  0
  1  5  1  0
  1 13  1  0
  2 20  2  0
  2 28  1  0
  2 29  1  0
  3 19  4  0
  3 25  4  0
  4 23  4  0
  4 27  1  0
  4 30  4  0
  5 17  1  0
  6  8  1  0
  6 29  1  0
  7 24  4  0
  7 26  4  0
  8 28  1  0
  9 13  2  0
 10 18  1  0
 10 21  4  0
 10 30  4  0
 11 17  2  0
 12 18  1  0
 13 15  1  0
 14 24  1  0
 15 25  1  0
 16 28  2  0
 17 20  1  0
 19 24  4  0
 20 23  1  0
 21 22  4  0
 22 23  4  0
 25 26  4  0
 27 29  2  0
M  END
$$$$

 Created by Python create_sdf_string function

 30 33  0  0  0  0  0  0  0  0999 V2000
    8.3036    9.8571   18.4133 C   0  0  0  0  0  0  0  0  0  0  0  0
    8.3694    7.6612   22.6703 C   0  0  0  0  0  0  0  0  0  0  0  0
    8.4143    6.6863   16.2273 C   0  0  0  0  0  0  0  0  0  0  0  0
   10.7581    6.5674   21.7636 C   0  0  0  0  0  0  0  0  0  0  0  0
    8.4452    8.7960   19.2958 O   0  0  0  0  0  0  0  0  0  0  0  0
    8.7122    6.7842   24.8569 C   0  0  0  0  0  0  0  0  0  0  0  0
   10.3400    6.1726   14.3081 C   0  0  0  0  0  0  0  0  0  0  0  0
    7.4297    7.5873   24.8962 C   0  0  0  0  0  0  0  0  0  0  0  0
    8.1566   10.0536   16.0516 O   0  0  0  0  0  0  0  0  0  0  0  0
   12.4989    6.2074   20.1776 C   0  0  0  0  0  0  0  0  0  0  0  0
    6.9192    9.1053   20.9073 O   0  0  0  0  0  0  0  0  0  0  0  0
   14.3979    6.0729   18.7784 C   0  0  0  0  0  0  0  0  0  0  0  0
    8.6811    9.5354   16.9998 C   0  0  0  0  0  0  0  0  0  0  0  0
    9.2512    4.2713   13.7653 O   0  0  0  0  0  0  0  0  0  0  0  0
    9.6495    8.6317   16.8332 N   0  0  0  0  0  0  0  0  0  0  0  0
    6.2934    8.6988   23.1988 O   0  0  0  0  0  0  0  0  0  0  0  0
    7.9806    8.6543   20.5437 C   0  0  0  0  0  0  0  0  0  0  0  0
   13.7270    5.7144   19.8610 O   0  0  0  0  0  0  0  0  0  0  0  0
    8.3351    5.5235   15.4478 C   0  0  0  0  0  0  0  0  0  0  0  0
    8.7700    7.8434   21.3915 C   0  0  0  0  0  0  0  0  0  0  0  0
   11.7856    6.8851   19.2401 C   0  0  0  0  0  0  0  0  0  0  0  0
   10.5281    7.4276   19.5649 C   0  0  0  0  0  0  0  0  0  0  0  0
   10.0256    7.2907   20.8484 C   0  0  0  0  0  0  0  0  0  0  0  0
    9.3113    5.3049   14.4911 C   0  0  0  0  0  0  0  0  0  0  0  0
    9.4607    7.5646   16.0139 C   0  0  0  0  0  0  0  0  0  0  0  0
   10.4192    7.3157   15.0955 C   0  0  0  0  0  0  0  0  0  0  0  0
   10.2489    6.4227   23.0218 N   0  0  0  0  0  0  0  0  0  0  0  0
    7.2472    8.0746   23.5050 C   0  0  0  0  0  0  0  0  0  0  0  0
    9.2051    6.9101   23.4604 C   0  0  0  0  0  0  0  0  0  0  0  0
   11.9646    6.0299   21.4251 C   0  0  0  0  0  0  0  0  0  0  0  0
  1  5  1  0
  1 13  1  0
  2 20  2  0
  2 28  1  0
  2 29  1  0
  3 19  4  0
  3 25  4  0
  4 23  4  0
  4 27  1  0
  4 30  4  0
  5 17  1  0
  6  8  1  0
  6 29  1  0
  7 24  4  0
  7 26  4  0
  8 28  1  0
  9 13  2  0
 10 18  1  0
 10 21  4  0
 10 30  4  0
 11 17  2  0
 12 18  1  0
 13 15  1  0
 14 24  1  0
 15 25  1  0
 16 28  2  0
 17 20  1  0
 19 24  4  0
 20 23  1  0
 21 22  4  0
 22 23  4  0
 25 26  4  0
 27 29  2  0
M  END
$$$$

 Created by Python create_sdf_string function

 30 33  0  0  0  0  0  0  0  0999 V2000
    8.3036    9.8571   18.4133 C   0  0  0  0  0  0  0  0  0  0  0  0
    8.3694    7.6612   22.6703 C   0  0  0  0  0  0  0  0  0  0  0  0
    8.4143    6.6863   16.2273 C   0  0  0  0  0  0  0  0  0  0  0  0
   10.7581    6.5674   21.7636 C   0  0  0  0  0  0  0  0  0  0  0  0
    8.4452    8.7960   19.2958 O   0  0  0  0  0  0  0  0  0  0  0  0
    8.7122    6.7842   24.8569 C   0  0  0  0  0  0  0  0  0  0  0  0
   10.3400    6.1726   14.3081 C   0  0  0  0  0  0  0  0  0  0  0  0
    7.4297    7.5873   24.8962 C   0  0  0  0  0  0  0  0  0  0  0  0
    8.1566   10.0536   16.0516 O   0  0  0  0  0  0  0  0  0  0  0  0
   12.4989    6.2074   20.1776 C   0  0  0  0  0  0  0  0  0  0  0  0
    6.9192    9.1053   20.9073 O   0  0  0  0  0  0  0  0  0  0  0  0
   14.3979    6.0729   18.7784 C   0  0  0  0  0  0  0  0  0  0  0  0
    8.6811    9.5354   16.9998 C   0  0  0  0  0  0  0  0  0  0  0  0
    9.2512    4.2713   13.7653 O   0  0  0  0  0  0  0  0  0  0  0  0
    9.6495    8.6317   16.8332 N   0  0  0  0  0  0  0  0  0  0  0  0
    6.2934    8.6988   23.1988 O   0  0  0  0  0  0  0  0  0  0  0  0
    7.9806    8.6543   20.5437 C   0  0  0  0  0  0  0  0  0  0  0  0
   13.7270    5.7144   19.8610 O   0  0  0  0  0  0  0  0  0  0  0  0
    8.3351    5.5235   15.4478 C   0  0  0  0  0  0  0  0  0  0  0  0
    8.7700    7.8434   21.3915 C   0  0  0  0  0  0  0  0  0  0  0  0
   11.7856    6.8851   19.2401 C   0  0  0  0  0  0  0  0  0  0  0  0
   10.5281    7.4276   19.5649 C   0  0  0  0  0  0  0  0  0  0  0  0
   10.0256    7.2907   20.8484 C   0  0  0  0  0  0  0  0  0  0  0  0
    9.3113    5.3049   14.4911 C   0  0  0  0  0  0  0  0  0  0  0  0
    9.4607    7.5646   16.0139 C   0  0  0  0  0  0  0  0  0  0  0  0
   10.4192    7.3157   15.0955 C   0  0  0  0  0  0  0  0  0  0  0  0
   10.2489    6.4227   23.0218 N   0  0  0  0  0  0  0  0  0  0  0  0
    7.2472    8.0746   23.5050 C   0  0  0  0  0  0  0  0  0  0  0  0
    9.2051    6.9101   23.4604 C   0  0  0  0  0  0  0  0  0  0  0  0
   11.9646    6.0299   21.4251 C   0  0  0  0  0  0  0  0  0  0  0  0
  1  5  1  0
  1 13  1  0
  2 20  2  0
  2 28  1  0
  2 29  1  0
  3 19  4  0
  3 25  4  0
  4 23  4  0
  4 27  1  0
  4 30  4  0
  5 17  1  0
  6  8  1  0
  6 29  1  0
  7 24  4  0
  7 26  4  0
  8 28  1  0
  9 13  2  0
 10 18  1  0
 10 21  4  0
 10 30  4  0
 11 17  2  0
 12 18  1  0
 13 15  1  0
 14 24  1  0
 15 25  1  0
 16 28  2  0
 17 20  1  0
 19 24  4  0
 20 23  1  0
 21 22  4  0
 22 23  4  0
 25 26  4  0
 27 29  2  0
M  END
$$$$

 Created by Python create_sdf_string function

 30 33  0  0  0  0  0  0  0  0999 V2000
    8.3036    9.8571   18.4133 C   0  0  0  0  0  0  0  0  0  0  0  0
    8.3694    7.6612   22.6703 C   0  0  0  0  0  0  0  0  0  0  0  0
    8.4143    6.6863   16.2273 C   0  0  0  0  0  0  0  0  0  0  0  0
   10.7581    6.5674   21.7636 C   0  0  0  0  0  0  0  0  0  0  0  0
    8.4452    8.7960   19.2958 O   0  0  0  0  0  0  0  0  0  0  0  0
    8.7122    6.7842   24.8569 C   0  0  0  0  0  0  0  0  0  0  0  0
   10.3400    6.1726   14.3081 C   0  0  0  0  0  0  0  0  0  0  0  0
    7.4297    7.5873   24.8962 C   0  0  0  0  0  0  0  0  0  0  0  0
    8.1566   10.0536   16.0516 O   0  0  0  0  0  0  0  0  0  0  0  0
   12.4989    6.2074   20.1776 C   0  0  0  0  0  0  0  0  0  0  0  0
    6.9192    9.1053   20.9073 O   0  0  0  0  0  0  0  0  0  0  0  0
   14.3979    6.0729   18.7784 C   0  0  0  0  0  0  0  0  0  0  0  0
    8.6811    9.5354   16.9998 C   0  0  0  0  0  0  0  0  0  0  0  0
    9.2512    4.2713   13.7653 O   0  0  0  0  0  0  0  0  0  0  0  0
    9.6495    8.6317   16.8332 N   0  0  0  0  0  0  0  0  0  0  0  0
    6.2934    8.6988   23.1988 O   0  0  0  0  0  0  0  0  0  0  0  0
    7.9806    8.6543   20.5437 C   0  0  0  0  0  0  0  0  0  0  0  0
   13.7270    5.7144   19.8610 O   0  0  0  0  0  0  0  0  0  0  0  0
    8.3351    5.5235   15.4478 C   0  0  0  0  0  0  0  0  0  0  0  0
    8.7700    7.8434   21.3915 C   0  0  0  0  0  0  0  0  0  0  0  0
   11.7856    6.8851   19.2401 C   0  0  0  0  0  0  0  0  0  0  0  0
   10.5281    7.4276   19.5649 C   0  0  0  0  0  0  0  0  0  0  0  0
   10.0256    7.2907   20.8484 C   0  0  0  0  0  0  0  0  0  0  0  0
    9.3113    5.3049   14.4911 C   0  0  0  0  0  0  0  0  0  0  0  0
    9.4607    7.5646   16.0139 C   0  0  0  0  0  0  0  0  0  0  0  0
   10.4192    7.3157   15.0955 C   0  0  0  0  0  0  0  0  0  0  0  0
   10.2489    6.4227   23.0218 N   0  0  0  0  0  0  0  0  0  0  0  0
    7.2472    8.0746   23.5050 C   0  0  0  0  0  0  0  0  0  0  0  0
    9.2051    6.9101   23.4604 C   0  0  0  0  0  0  0  0  0  0  0  0
   11.9646    6.0299   21.4251 C   0  0  0  0  0  0  0  0  0  0  0  0
  1  5  1  0
  1 13  1  0
  2 20  2  0
  2 28  1  0
  2 29  1  0
  3 19  4  0
  3 25  4  0
  4 23  4  0
  4 27  1  0
  4 30  4  0
  5 17  1  0
  6  8  1  0
  6 29  1  0
  7 24  4  0
  7 26  4  0
  8 28  1  0
  9 13  2  0
 10 18  1  0
 10 21  4  0
 10 30  4  0
 11 17  2  0
 12 18  1  0
 13 15  1  0
 14 24  1  0
 15 25  1  0
 16 28  2  0
 17 20  1  0
 19 24  4  0
 20 23  1  0
 21 22  4  0
 22 23  4  0
 25 26  4  0
 27 29  2  0
M  END
$$$$

 Created by Python create_sdf_string function

 30 33  0  0  0  0  0  0  0  0999 V2000
    8.3036    9.8571   18.4133 C   0  0  0  0  0  0  0  0  0  0  0  0
    8.3694    7.6612   22.6703 C   0  0  0  0  0  0  0  0  0  0  0  0
    8.4143    6.6863   16.2273 C   0  0  0  0  0  0  0  0  0  0  0  0
   10.7581    6.5674   21.7636 C   0  0  0  0  0  0  0  0  0  0  0  0
    8.4452    8.7960   19.2958 O   0  0  0  0  0  0  0  0  0  0  0  0
    8.7122    6.7842   24.8569 C   0  0  0  0  0  0  0  0  0  0  0  0
   10.3400    6.1726   14.3081 C   0  0  0  0  0  0  0  0  0  0  0  0
    7.4297    7.5873   24.8962 C   0  0  0  0  0  0  0  0  0  0  0  0
    8.1566   10.0536   16.0516 O   0  0  0  0  0  0  0  0  0  0  0  0
   12.4989    6.2074   20.1776 C   0  0  0  0  0  0  0  0  0  0  0  0
    6.9192    9.1053   20.9073 O   0  0  0  0  0  0  0  0  0  0  0  0
   14.3979    6.0729   18.7784 C   0  0  0  0  0  0  0  0  0  0  0  0
    8.6811    9.5354   16.9998 C   0  0  0  0  0  0  0  0  0  0  0  0
    9.2512    4.2713   13.7653 O   0  0  0  0  0  0  0  0  0  0  0  0
    9.6495    8.6317   16.8332 N   0  0  0  0  0  0  0  0  0  0  0  0
    6.2934    8.6988   23.1988 O   0  0  0  0  0  0  0  0  0  0  0  0
    7.9806    8.6543   20.5437 C   0  0  0  0  0  0  0  0  0  0  0  0
   13.7270    5.7144   19.8610 O   0  0  0  0  0  0  0  0  0  0  0  0
    8.3351    5.5235   15.4478 C   0  0  0  0  0  0  0  0  0  0  0  0
    8.7700    7.8434   21.3915 C   0  0  0  0  0  0  0  0  0  0  0  0
   11.7856    6.8851   19.2401 C   0  0  0  0  0  0  0  0  0  0  0  0
   10.5281    7.4276   19.5649 C   0  0  0  0  0  0  0  0  0  0  0  0
   10.0256    7.2907   20.8484 C   0  0  0  0  0  0  0  0  0  0  0  0
    9.3113    5.3049   14.4911 C   0  0  0  0  0  0  0  0  0  0  0  0
    9.4607    7.5646   16.0139 C   0  0  0  0  0  0  0  0  0  0  0  0
   10.4192    7.3157   15.0955 C   0  0  0  0  0  0  0  0  0  0  0  0
   10.2489    6.4227   23.0218 N   0  0  0  0  0  0  0  0  0  0  0  0
    7.2472    8.0746   23.5050 C   0  0  0  0  0  0  0  0  0  0  0  0
    9.2051    6.9101   23.4604 C   0  0  0  0  0  0  0  0  0  0  0  0
   11.9646    6.0299   21.4251 C   0  0  0  0  0  0  0  0  0  0  0  0
  1  5  1  0
  1 13  1  0
  2 20  2  0
  2 28  1  0
  2 29  1  0
  3 19  4  0
  3 25  4  0
  4 23  4  0
  4 27  1  0
  4 30  4  0
  5 17  1  0
  6  8  1  0
  6 29  1  0
  7 24  4  0
  7 26  4  0
  8 28  1  0
  9 13  2  0
 10 18  1  0
 10 21  4  0
 10 30  4  0
 11 17  2  0
 12 18  1  0
 13 15  1  0
 14 24  1  0
 15 25  1  0
 16 28  2  0
 17 20  1  0
 19 24  4  0
 20 23  1  0
 21 22  4  0
 22 23  4  0
 25 26  4  0
 27 29  2  0
M  END
$$$$

 Created by Python create_sdf_string function

 30 33  0  0  0  0  0  0  0  0999 V2000
    8.3036    9.8571   18.4133 C   0  0  0  0  0  0  0  0  0  0  0  0
    8.3694    7.6612   22.6703 C   0  0  0  0  0  0  0  0  0  0  0  0
    8.4143    6.6863   16.2273 C   0  0  0  0  0  0  0  0  0  0  0  0
   10.7581    6.5674   21.7636 C   0  0  0  0  0  0  0  0  0  0  0  0
    8.4452    8.7960   19.2958 O   0  0  0  0  0  0  0  0  0  0  0  0
    8.7122    6.7842   24.8569 C   0  0  0  0  0  0  0  0  0  0  0  0
   10.3400    6.1726   14.3081 C   0  0  0  0  0  0  0  0  0  0  0  0
    7.4297    7.5873   24.8962 C   0  0  0  0  0  0  0  0  0  0  0  0
    8.1566   10.0536   16.0516 O   0  0  0  0  0  0  0  0  0  0  0  0
   12.4989    6.2074   20.1776 C   0  0  0  0  0  0  0  0  0  0  0  0
    6.9192    9.1053   20.9073 O   0  0  0  0  0  0  0  0  0  0  0  0
   14.3979    6.0729   18.7784 C   0  0  0  0  0  0  0  0  0  0  0  0
    8.6811    9.5354   16.9998 C   0  0  0  0  0  0  0  0  0  0  0  0
    9.2512    4.2713   13.7653 O   0  0  0  0  0  0  0  0  0  0  0  0
    9.6495    8.6317   16.8332 N   0  0  0  0  0  0  0  0  0  0  0  0
    6.2934    8.6988   23.1988 O   0  0  0  0  0  0  0  0  0  0  0  0
    7.9806    8.6543   20.5437 C   0  0  0  0  0  0  0  0  0  0  0  0
   13.7270    5.7144   19.8610 O   0  0  0  0  0  0  0  0  0  0  0  0
    8.3351    5.5235   15.4478 C   0  0  0  0  0  0  0  0  0  0  0  0
    8.7700    7.8434   21.3915 C   0  0  0  0  0  0  0  0  0  0  0  0
   11.7856    6.8851   19.2401 C   0  0  0  0  0  0  0  0  0  0  0  0
   10.5281    7.4276   19.5649 C   0  0  0  0  0  0  0  0  0  0  0  0
   10.0256    7.2907   20.8484 C   0  0  0  0  0  0  0  0  0  0  0  0
    9.3113    5.3049   14.4911 C   0  0  0  0  0  0  0  0  0  0  0  0
    9.4607    7.5646   16.0139 C   0  0  0  0  0  0  0  0  0  0  0  0
   10.4192    7.3157   15.0955 C   0  0  0  0  0  0  0  0  0  0  0  0
   10.2489    6.4227   23.0218 N   0  0  0  0  0  0  0  0  0  0  0  0
    7.2472    8.0746   23.5050 C   0  0  0  0  0  0  0  0  0  0  0  0
    9.2051    6.9101   23.4604 C   0  0  0  0  0  0  0  0  0  0  0  0
   11.9646    6.0299   21.4251 C   0  0  0  0  0  0  0  0  0  0  0  0
  1  5  1  0
  1 13  1  0
  2 20  2  0
  2 28  1  0
  2 29  1  0
  3 19  4  0
  3 25  4  0
  4 23  4  0
  4 27  1  0
  4 30  4  0
  5 17  1  0
  6  8  1  0
  6 29  1  0
  7 24  4  0
  7 26  4  0
  8 28  1  0
  9 13  2  0
 10 18  1  0
 10 21  4  0
 10 30  4  0
 11 17  2  0
 12 18  1  0
 13 15  1  0
 14 24  1  0
 15 25  1  0
 16 28  2  0
 17 20  1  0
 19 24  4  0
 20 23  1  0
 21 22  4  0
 22 23  4  0
 25 26  4  0
 27 29  2  0
M  END
$$$$

 Created by Python create_sdf_string function

 30 33  0  0  0  0  0  0  0  0999 V2000
    8.3036    9.8571   18.4133 C   0  0  0  0  0  0  0  0  0  0  0  0
    8.3694    7.6612   22.6703 C   0  0  0  0  0  0  0  0  0  0  0  0
    8.4143    6.6863   16.2273 C   0  0  0  0  0  0  0  0  0  0  0  0
   10.7581    6.5674   21.7636 C   0  0  0  0  0  0  0  0  0  0  0  0
    8.4452    8.7960   19.2958 O   0  0  0  0  0  0  0  0  0  0  0  0
    8.7122    6.7842   24.8569 C   0  0  0  0  0  0  0  0  0  0  0  0
   10.3400    6.1726   14.3081 C   0  0  0  0  0  0  0  0  0  0  0  0
    7.4297    7.5873   24.8962 C   0  0  0  0  0  0  0  0  0  0  0  0
    8.1566   10.0536   16.0516 O   0  0  0  0  0  0  0  0  0  0  0  0
   12.4989    6.2074   20.1776 C   0  0  0  0  0  0  0  0  0  0  0  0
    6.9192    9.1053   20.9073 O   0  0  0  0  0  0  0  0  0  0  0  0
   14.3979    6.0729   18.7784 C   0  0  0  0  0  0  0  0  0  0  0  0
    8.6811    9.5354   16.9998 C   0  0  0  0  0  0  0  0  0  0  0  0
    9.2512    4.2713   13.7653 O   0  0  0  0  0  0  0  0  0  0  0  0
    9.6495    8.6317   16.8332 N   0  0  0  0  0  0  0  0  0  0  0  0
    6.2934    8.6988   23.1988 O   0  0  0  0  0  0  0  0  0  0  0  0
    7.9806    8.6543   20.5437 C   0  0  0  0  0  0  0  0  0  0  0  0
   13.7270    5.7144   19.8610 O   0  0  0  0  0  0  0  0  0  0  0  0
    8.3351    5.5235   15.4478 C   0  0  0  0  0  0  0  0  0  0  0  0
    8.7700    7.8434   21.3915 C   0  0  0  0  0  0  0  0  0  0  0  0
   11.7856    6.8851   19.2401 C   0  0  0  0  0  0  0  0  0  0  0  0
   10.5281    7.4276   19.5649 C   0  0  0  0  0  0  0  0  0  0  0  0
   10.0256    7.2907   20.8484 C   0  0  0  0  0  0  0  0  0  0  0  0
    9.3113    5.3049   14.4911 C   0  0  0  0  0  0  0  0  0  0  0  0
    9.4607    7.5646   16.0139 C   0  0  0  0  0  0  0  0  0  0  0  0
   10.4192    7.3157   15.0955 C   0  0  0  0  0  0  0  0  0  0  0  0
   10.2489    6.4227   23.0218 N   0  0  0  0  0  0  0  0  0  0  0  0
    7.2472    8.0746   23.5050 C   0  0  0  0  0  0  0  0  0  0  0  0
    9.2051    6.9101   23.4604 C   0  0  0  0  0  0  0  0  0  0  0  0
   11.9646    6.0299   21.4251 C   0  0  0  0  0  0  0  0  0  0  0  0
  1  5  1  0
  1 13  1  0
  2 20  2  0
  2 28  1  0
  2 29  1  0
  3 19  4  0
  3 25  4  0
  4 23  4  0
  4 27  1  0
  4 30  4  0
  5 17  1  0
  6  8  1  0
  6 29  1  0
  7 24  4  0
  7 26  4  0
  8 28  1  0
  9 13  2  0
 10 18  1  0
 10 21  4  0
 10 30  4  0
 11 17  2  0
 12 18  1  0
 13 15  1  0
 14 24  1  0
 15 25  1  0
 16 28  2  0
 17 20  1  0
 19 24  4  0
 20 23  1  0
 21 22  4  0
 22 23  4  0
 25 26  4  0
 27 29  2  0
M  END
$$$$

 Created by Python create_sdf_string function

 30 33  0  0  0  0  0  0  0  0999 V2000
    8.3036    9.8571   18.4133 C   0  0  0  0  0  0  0  0  0  0  0  0
    8.3694    7.6612   22.6703 C   0  0  0  0  0  0  0  0  0  0  0  0
    8.4143    6.6863   16.2273 C   0  0  0  0  0  0  0  0  0  0  0  0
   10.7581    6.5674   21.7636 C   0  0  0  0  0  0  0  0  0  0  0  0
    8.4452    8.7960   19.2958 O   0  0  0  0  0  0  0  0  0  0  0  0
    8.7122    6.7842   24.8569 C   0  0  0  0  0  0  0  0  0  0  0  0
   10.3400    6.1726   14.3081 C   0  0  0  0  0  0  0  0  0  0  0  0
    7.4297    7.5873   24.8962 C   0  0  0  0  0  0  0  0  0  0  0  0
    8.1566   10.0536   16.0516 O   0  0  0  0  0  0  0  0  0  0  0  0
   12.4989    6.2074   20.1776 C   0  0  0  0  0  0  0  0  0  0  0  0
    6.9192    9.1053   20.9073 O   0  0  0  0  0  0  0  0  0  0  0  0
   14.3979    6.0729   18.7784 C   0  0  0  0  0  0  0  0  0  0  0  0
    8.6811    9.5354   16.9998 C   0  0  0  0  0  0  0  0  0  0  0  0
    9.2512    4.2713   13.7653 O   0  0  0  0  0  0  0  0  0  0  0  0
    9.6495    8.6317   16.8332 N   0  0  0  0  0  0  0  0  0  0  0  0
    6.2934    8.6988   23.1988 O   0  0  0  0  0  0  0  0  0  0  0  0
    7.9806    8.6543   20.5437 C   0  0  0  0  0  0  0  0  0  0  0  0
   13.7270    5.7144   19.8610 O   0  0  0  0  0  0  0  0  0  0  0  0
    8.3351    5.5235   15.4478 C   0  0  0  0  0  0  0  0  0  0  0  0
    8.7700    7.8434   21.3915 C   0  0  0  0  0  0  0  0  0  0  0  0
   11.7856    6.8851   19.2401 C   0  0  0  0  0  0  0  0  0  0  0  0
   10.5281    7.4276   19.5649 C   0  0  0  0  0  0  0  0  0  0  0  0
   10.0256    7.2907   20.8484 C   0  0  0  0  0  0  0  0  0  0  0  0
    9.3113    5.3049   14.4911 C   0  0  0  0  0  0  0  0  0  0  0  0
    9.4607    7.5646   16.0139 C   0  0  0  0  0  0  0  0  0  0  0  0
   10.4192    7.3157   15.0955 C   0  0  0  0  0  0  0  0  0  0  0  0
   10.2489    6.4227   23.0218 N   0  0  0  0  0  0  0  0  0  0  0  0
    7.2472    8.0746   23.5050 C   0  0  0  0  0  0  0  0  0  0  0  0
    9.2051    6.9101   23.4604 C   0  0  0  0  0  0  0  0  0  0  0  0
   11.9646    6.0299   21.4251 C   0  0  0  0  0  0  0  0  0  0  0  0
  1  5  1  0
  1 13  1  0
  2 20  2  0
  2 28  1  0
  2 29  1  0
  3 19  4  0
  3 25  4  0
  4 23  4  0
  4 27  1  0
  4 30  4  0
  5 17  1  0
  6  8  1  0
  6 29  1  0
  7 24  4  0
  7 26  4  0
  8 28  1  0
  9 13  2  0
 10 18  1  0
 10 21  4  0
 10 30  4  0
 11 17  2  0
 12 18  1  0
 13 15  1  0
 14 24  1  0
 15 25  1  0
 16 28  2  0
 17 20  1  0
 19 24  4  0
 20 23  1  0
 21 22  4  0
 22 23  4  0
 25 26  4  0
 27 29  2  0
M  END
$$$$

 Created by Python create_sdf_string function

 30 33  0  0  0  0  0  0  0  0999 V2000
    8.3036    9.8571   18.4133 C   0  0  0  0  0  0  0  0  0  0  0  0
    8.3694    7.6612   22.6703 C   0  0  0  0  0  0  0  0  0  0  0  0
    8.4143    6.6863   16.2273 C   0  0  0  0  0  0  0  0  0  0  0  0
   10.7581    6.5674   21.7636 C   0  0  0  0  0  0  0  0  0  0  0  0
    8.4452    8.7960   19.2958 O   0  0  0  0  0  0  0  0  0  0  0  0
    8.7122    6.7842   24.8569 C   0  0  0  0  0  0  0  0  0  0  0  0
   10.3400    6.1726   14.3081 C   0  0  0  0  0  0  0  0  0  0  0  0
    7.4297    7.5873   24.8962 C   0  0  0  0  0  0  0  0  0  0  0  0
    8.1566   10.0536   16.0516 O   0  0  0  0  0  0  0  0  0  0  0  0
   12.4989    6.2074   20.1776 C   0  0  0  0  0  0  0  0  0  0  0  0
    6.9192    9.1053   20.9073 O   0  0  0  0  0  0  0  0  0  0  0  0
   14.3979    6.0729   18.7784 C   0  0  0  0  0  0  0  0  0  0  0  0
    8.6811    9.5354   16.9998 C   0  0  0  0  0  0  0  0  0  0  0  0
    9.2512    4.2713   13.7653 O   0  0  0  0  0  0  0  0  0  0  0  0
    9.6495    8.6317   16.8332 N   0  0  0  0  0  0  0  0  0  0  0  0
    6.2934    8.6988   23.1988 O   0  0  0  0  0  0  0  0  0  0  0  0
    7.9806    8.6543   20.5437 C   0  0  0  0  0  0  0  0  0  0  0  0
   13.7270    5.7144   19.8610 O   0  0  0  0  0  0  0  0  0  0  0  0
    8.3351    5.5235   15.4478 C   0  0  0  0  0  0  0  0  0  0  0  0
    8.7700    7.8434   21.3915 C   0  0  0  0  0  0  0  0  0  0  0  0
   11.7856    6.8851   19.2401 C   0  0  0  0  0  0  0  0  0  0  0  0
   10.5281    7.4276   19.5649 C   0  0  0  0  0  0  0  0  0  0  0  0
   10.0256    7.2907   20.8484 C   0  0  0  0  0  0  0  0  0  0  0  0
    9.3113    5.3049   14.4911 C   0  0  0  0  0  0  0  0  0  0  0  0
    9.4607    7.5646   16.0139 C   0  0  0  0  0  0  0  0  0  0  0  0
   10.4192    7.3157   15.0955 C   0  0  0  0  0  0  0  0  0  0  0  0
   10.2489    6.4227   23.0218 N   0  0  0  0  0  0  0  0  0  0  0  0
    7.2472    8.0746   23.5050 C   0  0  0  0  0  0  0  0  0  0  0  0
    9.2051    6.9101   23.4604 C   0  0  0  0  0  0  0  0  0  0  0  0
   11.9646    6.0299   21.4251 C   0  0  0  0  0  0  0  0  0  0  0  0
  1  5  1  0
  1 13  1  0
  2 20  2  0
  2 28  1  0
  2 29  1  0
  3 19  4  0
  3 25  4  0
  4 23  4  0
  4 27  1  0
  4 30  4  0
  5 17  1  0
  6  8  1  0
  6 29  1  0
  7 24  4  0
  7 26  4  0
  8 28  1  0
  9 13  2  0
 10 18  1  0
 10 21  4  0
 10 30  4  0
 11 17  2  0
 12 18  1  0
 13 15  1  0
 14 24  1  0
 15 25  1  0
 16 28  2  0
 17 20  1  0
 19 24  4  0
 20 23  1  0
 21 22  4  0
 22 23  4  0
 25 26  4  0
 27 29  2  0
M  END
$$$$

 Created by Python create_sdf_string function

 30 33  0  0  0  0  0  0  0  0999 V2000
    8.3036    9.8571   18.4133 C   0  0  0  0  0  0  0  0  0  0  0  0
    8.3694    7.6612   22.6703 C   0  0  0  0  0  0  0  0  0  0  0  0
    8.4143    6.6863   16.2273 C   0  0  0  0  0  0  0  0  0  0  0  0
   10.7581    6.5674   21.7636 C   0  0  0  0  0  0  0  0  0  0  0  0
    8.4452    8.7960   19.2958 O   0  0  0  0  0  0  0  0  0  0  0  0
    8.7122    6.7842   24.8569 C   0  0  0  0  0  0  0  0  0  0  0  0
   10.3400    6.1726   14.3081 C   0  0  0  0  0  0  0  0  0  0  0  0
    7.4297    7.5873   24.8962 C   0  0  0  0  0  0  0  0  0  0  0  0
    8.1566   10.0536   16.0516 O   0  0  0  0  0  0  0  0  0  0  0  0
   12.4989    6.2074   20.1776 C   0  0  0  0  0  0  0  0  0  0  0  0
    6.9192    9.1053   20.9073 O   0  0  0  0  0  0  0  0  0  0  0  0
   14.3979    6.0729   18.7784 C   0  0  0  0  0  0  0  0  0  0  0  0
    8.6811    9.5354   16.9998 C   0  0  0  0  0  0  0  0  0  0  0  0
    9.2512    4.2713   13.7653 O   0  0  0  0  0  0  0  0  0  0  0  0
    9.6495    8.6317   16.8332 N   0  0  0  0  0  0  0  0  0  0  0  0
    6.2934    8.6988   23.1988 O   0  0  0  0  0  0  0  0  0  0  0  0
    7.9806    8.6543   20.5437 C   0  0  0  0  0  0  0  0  0  0  0  0
   13.7270    5.7144   19.8610 O   0  0  0  0  0  0  0  0  0  0  0  0
    8.3351    5.5235   15.4478 C   0  0  0  0  0  0  0  0  0  0  0  0
    8.7700    7.8434   21.3915 C   0  0  0  0  0  0  0  0  0  0  0  0
   11.7856    6.8851   19.2401 C   0  0  0  0  0  0  0  0  0  0  0  0
   10.5281    7.4276   19.5649 C   0  0  0  0  0  0  0  0  0  0  0  0
   10.0256    7.2907   20.8484 C   0  0  0  0  0  0  0  0  0  0  0  0
    9.3113    5.3049   14.4911 C   0  0  0  0  0  0  0  0  0  0  0  0
    9.4607    7.5646   16.0139 C   0  0  0  0  0  0  0  0  0  0  0  0
   10.4192    7.3157   15.0955 C   0  0  0  0  0  0  0  0  0  0  0  0
   10.2489    6.4227   23.0218 N   0  0  0  0  0  0  0  0  0  0  0  0
    7.2472    8.0746   23.5050 C   0  0  0  0  0  0  0  0  0  0  0  0
    9.2051    6.9101   23.4604 C   0  0  0  0  0  0  0  0  0  0  0  0
   11.9646    6.0299   21.4251 C   0  0  0  0  0  0  0  0  0  0  0  0
  1  5  1  0
  1 13  1  0
  2 20  2  0
  2 28  1  0
  2 29  1  0
  3 19  4  0
  3 25  4  0
  4 23  4  0
  4 27  1  0
  4 30  4  0
  5 17  1  0
  6  8  1  0
  6 29  1  0
  7 24  4  0
  7 26  4  0
  8 28  1  0
  9 13  2  0
 10 18  1  0
 10 21  4  0
 10 30  4  0
 11 17  2  0
 12 18  1  0
 13 15  1  0
 14 24  1  0
 15 25  1  0
 16 28  2  0
 17 20  1  0
 19 24  4  0
 20 23  1  0
 21 22  4  0
 22 23  4  0
 25 26  4  0
 27 29  2  0
M  END
$$$$

 Created by Python create_sdf_string function

 30 33  0  0  0  0  0  0  0  0999 V2000
    8.3036    9.8571   18.4133 C   0  0  0  0  0  0  0  0  0  0  0  0
    8.3694    7.6612   22.6703 C   0  0  0  0  0  0  0  0  0  0  0  0
    8.4143    6.6863   16.2273 C   0  0  0  0  0  0  0  0  0  0  0  0
   10.7581    6.5674   21.7636 C   0  0  0  0  0  0  0  0  0  0  0  0
    8.4452    8.7960   19.2958 O   0  0  0  0  0  0  0  0  0  0  0  0
    8.7122    6.7842   24.8569 C   0  0  0  0  0  0  0  0  0  0  0  0
   10.3400    6.1726   14.3081 C   0  0  0  0  0  0  0  0  0  0  0  0
    7.4297    7.5873   24.8962 C   0  0  0  0  0  0  0  0  0  0  0  0
    8.1566   10.0536   16.0516 O   0  0  0  0  0  0  0  0  0  0  0  0
   12.4989    6.2074   20.1776 C   0  0  0  0  0  0  0  0  0  0  0  0
    6.9192    9.1053   20.9073 O   0  0  0  0  0  0  0  0  0  0  0  0
   14.3979    6.0729   18.7784 C   0  0  0  0  0  0  0  0  0  0  0  0
    8.6811    9.5354   16.9998 C   0  0  0  0  0  0  0  0  0  0  0  0
    9.2512    4.2713   13.7653 O   0  0  0  0  0  0  0  0  0  0  0  0
    9.6495    8.6317   16.8332 N   0  0  0  0  0  0  0  0  0  0  0  0
    6.2934    8.6988   23.1988 O   0  0  0  0  0  0  0  0  0  0  0  0
    7.9806    8.6543   20.5437 C   0  0  0  0  0  0  0  0  0  0  0  0
   13.7270    5.7144   19.8610 O   0  0  0  0  0  0  0  0  0  0  0  0
    8.3351    5.5235   15.4478 C   0  0  0  0  0  0  0  0  0  0  0  0
    8.7700    7.8434   21.3915 C   0  0  0  0  0  0  0  0  0  0  0  0
   11.7856    6.8851   19.2401 C   0  0  0  0  0  0  0  0  0  0  0  0
   10.5281    7.4276   19.5649 C   0  0  0  0  0  0  0  0  0  0  0  0
   10.0256    7.2907   20.8484 C   0  0  0  0  0  0  0  0  0  0  0  0
    9.3113    5.3049   14.4911 C   0  0  0  0  0  0  0  0  0  0  0  0
    9.4607    7.5646   16.0139 C   0  0  0  0  0  0  0  0  0  0  0  0
   10.4192    7.3157   15.0955 C   0  0  0  0  0  0  0  0  0  0  0  0
   10.2489    6.4227   23.0218 N   0  0  0  0  0  0  0  0  0  0  0  0
    7.2472    8.0746   23.5050 C   0  0  0  0  0  0  0  0  0  0  0  0
    9.2051    6.9101   23.4604 C   0  0  0  0  0  0  0  0  0  0  0  0
   11.9646    6.0299   21.4251 C   0  0  0  0  0  0  0  0  0  0  0  0
  1  5  1  0
  1 13  1  0
  2 20  2  0
  2 28  1  0
  2 29  1  0
  3 19  4  0
  3 25  4  0
  4 23  4  0
  4 27  1  0
  4 30  4  0
  5 17  1  0
  6  8  1  0
  6 29  1  0
  7 24  4  0
  7 26  4  0
  8 28  1  0
  9 13  2  0
 10 18  1  0
 10 21  4  0
 10 30  4  0
 11 17  2  0
 12 18  1  0
 13 15  1  0
 14 24  1  0
 15 25  1  0
 16 28  2  0
 17 20  1  0
 19 24  4  0
 20 23  1  0
 21 22  4  0
 22 23  4  0
 25 26  4  0
 27 29  2  0
M  END
$$$$

 Created by Python create_sdf_string function

 30 33  0  0  0  0  0  0  0  0999 V2000
    8.3036    9.8571   18.4133 C   0  0  0  0  0  0  0  0  0  0  0  0
    8.3694    7.6612   22.6703 C   0  0  0  0  0  0  0  0  0  0  0  0
    8.4143    6.6863   16.2273 C   0  0  0  0  0  0  0  0  0  0  0  0
   10.7581    6.5674   21.7636 C   0  0  0  0  0  0  0  0  0  0  0  0
    8.4452    8.7960   19.2958 O   0  0  0  0  0  0  0  0  0  0  0  0
    8.7122    6.7842   24.8569 C   0  0  0  0  0  0  0  0  0  0  0  0
   10.3400    6.1726   14.3081 C   0  0  0  0  0  0  0  0  0  0  0  0
    7.4297    7.5873   24.8962 C   0  0  0  0  0  0  0  0  0  0  0  0
    8.1566   10.0536   16.0516 O   0  0  0  0  0  0  0  0  0  0  0  0
   12.4989    6.2074   20.1776 C   0  0  0  0  0  0  0  0  0  0  0  0
    6.9192    9.1053   20.9073 O   0  0  0  0  0  0  0  0  0  0  0  0
   14.3979    6.0729   18.7784 C   0  0  0  0  0  0  0  0  0  0  0  0
    8.6811    9.5354   16.9998 C   0  0  0  0  0  0  0  0  0  0  0  0
    9.2512    4.2713   13.7653 O   0  0  0  0  0  0  0  0  0  0  0  0
    9.6495    8.6317   16.8332 N   0  0  0  0  0  0  0  0  0  0  0  0
    6.2934    8.6988   23.1988 O   0  0  0  0  0  0  0  0  0  0  0  0
    7.9806    8.6543   20.5437 C   0  0  0  0  0  0  0  0  0  0  0  0
   13.7270    5.7144   19.8610 O   0  0  0  0  0  0  0  0  0  0  0  0
    8.3351    5.5235   15.4478 C   0  0  0  0  0  0  0  0  0  0  0  0
    8.7700    7.8434   21.3915 C   0  0  0  0  0  0  0  0  0  0  0  0
   11.7856    6.8851   19.2401 C   0  0  0  0  0  0  0  0  0  0  0  0
   10.5281    7.4276   19.5649 C   0  0  0  0  0  0  0  0  0  0  0  0
   10.0256    7.2907   20.8484 C   0  0  0  0  0  0  0  0  0  0  0  0
    9.3113    5.3049   14.4911 C   0  0  0  0  0  0  0  0  0  0  0  0
    9.4607    7.5646   16.0139 C   0  0  0  0  0  0  0  0  0  0  0  0
   10.4192    7.3157   15.0955 C   0  0  0  0  0  0  0  0  0  0  0  0
   10.2489    6.4227   23.0218 N   0  0  0  0  0  0  0  0  0  0  0  0
    7.2472    8.0746   23.5050 C   0  0  0  0  0  0  0  0  0  0  0  0
    9.2051    6.9101   23.4604 C   0  0  0  0  0  0  0  0  0  0  0  0
   11.9646    6.0299   21.4251 C   0  0  0  0  0  0  0  0  0  0  0  0
  1  5  1  0
  1 13  1  0
  2 20  2  0
  2 28  1  0
  2 29  1  0
  3 19  4  0
  3 25  4  0
  4 23  4  0
  4 27  1  0
  4 30  4  0
  5 17  1  0
  6  8  1  0
  6 29  1  0
  7 24  4  0
  7 26  4  0
  8 28  1  0
  9 13  2  0
 10 18  1  0
 10 21  4  0
 10 30  4  0
 11 17  2  0
 12 18  1  0
 13 15  1  0
 14 24  1  0
 15 25  1  0
 16 28  2  0
 17 20  1  0
 19 24  4  0
 20 23  1  0
 21 22  4  0
 22 23  4  0
 25 26  4  0
 27 29  2  0
M  END
$$$$

 Created by Python create_sdf_string function

 30 33  0  0  0  0  0  0  0  0999 V2000
    8.3036    9.8571   18.4133 C   0  0  0  0  0  0  0  0  0  0  0  0
    8.3694    7.6612   22.6703 C   0  0  0  0  0  0  0  0  0  0  0  0
    8.4143    6.6863   16.2273 C   0  0  0  0  0  0  0  0  0  0  0  0
   10.7581    6.5674   21.7636 C   0  0  0  0  0  0  0  0  0  0  0  0
    8.4452    8.7960   19.2958 O   0  0  0  0  0  0  0  0  0  0  0  0
    8.7122    6.7842   24.8569 C   0  0  0  0  0  0  0  0  0  0  0  0
   10.3400    6.1726   14.3081 C   0  0  0  0  0  0  0  0  0  0  0  0
    7.4297    7.5873   24.8962 C   0  0  0  0  0  0  0  0  0  0  0  0
    8.1566   10.0536   16.0516 O   0  0  0  0  0  0  0  0  0  0  0  0
   12.4989    6.2074   20.1776 C   0  0  0  0  0  0  0  0  0  0  0  0
    6.9192    9.1053   20.9073 O   0  0  0  0  0  0  0  0  0  0  0  0
   14.3979    6.0729   18.7784 C   0  0  0  0  0  0  0  0  0  0  0  0
    8.6811    9.5354   16.9998 C   0  0  0  0  0  0  0  0  0  0  0  0
    9.2512    4.2713   13.7653 O   0  0  0  0  0  0  0  0  0  0  0  0
    9.6495    8.6317   16.8332 N   0  0  0  0  0  0  0  0  0  0  0  0
    6.2934    8.6988   23.1988 O   0  0  0  0  0  0  0  0  0  0  0  0
    7.9806    8.6543   20.5437 C   0  0  0  0  0  0  0  0  0  0  0  0
   13.7270    5.7144   19.8610 O   0  0  0  0  0  0  0  0  0  0  0  0
    8.3351    5.5235   15.4478 C   0  0  0  0  0  0  0  0  0  0  0  0
    8.7700    7.8434   21.3915 C   0  0  0  0  0  0  0  0  0  0  0  0
   11.7856    6.8851   19.2401 C   0  0  0  0  0  0  0  0  0  0  0  0
   10.5281    7.4276   19.5649 C   0  0  0  0  0  0  0  0  0  0  0  0
   10.0256    7.2907   20.8484 C   0  0  0  0  0  0  0  0  0  0  0  0
    9.3113    5.3049   14.4911 C   0  0  0  0  0  0  0  0  0  0  0  0
    9.4607    7.5646   16.0139 C   0  0  0  0  0  0  0  0  0  0  0  0
   10.4192    7.3157   15.0955 C   0  0  0  0  0  0  0  0  0  0  0  0
   10.2489    6.4227   23.0218 N   0  0  0  0  0  0  0  0  0  0  0  0
    7.2472    8.0746   23.5050 C   0  0  0  0  0  0  0  0  0  0  0  0
    9.2051    6.9101   23.4604 C   0  0  0  0  0  0  0  0  0  0  0  0
   11.9646    6.0299   21.4251 C   0  0  0  0  0  0  0  0  0  0  0  0
  1  5  1  0
  1 13  1  0
  2 20  2  0
  2 28  1  0
  2 29  1  0
  3 19  4  0
  3 25  4  0
  4 23  4  0
  4 27  1  0
  4 30  4  0
  5 17  1  0
  6  8  1  0
  6 29  1  0
  7 24  4  0
  7 26  4  0
  8 28  1  0
  9 13  2  0
 10 18  1  0
 10 21  4  0
 10 30  4  0
 11 17  2  0
 12 18  1  0
 13 15  1  0
 14 24  1  0
 15 25  1  0
 16 28  2  0
 17 20  1  0
 19 24  4  0
 20 23  1  0
 21 22  4  0
 22 23  4  0
 25 26  4  0
 27 29  2  0
M  END
$$$$

 Created by Python create_sdf_string function

 30 33  0  0  0  0  0  0  0  0999 V2000
    8.3036    9.8571   18.4133 C   0  0  0  0  0  0  0  0  0  0  0  0
    8.3694    7.6612   22.6703 C   0  0  0  0  0  0  0  0  0  0  0  0
    8.4143    6.6863   16.2273 C   0  0  0  0  0  0  0  0  0  0  0  0
   10.7581    6.5674   21.7636 C   0  0  0  0  0  0  0  0  0  0  0  0
    8.4452    8.7960   19.2958 O   0  0  0  0  0  0  0  0  0  0  0  0
    8.7122    6.7842   24.8569 C   0  0  0  0  0  0  0  0  0  0  0  0
   10.3400    6.1726   14.3081 C   0  0  0  0  0  0  0  0  0  0  0  0
    7.4297    7.5873   24.8962 C   0  0  0  0  0  0  0  0  0  0  0  0
    8.1566   10.0536   16.0516 O   0  0  0  0  0  0  0  0  0  0  0  0
   12.4989    6.2074   20.1776 C   0  0  0  0  0  0  0  0  0  0  0  0
    6.9192    9.1053   20.9073 O   0  0  0  0  0  0  0  0  0  0  0  0
   14.3979    6.0729   18.7784 C   0  0  0  0  0  0  0  0  0  0  0  0
    8.6811    9.5354   16.9998 C   0  0  0  0  0  0  0  0  0  0  0  0
    9.2512    4.2713   13.7653 O   0  0  0  0  0  0  0  0  0  0  0  0
    9.6495    8.6317   16.8332 N   0  0  0  0  0  0  0  0  0  0  0  0
    6.2934    8.6988   23.1988 O   0  0  0  0  0  0  0  0  0  0  0  0
    7.9806    8.6543   20.5437 C   0  0  0  0  0  0  0  0  0  0  0  0
   13.7270    5.7144   19.8610 O   0  0  0  0  0  0  0  0  0  0  0  0
    8.3351    5.5235   15.4478 C   0  0  0  0  0  0  0  0  0  0  0  0
    8.7700    7.8434   21.3915 C   0  0  0  0  0  0  0  0  0  0  0  0
   11.7856    6.8851   19.2401 C   0  0  0  0  0  0  0  0  0  0  0  0
   10.5281    7.4276   19.5649 C   0  0  0  0  0  0  0  0  0  0  0  0
   10.0256    7.2907   20.8484 C   0  0  0  0  0  0  0  0  0  0  0  0
    9.3113    5.3049   14.4911 C   0  0  0  0  0  0  0  0  0  0  0  0
    9.4607    7.5646   16.0139 C   0  0  0  0  0  0  0  0  0  0  0  0
   10.4192    7.3157   15.0955 C   0  0  0  0  0  0  0  0  0  0  0  0
   10.2489    6.4227   23.0218 N   0  0  0  0  0  0  0  0  0  0  0  0
    7.2472    8.0746   23.5050 C   0  0  0  0  0  0  0  0  0  0  0  0
    9.2051    6.9101   23.4604 C   0  0  0  0  0  0  0  0  0  0  0  0
   11.9646    6.0299   21.4251 C   0  0  0  0  0  0  0  0  0  0  0  0
  1  5  1  0
  1 13  1  0
  2 20  2  0
  2 28  1  0
  2 29  1  0
  3 19  4  0
  3 25  4  0
  4 23  4  0
  4 27  1  0
  4 30  4  0
  5 17  1  0
  6  8  1  0
  6 29  1  0
  7 24  4  0
  7 26  4  0
  8 28  1  0
  9 13  2  0
 10 18  1  0
 10 21  4  0
 10 30  4  0
 11 17  2  0
 12 18  1  0
 13 15  1  0
 14 24  1  0
 15 25  1  0
 16 28  2  0
 17 20  1  0
 19 24  4  0
 20 23  1  0
 21 22  4  0
 22 23  4  0
 25 26  4  0
 27 29  2  0
M  END
$$$$

 Created by Python create_sdf_string function

 30 33  0  0  0  0  0  0  0  0999 V2000
    8.3036    9.8571   18.4133 C   0  0  0  0  0  0  0  0  0  0  0  0
    8.3694    7.6612   22.6703 C   0  0  0  0  0  0  0  0  0  0  0  0
    8.4143    6.6863   16.2273 C   0  0  0  0  0  0  0  0  0  0  0  0
   10.7581    6.5674   21.7636 C   0  0  0  0  0  0  0  0  0  0  0  0
    8.4452    8.7960   19.2958 O   0  0  0  0  0  0  0  0  0  0  0  0
    8.7122    6.7842   24.8569 C   0  0  0  0  0  0  0  0  0  0  0  0
   10.3400    6.1726   14.3081 C   0  0  0  0  0  0  0  0  0  0  0  0
    7.4297    7.5873   24.8962 C   0  0  0  0  0  0  0  0  0  0  0  0
    8.1566   10.0536   16.0516 O   0  0  0  0  0  0  0  0  0  0  0  0
   12.4989    6.2074   20.1776 C   0  0  0  0  0  0  0  0  0  0  0  0
    6.9192    9.1053   20.9073 O   0  0  0  0  0  0  0  0  0  0  0  0
   14.3979    6.0729   18.7784 C   0  0  0  0  0  0  0  0  0  0  0  0
    8.6811    9.5354   16.9998 C   0  0  0  0  0  0  0  0  0  0  0  0
    9.2512    4.2713   13.7653 O   0  0  0  0  0  0  0  0  0  0  0  0
    9.6495    8.6317   16.8332 N   0  0  0  0  0  0  0  0  0  0  0  0
    6.2934    8.6988   23.1988 O   0  0  0  0  0  0  0  0  0  0  0  0
    7.9806    8.6543   20.5437 C   0  0  0  0  0  0  0  0  0  0  0  0
   13.7270    5.7144   19.8610 O   0  0  0  0  0  0  0  0  0  0  0  0
    8.3351    5.5235   15.4478 C   0  0  0  0  0  0  0  0  0  0  0  0
    8.7700    7.8434   21.3915 C   0  0  0  0  0  0  0  0  0  0  0  0
   11.7856    6.8851   19.2401 C   0  0  0  0  0  0  0  0  0  0  0  0
   10.5281    7.4276   19.5649 C   0  0  0  0  0  0  0  0  0  0  0  0
   10.0256    7.2907   20.8484 C   0  0  0  0  0  0  0  0  0  0  0  0
    9.3113    5.3049   14.4911 C   0  0  0  0  0  0  0  0  0  0  0  0
    9.4607    7.5646   16.0139 C   0  0  0  0  0  0  0  0  0  0  0  0
   10.4192    7.3157   15.0955 C   0  0  0  0  0  0  0  0  0  0  0  0
   10.2489    6.4227   23.0218 N   0  0  0  0  0  0  0  0  0  0  0  0
    7.2472    8.0746   23.5050 C   0  0  0  0  0  0  0  0  0  0  0  0
    9.2051    6.9101   23.4604 C   0  0  0  0  0  0  0  0  0  0  0  0
   11.9646    6.0299   21.4251 C   0  0  0  0  0  0  0  0  0  0  0  0
  1  5  1  0
  1 13  1  0
  2 20  2  0
  2 28  1  0
  2 29  1  0
  3 19  4  0
  3 25  4  0
  4 23  4  0
  4 27  1  0
  4 30  4  0
  5 17  1  0
  6  8  1  0
  6 29  1  0
  7 24  4  0
  7 26  4  0
  8 28  1  0
  9 13  2  0
 10 18  1  0
 10 21  4  0
 10 30  4  0
 11 17  2  0
 12 18  1  0
 13 15  1  0
 14 24  1  0
 15 25  1  0
 16 28  2  0
 17 20  1  0
 19 24  4  0
 20 23  1  0
 21 22  4  0
 22 23  4  0
 25 26  4  0
 27 29  2  0
M  END
$$$$

 Created by Python create_sdf_string function

 30 33  0  0  0  0  0  0  0  0999 V2000
    8.3036    9.8571   18.4133 C   0  0  0  0  0  0  0  0  0  0  0  0
    8.3694    7.6612   22.6703 C   0  0  0  0  0  0  0  0  0  0  0  0
    8.4143    6.6863   16.2273 C   0  0  0  0  0  0  0  0  0  0  0  0
   10.7581    6.5674   21.7636 C   0  0  0  0  0  0  0  0  0  0  0  0
    8.4452    8.7960   19.2958 O   0  0  0  0  0  0  0  0  0  0  0  0
    8.7122    6.7842   24.8569 C   0  0  0  0  0  0  0  0  0  0  0  0
   10.3400    6.1726   14.3081 C   0  0  0  0  0  0  0  0  0  0  0  0
    7.4297    7.5873   24.8962 C   0  0  0  0  0  0  0  0  0  0  0  0
    8.1566   10.0536   16.0516 O   0  0  0  0  0  0  0  0  0  0  0  0
   12.4989    6.2074   20.1776 C   0  0  0  0  0  0  0  0  0  0  0  0
    6.9192    9.1053   20.9073 O   0  0  0  0  0  0  0  0  0  0  0  0
   14.3979    6.0729   18.7784 C   0  0  0  0  0  0  0  0  0  0  0  0
    8.6811    9.5354   16.9998 C   0  0  0  0  0  0  0  0  0  0  0  0
    9.2512    4.2713   13.7653 O   0  0  0  0  0  0  0  0  0  0  0  0
    9.6495    8.6317   16.8332 N   0  0  0  0  0  0  0  0  0  0  0  0
    6.2934    8.6988   23.1988 O   0  0  0  0  0  0  0  0  0  0  0  0
    7.9806    8.6543   20.5437 C   0  0  0  0  0  0  0  0  0  0  0  0
   13.7270    5.7144   19.8610 O   0  0  0  0  0  0  0  0  0  0  0  0
    8.3351    5.5235   15.4478 C   0  0  0  0  0  0  0  0  0  0  0  0
    8.7700    7.8434   21.3915 C   0  0  0  0  0  0  0  0  0  0  0  0
   11.7856    6.8851   19.2401 C   0  0  0  0  0  0  0  0  0  0  0  0
   10.5281    7.4276   19.5649 C   0  0  0  0  0  0  0  0  0  0  0  0
   10.0256    7.2907   20.8484 C   0  0  0  0  0  0  0  0  0  0  0  0
    9.3113    5.3049   14.4911 C   0  0  0  0  0  0  0  0  0  0  0  0
    9.4607    7.5646   16.0139 C   0  0  0  0  0  0  0  0  0  0  0  0
   10.4192    7.3157   15.0955 C   0  0  0  0  0  0  0  0  0  0  0  0
   10.2489    6.4227   23.0218 N   0  0  0  0  0  0  0  0  0  0  0  0
    7.2472    8.0746   23.5050 C   0  0  0  0  0  0  0  0  0  0  0  0
    9.2051    6.9101   23.4604 C   0  0  0  0  0  0  0  0  0  0  0  0
   11.9646    6.0299   21.4251 C   0  0  0  0  0  0  0  0  0  0  0  0
  1  5  1  0
  1 13  1  0
  2 20  2  0
  2 28  1  0
  2 29  1  0
  3 19  4  0
  3 25  4  0
  4 23  4  0
  4 27  1  0
  4 30  4  0
  5 17  1  0
  6  8  1  0
  6 29  1  0
  7 24  4  0
  7 26  4  0
  8 28  1  0
  9 13  2  0
 10 18  1  0
 10 21  4  0
 10 30  4  0
 11 17  2  0
 12 18  1  0
 13 15  1  0
 14 24  1  0
 15 25  1  0
 16 28  2  0
 17 20  1  0
 19 24  4  0
 20 23  1  0
 21 22  4  0
 22 23  4  0
 25 26  4  0
 27 29  2  0
M  END
$$$$

 Created by Python create_sdf_string function

 30 33  0  0  0  0  0  0  0  0999 V2000
    8.3036    9.8571   18.4133 C   0  0  0  0  0  0  0  0  0  0  0  0
    8.3694    7.6612   22.6703 C   0  0  0  0  0  0  0  0  0  0  0  0
    8.4143    6.6863   16.2273 C   0  0  0  0  0  0  0  0  0  0  0  0
   10.7581    6.5674   21.7636 C   0  0  0  0  0  0  0  0  0  0  0  0
    8.4452    8.7960   19.2958 O   0  0  0  0  0  0  0  0  0  0  0  0
    8.7122    6.7842   24.8569 C   0  0  0  0  0  0  0  0  0  0  0  0
   10.3400    6.1726   14.3081 C   0  0  0  0  0  0  0  0  0  0  0  0
    7.4297    7.5873   24.8962 C   0  0  0  0  0  0  0  0  0  0  0  0
    8.1566   10.0536   16.0516 O   0  0  0  0  0  0  0  0  0  0  0  0
   12.4989    6.2074   20.1776 C   0  0  0  0  0  0  0  0  0  0  0  0
    6.9192    9.1053   20.9073 O   0  0  0  0  0  0  0  0  0  0  0  0
   14.3979    6.0729   18.7784 C   0  0  0  0  0  0  0  0  0  0  0  0
    8.6811    9.5354   16.9998 C   0  0  0  0  0  0  0  0  0  0  0  0
    9.2512    4.2713   13.7653 O   0  0  0  0  0  0  0  0  0  0  0  0
    9.6495    8.6317   16.8332 N   0  0  0  0  0  0  0  0  0  0  0  0
    6.2934    8.6988   23.1988 O   0  0  0  0  0  0  0  0  0  0  0  0
    7.9806    8.6543   20.5437 C   0  0  0  0  0  0  0  0  0  0  0  0
   13.7270    5.7144   19.8610 O   0  0  0  0  0  0  0  0  0  0  0  0
    8.3351    5.5235   15.4478 C   0  0  0  0  0  0  0  0  0  0  0  0
    8.7700    7.8434   21.3915 C   0  0  0  0  0  0  0  0  0  0  0  0
   11.7856    6.8851   19.2401 C   0  0  0  0  0  0  0  0  0  0  0  0
   10.5281    7.4276   19.5649 C   0  0  0  0  0  0  0  0  0  0  0  0
   10.0256    7.2907   20.8484 C   0  0  0  0  0  0  0  0  0  0  0  0
    9.3113    5.3049   14.4911 C   0  0  0  0  0  0  0  0  0  0  0  0
    9.4607    7.5646   16.0139 C   0  0  0  0  0  0  0  0  0  0  0  0
   10.4192    7.3157   15.0955 C   0  0  0  0  0  0  0  0  0  0  0  0
   10.2489    6.4227   23.0218 N   0  0  0  0  0  0  0  0  0  0  0  0
    7.2472    8.0746   23.5050 C   0  0  0  0  0  0  0  0  0  0  0  0
    9.2051    6.9101   23.4604 C   0  0  0  0  0  0  0  0  0  0  0  0
   11.9646    6.0299   21.4251 C   0  0  0  0  0  0  0  0  0  0  0  0
  1  5  1  0
  1 13  1  0
  2 20  2  0
  2 28  1  0
  2 29  1  0
  3 19  4  0
  3 25  4  0
  4 23  4  0
  4 27  1  0
  4 30  4  0
  5 17  1  0
  6  8  1  0
  6 29  1  0
  7 24  4  0
  7 26  4  0
  8 28  1  0
  9 13  2  0
 10 18  1  0
 10 21  4  0
 10 30  4  0
 11 17  2  0
 12 18  1  0
 13 15  1  0
 14 24  1  0
 15 25  1  0
 16 28  2  0
 17 20  1  0
 19 24  4  0
 20 23  1  0
 21 22  4  0
 22 23  4  0
 25 26  4  0
 27 29  2  0
M  END
$$$$

 Created by Python create_sdf_string function

 30 33  0  0  0  0  0  0  0  0999 V2000
    8.3036    9.8571   18.4133 C   0  0  0  0  0  0  0  0  0  0  0  0
    8.3694    7.6612   22.6703 C   0  0  0  0  0  0  0  0  0  0  0  0
    8.4143    6.6863   16.2273 C   0  0  0  0  0  0  0  0  0  0  0  0
   10.7581    6.5674   21.7636 C   0  0  0  0  0  0  0  0  0  0  0  0
    8.4452    8.7960   19.2958 O   0  0  0  0  0  0  0  0  0  0  0  0
    8.7122    6.7842   24.8569 C   0  0  0  0  0  0  0  0  0  0  0  0
   10.3400    6.1726   14.3081 C   0  0  0  0  0  0  0  0  0  0  0  0
    7.4297    7.5873   24.8962 C   0  0  0  0  0  0  0  0  0  0  0  0
    8.1566   10.0536   16.0516 O   0  0  0  0  0  0  0  0  0  0  0  0
   12.4989    6.2074   20.1776 C   0  0  0  0  0  0  0  0  0  0  0  0
    6.9192    9.1053   20.9073 O   0  0  0  0  0  0  0  0  0  0  0  0
   14.3979    6.0729   18.7784 C   0  0  0  0  0  0  0  0  0  0  0  0
    8.6811    9.5354   16.9998 C   0  0  0  0  0  0  0  0  0  0  0  0
    9.2512    4.2713   13.7653 O   0  0  0  0  0  0  0  0  0  0  0  0
    9.6495    8.6317   16.8332 N   0  0  0  0  0  0  0  0  0  0  0  0
    6.2934    8.6988   23.1988 O   0  0  0  0  0  0  0  0  0  0  0  0
    7.9806    8.6543   20.5437 C   0  0  0  0  0  0  0  0  0  0  0  0
   13.7270    5.7144   19.8610 O   0  0  0  0  0  0  0  0  0  0  0  0
    8.3351    5.5235   15.4478 C   0  0  0  0  0  0  0  0  0  0  0  0
    8.7700    7.8434   21.3915 C   0  0  0  0  0  0  0  0  0  0  0  0
   11.7856    6.8851   19.2401 C   0  0  0  0  0  0  0  0  0  0  0  0
   10.5281    7.4276   19.5649 C   0  0  0  0  0  0  0  0  0  0  0  0
   10.0256    7.2907   20.8484 C   0  0  0  0  0  0  0  0  0  0  0  0
    9.3113    5.3049   14.4911 C   0  0  0  0  0  0  0  0  0  0  0  0
    9.4607    7.5646   16.0139 C   0  0  0  0  0  0  0  0  0  0  0  0
   10.4192    7.3157   15.0955 C   0  0  0  0  0  0  0  0  0  0  0  0
   10.2489    6.4227   23.0218 N   0  0  0  0  0  0  0  0  0  0  0  0
    7.2472    8.0746   23.5050 C   0  0  0  0  0  0  0  0  0  0  0  0
    9.2051    6.9101   23.4604 C   0  0  0  0  0  0  0  0  0  0  0  0
   11.9646    6.0299   21.4251 C   0  0  0  0  0  0  0  0  0  0  0  0
  1  5  1  0
  1 13  1  0
  2 20  2  0
  2 28  1  0
  2 29  1  0
  3 19  4  0
  3 25  4  0
  4 23  4  0
  4 27  1  0
  4 30  4  0
  5 17  1  0
  6  8  1  0
  6 29  1  0
  7 24  4  0
  7 26  4  0
  8 28  1  0
  9 13  2  0
 10 18  1  0
 10 21  4  0
 10 30  4  0
 11 17  2  0
 12 18  1  0
 13 15  1  0
 14 24  1  0
 15 25  1  0
 16 28  2  0
 17 20  1  0
 19 24  4  0
 20 23  1  0
 21 22  4  0
 22 23  4  0
 25 26  4  0
 27 29  2  0
M  END
$$$$

 Created by Python create_sdf_string function

 30 33  0  0  0  0  0  0  0  0999 V2000
    8.3036    9.8571   18.4133 C   0  0  0  0  0  0  0  0  0  0  0  0
    8.3694    7.6612   22.6703 C   0  0  0  0  0  0  0  0  0  0  0  0
    8.4143    6.6863   16.2273 C   0  0  0  0  0  0  0  0  0  0  0  0
   10.7581    6.5674   21.7636 C   0  0  0  0  0  0  0  0  0  0  0  0
    8.4452    8.7960   19.2958 O   0  0  0  0  0  0  0  0  0  0  0  0
    8.7122    6.7842   24.8569 C   0  0  0  0  0  0  0  0  0  0  0  0
   10.3400    6.1726   14.3081 C   0  0  0  0  0  0  0  0  0  0  0  0
    7.4297    7.5873   24.8962 C   0  0  0  0  0  0  0  0  0  0  0  0
    8.1566   10.0536   16.0516 O   0  0  0  0  0  0  0  0  0  0  0  0
   12.4989    6.2074   20.1776 C   0  0  0  0  0  0  0  0  0  0  0  0
    6.9192    9.1053   20.9073 O   0  0  0  0  0  0  0  0  0  0  0  0
   14.3979    6.0729   18.7784 C   0  0  0  0  0  0  0  0  0  0  0  0
    8.6811    9.5354   16.9998 C   0  0  0  0  0  0  0  0  0  0  0  0
    9.2512    4.2713   13.7653 O   0  0  0  0  0  0  0  0  0  0  0  0
    9.6495    8.6317   16.8332 N   0  0  0  0  0  0  0  0  0  0  0  0
    6.2934    8.6988   23.1988 O   0  0  0  0  0  0  0  0  0  0  0  0
    7.9806    8.6543   20.5437 C   0  0  0  0  0  0  0  0  0  0  0  0
   13.7270    5.7144   19.8610 O   0  0  0  0  0  0  0  0  0  0  0  0
    8.3351    5.5235   15.4478 C   0  0  0  0  0  0  0  0  0  0  0  0
    8.7700    7.8434   21.3915 C   0  0  0  0  0  0  0  0  0  0  0  0
   11.7856    6.8851   19.2401 C   0  0  0  0  0  0  0  0  0  0  0  0
   10.5281    7.4276   19.5649 C   0  0  0  0  0  0  0  0  0  0  0  0
   10.0256    7.2907   20.8484 C   0  0  0  0  0  0  0  0  0  0  0  0
    9.3113    5.3049   14.4911 C   0  0  0  0  0  0  0  0  0  0  0  0
    9.4607    7.5646   16.0139 C   0  0  0  0  0  0  0  0  0  0  0  0
   10.4192    7.3157   15.0955 C   0  0  0  0  0  0  0  0  0  0  0  0
   10.2489    6.4227   23.0218 N   0  0  0  0  0  0  0  0  0  0  0  0
    7.2472    8.0746   23.5050 C   0  0  0  0  0  0  0  0  0  0  0  0
    9.2051    6.9101   23.4604 C   0  0  0  0  0  0  0  0  0  0  0  0
   11.9646    6.0299   21.4251 C   0  0  0  0  0  0  0  0  0  0  0  0
  1  5  1  0
  1 13  1  0
  2 20  2  0
  2 28  1  0
  2 29  1  0
  3 19  4  0
  3 25  4  0
  4 23  4  0
  4 27  1  0
  4 30  4  0
  5 17  1  0
  6  8  1  0
  6 29  1  0
  7 24  4  0
  7 26  4  0
  8 28  1  0
  9 13  2  0
 10 18  1  0
 10 21  4  0
 10 30  4  0
 11 17  2  0
 12 18  1  0
 13 15  1  0
 14 24  1  0
 15 25  1  0
 16 28  2  0
 17 20  1  0
 19 24  4  0
 20 23  1  0
 21 22  4  0
 22 23  4  0
 25 26  4  0
 27 29  2  0
M  END
$$$$

 Created by Python create_sdf_string function

 30 33  0  0  0  0  0  0  0  0999 V2000
    8.3036    9.8571   18.4133 C   0  0  0  0  0  0  0  0  0  0  0  0
    8.3694    7.6612   22.6703 C   0  0  0  0  0  0  0  0  0  0  0  0
    8.4143    6.6863   16.2273 C   0  0  0  0  0  0  0  0  0  0  0  0
   10.7581    6.5674   21.7636 C   0  0  0  0  0  0  0  0  0  0  0  0
    8.4452    8.7960   19.2958 O   0  0  0  0  0  0  0  0  0  0  0  0
    8.7122    6.7842   24.8569 C   0  0  0  0  0  0  0  0  0  0  0  0
   10.3400    6.1726   14.3081 C   0  0  0  0  0  0  0  0  0  0  0  0
    7.4297    7.5873   24.8962 C   0  0  0  0  0  0  0  0  0  0  0  0
    8.1566   10.0536   16.0516 O   0  0  0  0  0  0  0  0  0  0  0  0
   12.4989    6.2074   20.1776 C   0  0  0  0  0  0  0  0  0  0  0  0
    6.9192    9.1053   20.9073 O   0  0  0  0  0  0  0  0  0  0  0  0
   14.3979    6.0729   18.7784 C   0  0  0  0  0  0  0  0  0  0  0  0
    8.6811    9.5354   16.9998 C   0  0  0  0  0  0  0  0  0  0  0  0
    9.2512    4.2713   13.7653 O   0  0  0  0  0  0  0  0  0  0  0  0
    9.6495    8.6317   16.8332 N   0  0  0  0  0  0  0  0  0  0  0  0
    6.2934    8.6988   23.1988 O   0  0  0  0  0  0  0  0  0  0  0  0
    7.9806    8.6543   20.5437 C   0  0  0  0  0  0  0  0  0  0  0  0
   13.7270    5.7144   19.8610 O   0  0  0  0  0  0  0  0  0  0  0  0
    8.3351    5.5235   15.4478 C   0  0  0  0  0  0  0  0  0  0  0  0
    8.7700    7.8434   21.3915 C   0  0  0  0  0  0  0  0  0  0  0  0
   11.7856    6.8851   19.2401 C   0  0  0  0  0  0  0  0  0  0  0  0
   10.5281    7.4276   19.5649 C   0  0  0  0  0  0  0  0  0  0  0  0
   10.0256    7.2907   20.8484 C   0  0  0  0  0  0  0  0  0  0  0  0
    9.3113    5.3049   14.4911 C   0  0  0  0  0  0  0  0  0  0  0  0
    9.4607    7.5646   16.0139 C   0  0  0  0  0  0  0  0  0  0  0  0
   10.4192    7.3157   15.0955 C   0  0  0  0  0  0  0  0  0  0  0  0
   10.2489    6.4227   23.0218 N   0  0  0  0  0  0  0  0  0  0  0  0
    7.2472    8.0746   23.5050 C   0  0  0  0  0  0  0  0  0  0  0  0
    9.2051    6.9101   23.4604 C   0  0  0  0  0  0  0  0  0  0  0  0
   11.9646    6.0299   21.4251 C   0  0  0  0  0  0  0  0  0  0  0  0
  1  5  1  0
  1 13  1  0
  2 20  2  0
  2 28  1  0
  2 29  1  0
  3 19  4  0
  3 25  4  0
  4 23  4  0
  4 27  1  0
  4 30  4  0
  5 17  1  0
  6  8  1  0
  6 29  1  0
  7 24  4  0
  7 26  4  0
  8 28  1  0
  9 13  2  0
 10 18  1  0
 10 21  4  0
 10 30  4  0
 11 17  2  0
 12 18  1  0
 13 15  1  0
 14 24  1  0
 15 25  1  0
 16 28  2  0
 17 20  1  0
 19 24  4  0
 20 23  1  0
 21 22  4  0
 22 23  4  0
 25 26  4  0
 27 29  2  0
M  END
$$$$

 Created by Python create_sdf_string function

 30 33  0  0  0  0  0  0  0  0999 V2000
    8.3036    9.8571   18.4133 C   0  0  0  0  0  0  0  0  0  0  0  0
    8.3694    7.6612   22.6703 C   0  0  0  0  0  0  0  0  0  0  0  0
    8.4143    6.6863   16.2273 C   0  0  0  0  0  0  0  0  0  0  0  0
   10.7581    6.5674   21.7636 C   0  0  0  0  0  0  0  0  0  0  0  0
    8.4452    8.7960   19.2958 O   0  0  0  0  0  0  0  0  0  0  0  0
    8.7122    6.7842   24.8569 C   0  0  0  0  0  0  0  0  0  0  0  0
   10.3400    6.1726   14.3081 C   0  0  0  0  0  0  0  0  0  0  0  0
    7.4297    7.5873   24.8962 C   0  0  0  0  0  0  0  0  0  0  0  0
    8.1566   10.0536   16.0516 O   0  0  0  0  0  0  0  0  0  0  0  0
   12.4989    6.2074   20.1776 C   0  0  0  0  0  0  0  0  0  0  0  0
    6.9192    9.1053   20.9073 O   0  0  0  0  0  0  0  0  0  0  0  0
   14.3979    6.0729   18.7784 C   0  0  0  0  0  0  0  0  0  0  0  0
    8.6811    9.5354   16.9998 C   0  0  0  0  0  0  0  0  0  0  0  0
    9.2512    4.2713   13.7653 O   0  0  0  0  0  0  0  0  0  0  0  0
    9.6495    8.6317   16.8332 N   0  0  0  0  0  0  0  0  0  0  0  0
    6.2934    8.6988   23.1988 O   0  0  0  0  0  0  0  0  0  0  0  0
    7.9806    8.6543   20.5437 C   0  0  0  0  0  0  0  0  0  0  0  0
   13.7270    5.7144   19.8610 O   0  0  0  0  0  0  0  0  0  0  0  0
    8.3351    5.5235   15.4478 C   0  0  0  0  0  0  0  0  0  0  0  0
    8.7700    7.8434   21.3915 C   0  0  0  0  0  0  0  0  0  0  0  0
   11.7856    6.8851   19.2401 C   0  0  0  0  0  0  0  0  0  0  0  0
   10.5281    7.4276   19.5649 C   0  0  0  0  0  0  0  0  0  0  0  0
   10.0256    7.2907   20.8484 C   0  0  0  0  0  0  0  0  0  0  0  0
    9.3113    5.3049   14.4911 C   0  0  0  0  0  0  0  0  0  0  0  0
    9.4607    7.5646   16.0139 C   0  0  0  0  0  0  0  0  0  0  0  0
   10.4192    7.3157   15.0955 C   0  0  0  0  0  0  0  0  0  0  0  0
   10.2489    6.4227   23.0218 N   0  0  0  0  0  0  0  0  0  0  0  0
    7.2472    8.0746   23.5050 C   0  0  0  0  0  0  0  0  0  0  0  0
    9.2051    6.9101   23.4604 C   0  0  0  0  0  0  0  0  0  0  0  0
   11.9646    6.0299   21.4251 C   0  0  0  0  0  0  0  0  0  0  0  0
  1  5  1  0
  1 13  1  0
  2 20  2  0
  2 28  1  0
  2 29  1  0
  3 19  4  0
  3 25  4  0
  4 23  4  0
  4 27  1  0
  4 30  4  0
  5 17  1  0
  6  8  1  0
  6 29  1  0
  7 24  4  0
  7 26  4  0
  8 28  1  0
  9 13  2  0
 10 18  1  0
 10 21  4  0
 10 30  4  0
 11 17  2  0
 12 18  1  0
 13 15  1  0
 14 24  1  0
 15 25  1  0
 16 28  2  0
 17 20  1  0
 19 24  4  0
 20 23  1  0
 21 22  4  0
 22 23  4  0
 25 26  4  0
 27 29  2  0
M  END
$$$$

 Created by Python create_sdf_string function

 30 33  0  0  0  0  0  0  0  0999 V2000
    8.3036    9.8571   18.4133 C   0  0  0  0  0  0  0  0  0  0  0  0
    8.3694    7.6612   22.6703 C   0  0  0  0  0  0  0  0  0  0  0  0
    8.4143    6.6863   16.2273 C   0  0  0  0  0  0  0  0  0  0  0  0
   10.7581    6.5674   21.7636 C   0  0  0  0  0  0  0  0  0  0  0  0
    8.4452    8.7960   19.2958 O   0  0  0  0  0  0  0  0  0  0  0  0
    8.7122    6.7842   24.8569 C   0  0  0  0  0  0  0  0  0  0  0  0
   10.3400    6.1726   14.3081 C   0  0  0  0  0  0  0  0  0  0  0  0
    7.4297    7.5873   24.8962 C   0  0  0  0  0  0  0  0  0  0  0  0
    8.1566   10.0536   16.0516 O   0  0  0  0  0  0  0  0  0  0  0  0
   12.4989    6.2074   20.1776 C   0  0  0  0  0  0  0  0  0  0  0  0
    6.9192    9.1053   20.9073 O   0  0  0  0  0  0  0  0  0  0  0  0
   14.3979    6.0729   18.7784 C   0  0  0  0  0  0  0  0  0  0  0  0
    8.6811    9.5354   16.9998 C   0  0  0  0  0  0  0  0  0  0  0  0
    9.2512    4.2713   13.7653 O   0  0  0  0  0  0  0  0  0  0  0  0
    9.6495    8.6317   16.8332 N   0  0  0  0  0  0  0  0  0  0  0  0
    6.2934    8.6988   23.1988 O   0  0  0  0  0  0  0  0  0  0  0  0
    7.9806    8.6543   20.5437 C   0  0  0  0  0  0  0  0  0  0  0  0
   13.7270    5.7144   19.8610 O   0  0  0  0  0  0  0  0  0  0  0  0
    8.3351    5.5235   15.4478 C   0  0  0  0  0  0  0  0  0  0  0  0
    8.7700    7.8434   21.3915 C   0  0  0  0  0  0  0  0  0  0  0  0
   11.7856    6.8851   19.2401 C   0  0  0  0  0  0  0  0  0  0  0  0
   10.5281    7.4276   19.5649 C   0  0  0  0  0  0  0  0  0  0  0  0
   10.0256    7.2907   20.8484 C   0  0  0  0  0  0  0  0  0  0  0  0
    9.3113    5.3049   14.4911 C   0  0  0  0  0  0  0  0  0  0  0  0
    9.4607    7.5646   16.0139 C   0  0  0  0  0  0  0  0  0  0  0  0
   10.4192    7.3157   15.0955 C   0  0  0  0  0  0  0  0  0  0  0  0
   10.2489    6.4227   23.0218 N   0  0  0  0  0  0  0  0  0  0  0  0
    7.2472    8.0746   23.5050 C   0  0  0  0  0  0  0  0  0  0  0  0
    9.2051    6.9101   23.4604 C   0  0  0  0  0  0  0  0  0  0  0  0
   11.9646    6.0299   21.4251 C   0  0  0  0  0  0  0  0  0  0  0  0
  1  5  1  0
  1 13  1  0
  2 20  2  0
  2 28  1  0
  2 29  1  0
  3 19  4  0
  3 25  4  0
  4 23  4  0
  4 27  1  0
  4 30  4  0
  5 17  1  0
  6  8  1  0
  6 29  1  0
  7 24  4  0
  7 26  4  0
  8 28  1  0
  9 13  2  0
 10 18  1  0
 10 21  4  0
 10 30  4  0
 11 17  2  0
 12 18  1  0
 13 15  1  0
 14 24  1  0
 15 25  1  0
 16 28  2  0
 17 20  1  0
 19 24  4  0
 20 23  1  0
 21 22  4  0
 22 23  4  0
 25 26  4  0
 27 29  2  0
M  END
$$$$

 Created by Python create_sdf_string function

 30 33  0  0  0  0  0  0  0  0999 V2000
    8.3036    9.8571   18.4133 C   0  0  0  0  0  0  0  0  0  0  0  0
    8.3694    7.6612   22.6703 C   0  0  0  0  0  0  0  0  0  0  0  0
    8.4143    6.6863   16.2273 C   0  0  0  0  0  0  0  0  0  0  0  0
   10.7581    6.5674   21.7636 C   0  0  0  0  0  0  0  0  0  0  0  0
    8.4452    8.7960   19.2958 O   0  0  0  0  0  0  0  0  0  0  0  0
    8.7122    6.7842   24.8569 C   0  0  0  0  0  0  0  0  0  0  0  0
   10.3400    6.1726   14.3081 C   0  0  0  0  0  0  0  0  0  0  0  0
    7.4297    7.5873   24.8962 C   0  0  0  0  0  0  0  0  0  0  0  0
    8.1566   10.0536   16.0516 O   0  0  0  0  0  0  0  0  0  0  0  0
   12.4989    6.2074   20.1776 C   0  0  0  0  0  0  0  0  0  0  0  0
    6.9192    9.1053   20.9073 O   0  0  0  0  0  0  0  0  0  0  0  0
   14.3979    6.0729   18.7784 C   0  0  0  0  0  0  0  0  0  0  0  0
    8.6811    9.5354   16.9998 C   0  0  0  0  0  0  0  0  0  0  0  0
    9.2512    4.2713   13.7653 O   0  0  0  0  0  0  0  0  0  0  0  0
    9.6495    8.6317   16.8332 N   0  0  0  0  0  0  0  0  0  0  0  0
    6.2934    8.6988   23.1988 O   0  0  0  0  0  0  0  0  0  0  0  0
    7.9806    8.6543   20.5437 C   0  0  0  0  0  0  0  0  0  0  0  0
   13.7270    5.7144   19.8610 O   0  0  0  0  0  0  0  0  0  0  0  0
    8.3351    5.5235   15.4478 C   0  0  0  0  0  0  0  0  0  0  0  0
    8.7700    7.8434   21.3915 C   0  0  0  0  0  0  0  0  0  0  0  0
   11.7856    6.8851   19.2401 C   0  0  0  0  0  0  0  0  0  0  0  0
   10.5281    7.4276   19.5649 C   0  0  0  0  0  0  0  0  0  0  0  0
   10.0256    7.2907   20.8484 C   0  0  0  0  0  0  0  0  0  0  0  0
    9.3113    5.3049   14.4911 C   0  0  0  0  0  0  0  0  0  0  0  0
    9.4607    7.5646   16.0139 C   0  0  0  0  0  0  0  0  0  0  0  0
   10.4192    7.3157   15.0955 C   0  0  0  0  0  0  0  0  0  0  0  0
   10.2489    6.4227   23.0218 N   0  0  0  0  0  0  0  0  0  0  0  0
    7.2472    8.0746   23.5050 C   0  0  0  0  0  0  0  0  0  0  0  0
    9.2051    6.9101   23.4604 C   0  0  0  0  0  0  0  0  0  0  0  0
   11.9646    6.0299   21.4251 C   0  0  0  0  0  0  0  0  0  0  0  0
  1  5  1  0
  1 13  1  0
  2 20  2  0
  2 28  1  0
  2 29  1  0
  3 19  4  0
  3 25  4  0
  4 23  4  0
  4 27  1  0
  4 30  4  0
  5 17  1  0
  6  8  1  0
  6 29  1  0
  7 24  4  0
  7 26  4  0
  8 28  1  0
  9 13  2  0
 10 18  1  0
 10 21  4  0
 10 30  4  0
 11 17  2  0
 12 18  1  0
 13 15  1  0
 14 24  1  0
 15 25  1  0
 16 28  2  0
 17 20  1  0
 19 24  4  0
 20 23  1  0
 21 22  4  0
 22 23  4  0
 25 26  4  0
 27 29  2  0
M  END
$$$$

 Created by Python create_sdf_string function

 30 33  0  0  0  0  0  0  0  0999 V2000
    8.3036    9.8571   18.4133 C   0  0  0  0  0  0  0  0  0  0  0  0
    8.3694    7.6612   22.6703 C   0  0  0  0  0  0  0  0  0  0  0  0
    8.4143    6.6863   16.2273 C   0  0  0  0  0  0  0  0  0  0  0  0
   10.7581    6.5674   21.7636 C   0  0  0  0  0  0  0  0  0  0  0  0
    8.4452    8.7960   19.2958 O   0  0  0  0  0  0  0  0  0  0  0  0
    8.7122    6.7842   24.8569 C   0  0  0  0  0  0  0  0  0  0  0  0
   10.3400    6.1726   14.3081 C   0  0  0  0  0  0  0  0  0  0  0  0
    7.4297    7.5873   24.8962 C   0  0  0  0  0  0  0  0  0  0  0  0
    8.1566   10.0536   16.0516 O   0  0  0  0  0  0  0  0  0  0  0  0
   12.4989    6.2074   20.1776 C   0  0  0  0  0  0  0  0  0  0  0  0
    6.9192    9.1053   20.9073 O   0  0  0  0  0  0  0  0  0  0  0  0
   14.3979    6.0729   18.7784 C   0  0  0  0  0  0  0  0  0  0  0  0
    8.6811    9.5354   16.9998 C   0  0  0  0  0  0  0  0  0  0  0  0
    9.2512    4.2713   13.7653 O   0  0  0  0  0  0  0  0  0  0  0  0
    9.6495    8.6317   16.8332 N   0  0  0  0  0  0  0  0  0  0  0  0
    6.2934    8.6988   23.1988 O   0  0  0  0  0  0  0  0  0  0  0  0
    7.9806    8.6543   20.5437 C   0  0  0  0  0  0  0  0  0  0  0  0
   13.7270    5.7144   19.8610 O   0  0  0  0  0  0  0  0  0  0  0  0
    8.3351    5.5235   15.4478 C   0  0  0  0  0  0  0  0  0  0  0  0
    8.7700    7.8434   21.3915 C   0  0  0  0  0  0  0  0  0  0  0  0
   11.7856    6.8851   19.2401 C   0  0  0  0  0  0  0  0  0  0  0  0
   10.5281    7.4276   19.5649 C   0  0  0  0  0  0  0  0  0  0  0  0
   10.0256    7.2907   20.8484 C   0  0  0  0  0  0  0  0  0  0  0  0
    9.3113    5.3049   14.4911 C   0  0  0  0  0  0  0  0  0  0  0  0
    9.4607    7.5646   16.0139 C   0  0  0  0  0  0  0  0  0  0  0  0
   10.4192    7.3157   15.0955 C   0  0  0  0  0  0  0  0  0  0  0  0
   10.2489    6.4227   23.0218 N   0  0  0  0  0  0  0  0  0  0  0  0
    7.2472    8.0746   23.5050 C   0  0  0  0  0  0  0  0  0  0  0  0
    9.2051    6.9101   23.4604 C   0  0  0  0  0  0  0  0  0  0  0  0
   11.9646    6.0299   21.4251 C   0  0  0  0  0  0  0  0  0  0  0  0
  1  5  1  0
  1 13  1  0
  2 20  2  0
  2 28  1  0
  2 29  1  0
  3 19  4  0
  3 25  4  0
  4 23  4  0
  4 27  1  0
  4 30  4  0
  5 17  1  0
  6  8  1  0
  6 29  1  0
  7 24  4  0
  7 26  4  0
  8 28  1  0
  9 13  2  0
 10 18  1  0
 10 21  4  0
 10 30  4  0
 11 17  2  0
 12 18  1  0
 13 15  1  0
 14 24  1  0
 15 25  1  0
 16 28  2  0
 17 20  1  0
 19 24  4  0
 20 23  1  0
 21 22  4  0
 22 23  4  0
 25 26  4  0
 27 29  2  0
M  END
$$$$

 Created by Python create_sdf_string function

 30 33  0  0  0  0  0  0  0  0999 V2000
    8.3036    9.8571   18.4133 C   0  0  0  0  0  0  0  0  0  0  0  0
    8.3694    7.6612   22.6703 C   0  0  0  0  0  0  0  0  0  0  0  0
    8.4143    6.6863   16.2273 C   0  0  0  0  0  0  0  0  0  0  0  0
   10.7581    6.5674   21.7636 C   0  0  0  0  0  0  0  0  0  0  0  0
    8.4452    8.7960   19.2958 O   0  0  0  0  0  0  0  0  0  0  0  0
    8.7122    6.7842   24.8569 C   0  0  0  0  0  0  0  0  0  0  0  0
   10.3400    6.1726   14.3081 C   0  0  0  0  0  0  0  0  0  0  0  0
    7.4297    7.5873   24.8962 C   0  0  0  0  0  0  0  0  0  0  0  0
    8.1566   10.0536   16.0516 O   0  0  0  0  0  0  0  0  0  0  0  0
   12.4989    6.2074   20.1776 C   0  0  0  0  0  0  0  0  0  0  0  0
    6.9192    9.1053   20.9073 O   0  0  0  0  0  0  0  0  0  0  0  0
   14.3979    6.0729   18.7784 C   0  0  0  0  0  0  0  0  0  0  0  0
    8.6811    9.5354   16.9998 C   0  0  0  0  0  0  0  0  0  0  0  0
    9.2512    4.2713   13.7653 O   0  0  0  0  0  0  0  0  0  0  0  0
    9.6495    8.6317   16.8332 N   0  0  0  0  0  0  0  0  0  0  0  0
    6.2934    8.6988   23.1988 O   0  0  0  0  0  0  0  0  0  0  0  0
    7.9806    8.6543   20.5437 C   0  0  0  0  0  0  0  0  0  0  0  0
   13.7270    5.7144   19.8610 O   0  0  0  0  0  0  0  0  0  0  0  0
    8.3351    5.5235   15.4478 C   0  0  0  0  0  0  0  0  0  0  0  0
    8.7700    7.8434   21.3915 C   0  0  0  0  0  0  0  0  0  0  0  0
   11.7856    6.8851   19.2401 C   0  0  0  0  0  0  0  0  0  0  0  0
   10.5281    7.4276   19.5649 C   0  0  0  0  0  0  0  0  0  0  0  0
   10.0256    7.2907   20.8484 C   0  0  0  0  0  0  0  0  0  0  0  0
    9.3113    5.3049   14.4911 C   0  0  0  0  0  0  0  0  0  0  0  0
    9.4607    7.5646   16.0139 C   0  0  0  0  0  0  0  0  0  0  0  0
   10.4192    7.3157   15.0955 C   0  0  0  0  0  0  0  0  0  0  0  0
   10.2489    6.4227   23.0218 N   0  0  0  0  0  0  0  0  0  0  0  0
    7.2472    8.0746   23.5050 C   0  0  0  0  0  0  0  0  0  0  0  0
    9.2051    6.9101   23.4604 C   0  0  0  0  0  0  0  0  0  0  0  0
   11.9646    6.0299   21.4251 C   0  0  0  0  0  0  0  0  0  0  0  0
  1  5  1  0
  1 13  1  0
  2 20  2  0
  2 28  1  0
  2 29  1  0
  3 19  4  0
  3 25  4  0
  4 23  4  0
  4 27  1  0
  4 30  4  0
  5 17  1  0
  6  8  1  0
  6 29  1  0
  7 24  4  0
  7 26  4  0
  8 28  1  0
  9 13  2  0
 10 18  1  0
 10 21  4  0
 10 30  4  0
 11 17  2  0
 12 18  1  0
 13 15  1  0
 14 24  1  0
 15 25  1  0
 16 28  2  0
 17 20  1  0
 19 24  4  0
 20 23  1  0
 21 22  4  0
 22 23  4  0
 25 26  4  0
 27 29  2  0
M  END
$$$$

 Created by Python create_sdf_string function

 30 33  0  0  0  0  0  0  0  0999 V2000
    8.3036    9.8571   18.4133 C   0  0  0  0  0  0  0  0  0  0  0  0
    8.3694    7.6612   22.6703 C   0  0  0  0  0  0  0  0  0  0  0  0
    8.4143    6.6863   16.2273 C   0  0  0  0  0  0  0  0  0  0  0  0
   10.7581    6.5674   21.7636 C   0  0  0  0  0  0  0  0  0  0  0  0
    8.4452    8.7960   19.2958 O   0  0  0  0  0  0  0  0  0  0  0  0
    8.7122    6.7842   24.8569 C   0  0  0  0  0  0  0  0  0  0  0  0
   10.3400    6.1726   14.3081 C   0  0  0  0  0  0  0  0  0  0  0  0
    7.4297    7.5873   24.8962 C   0  0  0  0  0  0  0  0  0  0  0  0
    8.1566   10.0536   16.0516 O   0  0  0  0  0  0  0  0  0  0  0  0
   12.4989    6.2074   20.1776 C   0  0  0  0  0  0  0  0  0  0  0  0
    6.9192    9.1053   20.9073 O   0  0  0  0  0  0  0  0  0  0  0  0
   14.3979    6.0729   18.7784 C   0  0  0  0  0  0  0  0  0  0  0  0
    8.6811    9.5354   16.9998 C   0  0  0  0  0  0  0  0  0  0  0  0
    9.2512    4.2713   13.7653 O   0  0  0  0  0  0  0  0  0  0  0  0
    9.6495    8.6317   16.8332 N   0  0  0  0  0  0  0  0  0  0  0  0
    6.2934    8.6988   23.1988 O   0  0  0  0  0  0  0  0  0  0  0  0
    7.9806    8.6543   20.5437 C   0  0  0  0  0  0  0  0  0  0  0  0
   13.7270    5.7144   19.8610 O   0  0  0  0  0  0  0  0  0  0  0  0
    8.3351    5.5235   15.4478 C   0  0  0  0  0  0  0  0  0  0  0  0
    8.7700    7.8434   21.3915 C   0  0  0  0  0  0  0  0  0  0  0  0
   11.7856    6.8851   19.2401 C   0  0  0  0  0  0  0  0  0  0  0  0
   10.5281    7.4276   19.5649 C   0  0  0  0  0  0  0  0  0  0  0  0
   10.0256    7.2907   20.8484 C   0  0  0  0  0  0  0  0  0  0  0  0
    9.3113    5.3049   14.4911 C   0  0  0  0  0  0  0  0  0  0  0  0
    9.4607    7.5646   16.0139 C   0  0  0  0  0  0  0  0  0  0  0  0
   10.4192    7.3157   15.0955 C   0  0  0  0  0  0  0  0  0  0  0  0
   10.2489    6.4227   23.0218 N   0  0  0  0  0  0  0  0  0  0  0  0
    7.2472    8.0746   23.5050 C   0  0  0  0  0  0  0  0  0  0  0  0
    9.2051    6.9101   23.4604 C   0  0  0  0  0  0  0  0  0  0  0  0
   11.9646    6.0299   21.4251 C   0  0  0  0  0  0  0  0  0  0  0  0
  1  5  1  0
  1 13  1  0
  2 20  2  0
  2 28  1  0
  2 29  1  0
  3 19  4  0
  3 25  4  0
  4 23  4  0
  4 27  1  0
  4 30  4  0
  5 17  1  0
  6  8  1  0
  6 29  1  0
  7 24  4  0
  7 26  4  0
  8 28  1  0
  9 13  2  0
 10 18  1  0
 10 21  4  0
 10 30  4  0
 11 17  2  0
 12 18  1  0
 13 15  1  0
 14 24  1  0
 15 25  1  0
 16 28  2  0
 17 20  1  0
 19 24  4  0
 20 23  1  0
 21 22  4  0
 22 23  4  0
 25 26  4  0
 27 29  2  0
M  END
$$$$

 Created by Python create_sdf_string function

 30 33  0  0  0  0  0  0  0  0999 V2000
    8.3036    9.8571   18.4133 C   0  0  0  0  0  0  0  0  0  0  0  0
    8.3694    7.6612   22.6703 C   0  0  0  0  0  0  0  0  0  0  0  0
    8.4143    6.6863   16.2273 C   0  0  0  0  0  0  0  0  0  0  0  0
   10.7581    6.5674   21.7636 C   0  0  0  0  0  0  0  0  0  0  0  0
    8.4452    8.7960   19.2958 O   0  0  0  0  0  0  0  0  0  0  0  0
    8.7122    6.7842   24.8569 C   0  0  0  0  0  0  0  0  0  0  0  0
   10.3400    6.1726   14.3081 C   0  0  0  0  0  0  0  0  0  0  0  0
    7.4297    7.5873   24.8962 C   0  0  0  0  0  0  0  0  0  0  0  0
    8.1566   10.0536   16.0516 O   0  0  0  0  0  0  0  0  0  0  0  0
   12.4989    6.2074   20.1776 C   0  0  0  0  0  0  0  0  0  0  0  0
    6.9192    9.1053   20.9073 O   0  0  0  0  0  0  0  0  0  0  0  0
   14.3979    6.0729   18.7784 C   0  0  0  0  0  0  0  0  0  0  0  0
    8.6811    9.5354   16.9998 C   0  0  0  0  0  0  0  0  0  0  0  0
    9.2512    4.2713   13.7653 O   0  0  0  0  0  0  0  0  0  0  0  0
    9.6495    8.6317   16.8332 N   0  0  0  0  0  0  0  0  0  0  0  0
    6.2934    8.6988   23.1988 O   0  0  0  0  0  0  0  0  0  0  0  0
    7.9806    8.6543   20.5437 C   0  0  0  0  0  0  0  0  0  0  0  0
   13.7270    5.7144   19.8610 O   0  0  0  0  0  0  0  0  0  0  0  0
    8.3351    5.5235   15.4478 C   0  0  0  0  0  0  0  0  0  0  0  0
    8.7700    7.8434   21.3915 C   0  0  0  0  0  0  0  0  0  0  0  0
   11.7856    6.8851   19.2401 C   0  0  0  0  0  0  0  0  0  0  0  0
   10.5281    7.4276   19.5649 C   0  0  0  0  0  0  0  0  0  0  0  0
   10.0256    7.2907   20.8484 C   0  0  0  0  0  0  0  0  0  0  0  0
    9.3113    5.3049   14.4911 C   0  0  0  0  0  0  0  0  0  0  0  0
    9.4607    7.5646   16.0139 C   0  0  0  0  0  0  0  0  0  0  0  0
   10.4192    7.3157   15.0955 C   0  0  0  0  0  0  0  0  0  0  0  0
   10.2489    6.4227   23.0218 N   0  0  0  0  0  0  0  0  0  0  0  0
    7.2472    8.0746   23.5050 C   0  0  0  0  0  0  0  0  0  0  0  0
    9.2051    6.9101   23.4604 C   0  0  0  0  0  0  0  0  0  0  0  0
   11.9646    6.0299   21.4251 C   0  0  0  0  0  0  0  0  0  0  0  0
  1  5  1  0
  1 13  1  0
  2 20  2  0
  2 28  1  0
  2 29  1  0
  3 19  4  0
  3 25  4  0
  4 23  4  0
  4 27  1  0
  4 30  4  0
  5 17  1  0
  6  8  1  0
  6 29  1  0
  7 24  4  0
  7 26  4  0
  8 28  1  0
  9 13  2  0
 10 18  1  0
 10 21  4  0
 10 30  4  0
 11 17  2  0
 12 18  1  0
 13 15  1  0
 14 24  1  0
 15 25  1  0
 16 28  2  0
 17 20  1  0
 19 24  4  0
 20 23  1  0
 21 22  4  0
 22 23  4  0
 25 26  4  0
 27 29  2  0
M  END
$$$$

 Created by Python create_sdf_string function

 30 33  0  0  0  0  0  0  0  0999 V2000
    8.3036    9.8571   18.4133 C   0  0  0  0  0  0  0  0  0  0  0  0
    8.3694    7.6612   22.6703 C   0  0  0  0  0  0  0  0  0  0  0  0
    8.4143    6.6863   16.2273 C   0  0  0  0  0  0  0  0  0  0  0  0
   10.7581    6.5674   21.7636 C   0  0  0  0  0  0  0  0  0  0  0  0
    8.4452    8.7960   19.2958 O   0  0  0  0  0  0  0  0  0  0  0  0
    8.7122    6.7842   24.8569 C   0  0  0  0  0  0  0  0  0  0  0  0
   10.3400    6.1726   14.3081 C   0  0  0  0  0  0  0  0  0  0  0  0
    7.4297    7.5873   24.8962 C   0  0  0  0  0  0  0  0  0  0  0  0
    8.1566   10.0536   16.0516 O   0  0  0  0  0  0  0  0  0  0  0  0
   12.4989    6.2074   20.1776 C   0  0  0  0  0  0  0  0  0  0  0  0
    6.9192    9.1053   20.9073 O   0  0  0  0  0  0  0  0  0  0  0  0
   14.3979    6.0729   18.7784 C   0  0  0  0  0  0  0  0  0  0  0  0
    8.6811    9.5354   16.9998 C   0  0  0  0  0  0  0  0  0  0  0  0
    9.2512    4.2713   13.7653 O   0  0  0  0  0  0  0  0  0  0  0  0
    9.6495    8.6317   16.8332 N   0  0  0  0  0  0  0  0  0  0  0  0
    6.2934    8.6988   23.1988 O   0  0  0  0  0  0  0  0  0  0  0  0
    7.9806    8.6543   20.5437 C   0  0  0  0  0  0  0  0  0  0  0  0
   13.7270    5.7144   19.8610 O   0  0  0  0  0  0  0  0  0  0  0  0
    8.3351    5.5235   15.4478 C   0  0  0  0  0  0  0  0  0  0  0  0
    8.7700    7.8434   21.3915 C   0  0  0  0  0  0  0  0  0  0  0  0
   11.7856    6.8851   19.2401 C   0  0  0  0  0  0  0  0  0  0  0  0
   10.5281    7.4276   19.5649 C   0  0  0  0  0  0  0  0  0  0  0  0
   10.0256    7.2907   20.8484 C   0  0  0  0  0  0  0  0  0  0  0  0
    9.3113    5.3049   14.4911 C   0  0  0  0  0  0  0  0  0  0  0  0
    9.4607    7.5646   16.0139 C   0  0  0  0  0  0  0  0  0  0  0  0
   10.4192    7.3157   15.0955 C   0  0  0  0  0  0  0  0  0  0  0  0
   10.2489    6.4227   23.0218 N   0  0  0  0  0  0  0  0  0  0  0  0
    7.2472    8.0746   23.5050 C   0  0  0  0  0  0  0  0  0  0  0  0
    9.2051    6.9101   23.4604 C   0  0  0  0  0  0  0  0  0  0  0  0
   11.9646    6.0299   21.4251 C   0  0  0  0  0  0  0  0  0  0  0  0
  1  5  1  0
  1 13  1  0
  2 20  2  0
  2 28  1  0
  2 29  1  0
  3 19  4  0
  3 25  4  0
  4 23  4  0
  4 27  1  0
  4 30  4  0
  5 17  1  0
  6  8  1  0
  6 29  1  0
  7 24  4  0
  7 26  4  0
  8 28  1  0
  9 13  2  0
 10 18  1  0
 10 21  4  0
 10 30  4  0
 11 17  2  0
 12 18  1  0
 13 15  1  0
 14 24  1  0
 15 25  1  0
 16 28  2  0
 17 20  1  0
 19 24  4  0
 20 23  1  0
 21 22  4  0
 22 23  4  0
 25 26  4  0
 27 29  2  0
M  END
$$$$

 Created by Python create_sdf_string function

 30 33  0  0  0  0  0  0  0  0999 V2000
    8.3036    9.8571   18.4133 C   0  0  0  0  0  0  0  0  0  0  0  0
    8.3694    7.6612   22.6703 C   0  0  0  0  0  0  0  0  0  0  0  0
    8.4143    6.6863   16.2273 C   0  0  0  0  0  0  0  0  0  0  0  0
   10.7581    6.5674   21.7636 C   0  0  0  0  0  0  0  0  0  0  0  0
    8.4452    8.7960   19.2958 O   0  0  0  0  0  0  0  0  0  0  0  0
    8.7122    6.7842   24.8569 C   0  0  0  0  0  0  0  0  0  0  0  0
   10.3400    6.1726   14.3081 C   0  0  0  0  0  0  0  0  0  0  0  0
    7.4297    7.5873   24.8962 C   0  0  0  0  0  0  0  0  0  0  0  0
    8.1566   10.0536   16.0516 O   0  0  0  0  0  0  0  0  0  0  0  0
   12.4989    6.2074   20.1776 C   0  0  0  0  0  0  0  0  0  0  0  0
    6.9192    9.1053   20.9073 O   0  0  0  0  0  0  0  0  0  0  0  0
   14.3979    6.0729   18.7784 C   0  0  0  0  0  0  0  0  0  0  0  0
    8.6811    9.5354   16.9998 C   0  0  0  0  0  0  0  0  0  0  0  0
    9.2512    4.2713   13.7653 O   0  0  0  0  0  0  0  0  0  0  0  0
    9.6495    8.6317   16.8332 N   0  0  0  0  0  0  0  0  0  0  0  0
    6.2934    8.6988   23.1988 O   0  0  0  0  0  0  0  0  0  0  0  0
    7.9806    8.6543   20.5437 C   0  0  0  0  0  0  0  0  0  0  0  0
   13.7270    5.7144   19.8610 O   0  0  0  0  0  0  0  0  0  0  0  0
    8.3351    5.5235   15.4478 C   0  0  0  0  0  0  0  0  0  0  0  0
    8.7700    7.8434   21.3915 C   0  0  0  0  0  0  0  0  0  0  0  0
   11.7856    6.8851   19.2401 C   0  0  0  0  0  0  0  0  0  0  0  0
   10.5281    7.4276   19.5649 C   0  0  0  0  0  0  0  0  0  0  0  0
   10.0256    7.2907   20.8484 C   0  0  0  0  0  0  0  0  0  0  0  0
    9.3113    5.3049   14.4911 C   0  0  0  0  0  0  0  0  0  0  0  0
    9.4607    7.5646   16.0139 C   0  0  0  0  0  0  0  0  0  0  0  0
   10.4192    7.3157   15.0955 C   0  0  0  0  0  0  0  0  0  0  0  0
   10.2489    6.4227   23.0218 N   0  0  0  0  0  0  0  0  0  0  0  0
    7.2472    8.0746   23.5050 C   0  0  0  0  0  0  0  0  0  0  0  0
    9.2051    6.9101   23.4604 C   0  0  0  0  0  0  0  0  0  0  0  0
   11.9646    6.0299   21.4251 C   0  0  0  0  0  0  0  0  0  0  0  0
  1  5  1  0
  1 13  1  0
  2 20  2  0
  2 28  1  0
  2 29  1  0
  3 19  4  0
  3 25  4  0
  4 23  4  0
  4 27  1  0
  4 30  4  0
  5 17  1  0
  6  8  1  0
  6 29  1  0
  7 24  4  0
  7 26  4  0
  8 28  1  0
  9 13  2  0
 10 18  1  0
 10 21  4  0
 10 30  4  0
 11 17  2  0
 12 18  1  0
 13 15  1  0
 14 24  1  0
 15 25  1  0
 16 28  2  0
 17 20  1  0
 19 24  4  0
 20 23  1  0
 21 22  4  0
 22 23  4  0
 25 26  4  0
 27 29  2  0
M  END
$$$$

 Created by Python create_sdf_string function

 30 33  0  0  0  0  0  0  0  0999 V2000
    8.3036    9.8571   18.4133 C   0  0  0  0  0  0  0  0  0  0  0  0
    8.3694    7.6612   22.6703 C   0  0  0  0  0  0  0  0  0  0  0  0
    8.4143    6.6863   16.2273 C   0  0  0  0  0  0  0  0  0  0  0  0
   10.7581    6.5674   21.7636 C   0  0  0  0  0  0  0  0  0  0  0  0
    8.4452    8.7960   19.2958 O   0  0  0  0  0  0  0  0  0  0  0  0
    8.7122    6.7842   24.8569 C   0  0  0  0  0  0  0  0  0  0  0  0
   10.3400    6.1726   14.3081 C   0  0  0  0  0  0  0  0  0  0  0  0
    7.4297    7.5873   24.8962 C   0  0  0  0  0  0  0  0  0  0  0  0
    8.1566   10.0536   16.0516 O   0  0  0  0  0  0  0  0  0  0  0  0
   12.4989    6.2074   20.1776 C   0  0  0  0  0  0  0  0  0  0  0  0
    6.9192    9.1053   20.9073 O   0  0  0  0  0  0  0  0  0  0  0  0
   14.3979    6.0729   18.7784 C   0  0  0  0  0  0  0  0  0  0  0  0
    8.6811    9.5354   16.9998 C   0  0  0  0  0  0  0  0  0  0  0  0
    9.2512    4.2713   13.7653 O   0  0  0  0  0  0  0  0  0  0  0  0
    9.6495    8.6317   16.8332 N   0  0  0  0  0  0  0  0  0  0  0  0
    6.2934    8.6988   23.1988 O   0  0  0  0  0  0  0  0  0  0  0  0
    7.9806    8.6543   20.5437 C   0  0  0  0  0  0  0  0  0  0  0  0
   13.7270    5.7144   19.8610 O   0  0  0  0  0  0  0  0  0  0  0  0
    8.3351    5.5235   15.4478 C   0  0  0  0  0  0  0  0  0  0  0  0
    8.7700    7.8434   21.3915 C   0  0  0  0  0  0  0  0  0  0  0  0
   11.7856    6.8851   19.2401 C   0  0  0  0  0  0  0  0  0  0  0  0
   10.5281    7.4276   19.5649 C   0  0  0  0  0  0  0  0  0  0  0  0
   10.0256    7.2907   20.8484 C   0  0  0  0  0  0  0  0  0  0  0  0
    9.3113    5.3049   14.4911 C   0  0  0  0  0  0  0  0  0  0  0  0
    9.4607    7.5646   16.0139 C   0  0  0  0  0  0  0  0  0  0  0  0
   10.4192    7.3157   15.0955 C   0  0  0  0  0  0  0  0  0  0  0  0
   10.2489    6.4227   23.0218 N   0  0  0  0  0  0  0  0  0  0  0  0
    7.2472    8.0746   23.5050 C   0  0  0  0  0  0  0  0  0  0  0  0
    9.2051    6.9101   23.4604 C   0  0  0  0  0  0  0  0  0  0  0  0
   11.9646    6.0299   21.4251 C   0  0  0  0  0  0  0  0  0  0  0  0
  1  5  1  0
  1 13  1  0
  2 20  2  0
  2 28  1  0
  2 29  1  0
  3 19  4  0
  3 25  4  0
  4 23  4  0
  4 27  1  0
  4 30  4  0
  5 17  1  0
  6  8  1  0
  6 29  1  0
  7 24  4  0
  7 26  4  0
  8 28  1  0
  9 13  2  0
 10 18  1  0
 10 21  4  0
 10 30  4  0
 11 17  2  0
 12 18  1  0
 13 15  1  0
 14 24  1  0
 15 25  1  0
 16 28  2  0
 17 20  1  0
 19 24  4  0
 20 23  1  0
 21 22  4  0
 22 23  4  0
 25 26  4  0
 27 29  2  0
M  END
$$$$

 Created by Python create_sdf_string function

 30 33  0  0  0  0  0  0  0  0999 V2000
    8.3036    9.8571   18.4133 C   0  0  0  0  0  0  0  0  0  0  0  0
    8.3694    7.6612   22.6703 C   0  0  0  0  0  0  0  0  0  0  0  0
    8.4143    6.6863   16.2273 C   0  0  0  0  0  0  0  0  0  0  0  0
   10.7581    6.5674   21.7636 C   0  0  0  0  0  0  0  0  0  0  0  0
    8.4452    8.7960   19.2958 O   0  0  0  0  0  0  0  0  0  0  0  0
    8.7122    6.7842   24.8569 C   0  0  0  0  0  0  0  0  0  0  0  0
   10.3400    6.1726   14.3081 C   0  0  0  0  0  0  0  0  0  0  0  0
    7.4297    7.5873   24.8962 C   0  0  0  0  0  0  0  0  0  0  0  0
    8.1566   10.0536   16.0516 O   0  0  0  0  0  0  0  0  0  0  0  0
   12.4989    6.2074   20.1776 C   0  0  0  0  0  0  0  0  0  0  0  0
    6.9192    9.1053   20.9073 O   0  0  0  0  0  0  0  0  0  0  0  0
   14.3979    6.0729   18.7784 C   0  0  0  0  0  0  0  0  0  0  0  0
    8.6811    9.5354   16.9998 C   0  0  0  0  0  0  0  0  0  0  0  0
    9.2512    4.2713   13.7653 O   0  0  0  0  0  0  0  0  0  0  0  0
    9.6495    8.6317   16.8332 N   0  0  0  0  0  0  0  0  0  0  0  0
    6.2934    8.6988   23.1988 O   0  0  0  0  0  0  0  0  0  0  0  0
    7.9806    8.6543   20.5437 C   0  0  0  0  0  0  0  0  0  0  0  0
   13.7270    5.7144   19.8610 O   0  0  0  0  0  0  0  0  0  0  0  0
    8.3351    5.5235   15.4478 C   0  0  0  0  0  0  0  0  0  0  0  0
    8.7700    7.8434   21.3915 C   0  0  0  0  0  0  0  0  0  0  0  0
   11.7856    6.8851   19.2401 C   0  0  0  0  0  0  0  0  0  0  0  0
   10.5281    7.4276   19.5649 C   0  0  0  0  0  0  0  0  0  0  0  0
   10.0256    7.2907   20.8484 C   0  0  0  0  0  0  0  0  0  0  0  0
    9.3113    5.3049   14.4911 C   0  0  0  0  0  0  0  0  0  0  0  0
    9.4607    7.5646   16.0139 C   0  0  0  0  0  0  0  0  0  0  0  0
   10.4192    7.3157   15.0955 C   0  0  0  0  0  0  0  0  0  0  0  0
   10.2489    6.4227   23.0218 N   0  0  0  0  0  0  0  0  0  0  0  0
    7.2472    8.0746   23.5050 C   0  0  0  0  0  0  0  0  0  0  0  0
    9.2051    6.9101   23.4604 C   0  0  0  0  0  0  0  0  0  0  0  0
   11.9646    6.0299   21.4251 C   0  0  0  0  0  0  0  0  0  0  0  0
  1  5  1  0
  1 13  1  0
  2 20  2  0
  2 28  1  0
  2 29  1  0
  3 19  4  0
  3 25  4  0
  4 23  4  0
  4 27  1  0
  4 30  4  0
  5 17  1  0
  6  8  1  0
  6 29  1  0
  7 24  4  0
  7 26  4  0
  8 28  1  0
  9 13  2  0
 10 18  1  0
 10 21  4  0
 10 30  4  0
 11 17  2  0
 12 18  1  0
 13 15  1  0
 14 24  1  0
 15 25  1  0
 16 28  2  0
 17 20  1  0
 19 24  4  0
 20 23  1  0
 21 22  4  0
 22 23  4  0
 25 26  4  0
 27 29  2  0
M  END
$$$$

 Created by Python create_sdf_string function

 30 33  0  0  0  0  0  0  0  0999 V2000
    8.3036    9.8571   18.4133 C   0  0  0  0  0  0  0  0  0  0  0  0
    8.3694    7.6612   22.6703 C   0  0  0  0  0  0  0  0  0  0  0  0
    8.4143    6.6863   16.2273 C   0  0  0  0  0  0  0  0  0  0  0  0
   10.7581    6.5674   21.7636 C   0  0  0  0  0  0  0  0  0  0  0  0
    8.4452    8.7960   19.2958 O   0  0  0  0  0  0  0  0  0  0  0  0
    8.7122    6.7842   24.8569 C   0  0  0  0  0  0  0  0  0  0  0  0
   10.3400    6.1726   14.3081 C   0  0  0  0  0  0  0  0  0  0  0  0
    7.4297    7.5873   24.8962 C   0  0  0  0  0  0  0  0  0  0  0  0
    8.1566   10.0536   16.0516 O   0  0  0  0  0  0  0  0  0  0  0  0
   12.4989    6.2074   20.1776 C   0  0  0  0  0  0  0  0  0  0  0  0
    6.9192    9.1053   20.9073 O   0  0  0  0  0  0  0  0  0  0  0  0
   14.3979    6.0729   18.7784 C   0  0  0  0  0  0  0  0  0  0  0  0
    8.6811    9.5354   16.9998 C   0  0  0  0  0  0  0  0  0  0  0  0
    9.2512    4.2713   13.7653 O   0  0  0  0  0  0  0  0  0  0  0  0
    9.6495    8.6317   16.8332 N   0  0  0  0  0  0  0  0  0  0  0  0
    6.2934    8.6988   23.1988 O   0  0  0  0  0  0  0  0  0  0  0  0
    7.9806    8.6543   20.5437 C   0  0  0  0  0  0  0  0  0  0  0  0
   13.7270    5.7144   19.8610 O   0  0  0  0  0  0  0  0  0  0  0  0
    8.3351    5.5235   15.4478 C   0  0  0  0  0  0  0  0  0  0  0  0
    8.7700    7.8434   21.3915 C   0  0  0  0  0  0  0  0  0  0  0  0
   11.7856    6.8851   19.2401 C   0  0  0  0  0  0  0  0  0  0  0  0
   10.5281    7.4276   19.5649 C   0  0  0  0  0  0  0  0  0  0  0  0
   10.0256    7.2907   20.8484 C   0  0  0  0  0  0  0  0  0  0  0  0
    9.3113    5.3049   14.4911 C   0  0  0  0  0  0  0  0  0  0  0  0
    9.4607    7.5646   16.0139 C   0  0  0  0  0  0  0  0  0  0  0  0
   10.4192    7.3157   15.0955 C   0  0  0  0  0  0  0  0  0  0  0  0
   10.2489    6.4227   23.0218 N   0  0  0  0  0  0  0  0  0  0  0  0
    7.2472    8.0746   23.5050 C   0  0  0  0  0  0  0  0  0  0  0  0
    9.2051    6.9101   23.4604 C   0  0  0  0  0  0  0  0  0  0  0  0
   11.9646    6.0299   21.4251 C   0  0  0  0  0  0  0  0  0  0  0  0
  1  5  1  0
  1 13  1  0
  2 20  2  0
  2 28  1  0
  2 29  1  0
  3 19  4  0
  3 25  4  0
  4 23  4  0
  4 27  1  0
  4 30  4  0
  5 17  1  0
  6  8  1  0
  6 29  1  0
  7 24  4  0
  7 26  4  0
  8 28  1  0
  9 13  2  0
 10 18  1  0
 10 21  4  0
 10 30  4  0
 11 17  2  0
 12 18  1  0
 13 15  1  0
 14 24  1  0
 15 25  1  0
 16 28  2  0
 17 20  1  0
 19 24  4  0
 20 23  1  0
 21 22  4  0
 22 23  4  0
 25 26  4  0
 27 29  2  0
M  END
$$$$

 Created by Python create_sdf_string function

 30 33  0  0  0  0  0  0  0  0999 V2000
    8.3036    9.8571   18.4133 C   0  0  0  0  0  0  0  0  0  0  0  0
    8.3694    7.6612   22.6703 C   0  0  0  0  0  0  0  0  0  0  0  0
    8.4143    6.6863   16.2273 C   0  0  0  0  0  0  0  0  0  0  0  0
   10.7581    6.5674   21.7636 C   0  0  0  0  0  0  0  0  0  0  0  0
    8.4452    8.7960   19.2958 O   0  0  0  0  0  0  0  0  0  0  0  0
    8.7122    6.7842   24.8569 C   0  0  0  0  0  0  0  0  0  0  0  0
   10.3400    6.1726   14.3081 C   0  0  0  0  0  0  0  0  0  0  0  0
    7.4297    7.5873   24.8962 C   0  0  0  0  0  0  0  0  0  0  0  0
    8.1566   10.0536   16.0516 O   0  0  0  0  0  0  0  0  0  0  0  0
   12.4989    6.2074   20.1776 C   0  0  0  0  0  0  0  0  0  0  0  0
    6.9192    9.1053   20.9073 O   0  0  0  0  0  0  0  0  0  0  0  0
   14.3979    6.0729   18.7784 C   0  0  0  0  0  0  0  0  0  0  0  0
    8.6811    9.5354   16.9998 C   0  0  0  0  0  0  0  0  0  0  0  0
    9.2512    4.2713   13.7653 O   0  0  0  0  0  0  0  0  0  0  0  0
    9.6495    8.6317   16.8332 N   0  0  0  0  0  0  0  0  0  0  0  0
    6.2934    8.6988   23.1988 O   0  0  0  0  0  0  0  0  0  0  0  0
    7.9806    8.6543   20.5437 C   0  0  0  0  0  0  0  0  0  0  0  0
   13.7270    5.7144   19.8610 O   0  0  0  0  0  0  0  0  0  0  0  0
    8.3351    5.5235   15.4478 C   0  0  0  0  0  0  0  0  0  0  0  0
    8.7700    7.8434   21.3915 C   0  0  0  0  0  0  0  0  0  0  0  0
   11.7856    6.8851   19.2401 C   0  0  0  0  0  0  0  0  0  0  0  0
   10.5281    7.4276   19.5649 C   0  0  0  0  0  0  0  0  0  0  0  0
   10.0256    7.2907   20.8484 C   0  0  0  0  0  0  0  0  0  0  0  0
    9.3113    5.3049   14.4911 C   0  0  0  0  0  0  0  0  0  0  0  0
    9.4607    7.5646   16.0139 C   0  0  0  0  0  0  0  0  0  0  0  0
   10.4192    7.3157   15.0955 C   0  0  0  0  0  0  0  0  0  0  0  0
   10.2489    6.4227   23.0218 N   0  0  0  0  0  0  0  0  0  0  0  0
    7.2472    8.0746   23.5050 C   0  0  0  0  0  0  0  0  0  0  0  0
    9.2051    6.9101   23.4604 C   0  0  0  0  0  0  0  0  0  0  0  0
   11.9646    6.0299   21.4251 C   0  0  0  0  0  0  0  0  0  0  0  0
  1  5  1  0
  1 13  1  0
  2 20  2  0
  2 28  1  0
  2 29  1  0
  3 19  4  0
  3 25  4  0
  4 23  4  0
  4 27  1  0
  4 30  4  0
  5 17  1  0
  6  8  1  0
  6 29  1  0
  7 24  4  0
  7 26  4  0
  8 28  1  0
  9 13  2  0
 10 18  1  0
 10 21  4  0
 10 30  4  0
 11 17  2  0
 12 18  1  0
 13 15  1  0
 14 24  1  0
 15 25  1  0
 16 28  2  0
 17 20  1  0
 19 24  4  0
 20 23  1  0
 21 22  4  0
 22 23  4  0
 25 26  4  0
 27 29  2  0
M  END
$$$$

 Created by Python create_sdf_string function

 30 33  0  0  0  0  0  0  0  0999 V2000
    8.3036    9.8571   18.4133 C   0  0  0  0  0  0  0  0  0  0  0  0
    8.3694    7.6612   22.6703 C   0  0  0  0  0  0  0  0  0  0  0  0
    8.4143    6.6863   16.2273 C   0  0  0  0  0  0  0  0  0  0  0  0
   10.7581    6.5674   21.7636 C   0  0  0  0  0  0  0  0  0  0  0  0
    8.4452    8.7960   19.2958 O   0  0  0  0  0  0  0  0  0  0  0  0
    8.7122    6.7842   24.8569 C   0  0  0  0  0  0  0  0  0  0  0  0
   10.3400    6.1726   14.3081 C   0  0  0  0  0  0  0  0  0  0  0  0
    7.4297    7.5873   24.8962 C   0  0  0  0  0  0  0  0  0  0  0  0
    8.1566   10.0536   16.0516 O   0  0  0  0  0  0  0  0  0  0  0  0
   12.4989    6.2074   20.1776 C   0  0  0  0  0  0  0  0  0  0  0  0
    6.9192    9.1053   20.9073 O   0  0  0  0  0  0  0  0  0  0  0  0
   14.3979    6.0729   18.7784 C   0  0  0  0  0  0  0  0  0  0  0  0
    8.6811    9.5354   16.9998 C   0  0  0  0  0  0  0  0  0  0  0  0
    9.2512    4.2713   13.7653 O   0  0  0  0  0  0  0  0  0  0  0  0
    9.6495    8.6317   16.8332 N   0  0  0  0  0  0  0  0  0  0  0  0
    6.2934    8.6988   23.1988 O   0  0  0  0  0  0  0  0  0  0  0  0
    7.9806    8.6543   20.5437 C   0  0  0  0  0  0  0  0  0  0  0  0
   13.7270    5.7144   19.8610 O   0  0  0  0  0  0  0  0  0  0  0  0
    8.3351    5.5235   15.4478 C   0  0  0  0  0  0  0  0  0  0  0  0
    8.7700    7.8434   21.3915 C   0  0  0  0  0  0  0  0  0  0  0  0
   11.7856    6.8851   19.2401 C   0  0  0  0  0  0  0  0  0  0  0  0
   10.5281    7.4276   19.5649 C   0  0  0  0  0  0  0  0  0  0  0  0
   10.0256    7.2907   20.8484 C   0  0  0  0  0  0  0  0  0  0  0  0
    9.3113    5.3049   14.4911 C   0  0  0  0  0  0  0  0  0  0  0  0
    9.4607    7.5646   16.0139 C   0  0  0  0  0  0  0  0  0  0  0  0
   10.4192    7.3157   15.0955 C   0  0  0  0  0  0  0  0  0  0  0  0
   10.2489    6.4227   23.0218 N   0  0  0  0  0  0  0  0  0  0  0  0
    7.2472    8.0746   23.5050 C   0  0  0  0  0  0  0  0  0  0  0  0
    9.2051    6.9101   23.4604 C   0  0  0  0  0  0  0  0  0  0  0  0
   11.9646    6.0299   21.4251 C   0  0  0  0  0  0  0  0  0  0  0  0
  1  5  1  0
  1 13  1  0
  2 20  2  0
  2 28  1  0
  2 29  1  0
  3 19  4  0
  3 25  4  0
  4 23  4  0
  4 27  1  0
  4 30  4  0
  5 17  1  0
  6  8  1  0
  6 29  1  0
  7 24  4  0
  7 26  4  0
  8 28  1  0
  9 13  2  0
 10 18  1  0
 10 21  4  0
 10 30  4  0
 11 17  2  0
 12 18  1  0
 13 15  1  0
 14 24  1  0
 15 25  1  0
 16 28  2  0
 17 20  1  0
 19 24  4  0
 20 23  1  0
 21 22  4  0
 22 23  4  0
 25 26  4  0
 27 29  2  0
M  END
$$$$

 Created by Python create_sdf_string function

 30 33  0  0  0  0  0  0  0  0999 V2000
    8.3036    9.8571   18.4133 C   0  0  0  0  0  0  0  0  0  0  0  0
    8.3694    7.6612   22.6703 C   0  0  0  0  0  0  0  0  0  0  0  0
    8.4143    6.6863   16.2273 C   0  0  0  0  0  0  0  0  0  0  0  0
   10.7581    6.5674   21.7636 C   0  0  0  0  0  0  0  0  0  0  0  0
    8.4452    8.7960   19.2958 O   0  0  0  0  0  0  0  0  0  0  0  0
    8.7122    6.7842   24.8569 C   0  0  0  0  0  0  0  0  0  0  0  0
   10.3400    6.1726   14.3081 C   0  0  0  0  0  0  0  0  0  0  0  0
    7.4297    7.5873   24.8962 C   0  0  0  0  0  0  0  0  0  0  0  0
    8.1566   10.0536   16.0516 O   0  0  0  0  0  0  0  0  0  0  0  0
   12.4989    6.2074   20.1776 C   0  0  0  0  0  0  0  0  0  0  0  0
    6.9192    9.1053   20.9073 O   0  0  0  0  0  0  0  0  0  0  0  0
   14.3979    6.0729   18.7784 C   0  0  0  0  0  0  0  0  0  0  0  0
    8.6811    9.5354   16.9998 C   0  0  0  0  0  0  0  0  0  0  0  0
    9.2512    4.2713   13.7653 O   0  0  0  0  0  0  0  0  0  0  0  0
    9.6495    8.6317   16.8332 N   0  0  0  0  0  0  0  0  0  0  0  0
    6.2934    8.6988   23.1988 O   0  0  0  0  0  0  0  0  0  0  0  0
    7.9806    8.6543   20.5437 C   0  0  0  0  0  0  0  0  0  0  0  0
   13.7270    5.7144   19.8610 O   0  0  0  0  0  0  0  0  0  0  0  0
    8.3351    5.5235   15.4478 C   0  0  0  0  0  0  0  0  0  0  0  0
    8.7700    7.8434   21.3915 C   0  0  0  0  0  0  0  0  0  0  0  0
   11.7856    6.8851   19.2401 C   0  0  0  0  0  0  0  0  0  0  0  0
   10.5281    7.4276   19.5649 C   0  0  0  0  0  0  0  0  0  0  0  0
   10.0256    7.2907   20.8484 C   0  0  0  0  0  0  0  0  0  0  0  0
    9.3113    5.3049   14.4911 C   0  0  0  0  0  0  0  0  0  0  0  0
    9.4607    7.5646   16.0139 C   0  0  0  0  0  0  0  0  0  0  0  0
   10.4192    7.3157   15.0955 C   0  0  0  0  0  0  0  0  0  0  0  0
   10.2489    6.4227   23.0218 N   0  0  0  0  0  0  0  0  0  0  0  0
    7.2472    8.0746   23.5050 C   0  0  0  0  0  0  0  0  0  0  0  0
    9.2051    6.9101   23.4604 C   0  0  0  0  0  0  0  0  0  0  0  0
   11.9646    6.0299   21.4251 C   0  0  0  0  0  0  0  0  0  0  0  0
  1  5  1  0
  1 13  1  0
  2 20  2  0
  2 28  1  0
  2 29  1  0
  3 19  4  0
  3 25  4  0
  4 23  4  0
  4 27  1  0
  4 30  4  0
  5 17  1  0
  6  8  1  0
  6 29  1  0
  7 24  4  0
  7 26  4  0
  8 28  1  0
  9 13  2  0
 10 18  1  0
 10 21  4  0
 10 30  4  0
 11 17  2  0
 12 18  1  0
 13 15  1  0
 14 24  1  0
 15 25  1  0
 16 28  2  0
 17 20  1  0
 19 24  4  0
 20 23  1  0
 21 22  4  0
 22 23  4  0
 25 26  4  0
 27 29  2  0
M  END
$$$$

 Created by Python create_sdf_string function

 30 33  0  0  0  0  0  0  0  0999 V2000
    8.3036    9.8571   18.4133 C   0  0  0  0  0  0  0  0  0  0  0  0
    8.3694    7.6612   22.6703 C   0  0  0  0  0  0  0  0  0  0  0  0
    8.4143    6.6863   16.2273 C   0  0  0  0  0  0  0  0  0  0  0  0
   10.7581    6.5674   21.7636 C   0  0  0  0  0  0  0  0  0  0  0  0
    8.4452    8.7960   19.2958 O   0  0  0  0  0  0  0  0  0  0  0  0
    8.7122    6.7842   24.8569 C   0  0  0  0  0  0  0  0  0  0  0  0
   10.3400    6.1726   14.3081 C   0  0  0  0  0  0  0  0  0  0  0  0
    7.4297    7.5873   24.8962 C   0  0  0  0  0  0  0  0  0  0  0  0
    8.1566   10.0536   16.0516 O   0  0  0  0  0  0  0  0  0  0  0  0
   12.4989    6.2074   20.1776 C   0  0  0  0  0  0  0  0  0  0  0  0
    6.9192    9.1053   20.9073 O   0  0  0  0  0  0  0  0  0  0  0  0
   14.3979    6.0729   18.7784 C   0  0  0  0  0  0  0  0  0  0  0  0
    8.6811    9.5354   16.9998 C   0  0  0  0  0  0  0  0  0  0  0  0
    9.2512    4.2713   13.7653 O   0  0  0  0  0  0  0  0  0  0  0  0
    9.6495    8.6317   16.8332 N   0  0  0  0  0  0  0  0  0  0  0  0
    6.2934    8.6988   23.1988 O   0  0  0  0  0  0  0  0  0  0  0  0
    7.9806    8.6543   20.5437 C   0  0  0  0  0  0  0  0  0  0  0  0
   13.7270    5.7144   19.8610 O   0  0  0  0  0  0  0  0  0  0  0  0
    8.3351    5.5235   15.4478 C   0  0  0  0  0  0  0  0  0  0  0  0
    8.7700    7.8434   21.3915 C   0  0  0  0  0  0  0  0  0  0  0  0
   11.7856    6.8851   19.2401 C   0  0  0  0  0  0  0  0  0  0  0  0
   10.5281    7.4276   19.5649 C   0  0  0  0  0  0  0  0  0  0  0  0
   10.0256    7.2907   20.8484 C   0  0  0  0  0  0  0  0  0  0  0  0
    9.3113    5.3049   14.4911 C   0  0  0  0  0  0  0  0  0  0  0  0
    9.4607    7.5646   16.0139 C   0  0  0  0  0  0  0  0  0  0  0  0
   10.4192    7.3157   15.0955 C   0  0  0  0  0  0  0  0  0  0  0  0
   10.2489    6.4227   23.0218 N   0  0  0  0  0  0  0  0  0  0  0  0
    7.2472    8.0746   23.5050 C   0  0  0  0  0  0  0  0  0  0  0  0
    9.2051    6.9101   23.4604 C   0  0  0  0  0  0  0  0  0  0  0  0
   11.9646    6.0299   21.4251 C   0  0  0  0  0  0  0  0  0  0  0  0
  1  5  1  0
  1 13  1  0
  2 20  2  0
  2 28  1  0
  2 29  1  0
  3 19  4  0
  3 25  4  0
  4 23  4  0
  4 27  1  0
  4 30  4  0
  5 17  1  0
  6  8  1  0
  6 29  1  0
  7 24  4  0
  7 26  4  0
  8 28  1  0
  9 13  2  0
 10 18  1  0
 10 21  4  0
 10 30  4  0
 11 17  2  0
 12 18  1  0
 13 15  1  0
 14 24  1  0
 15 25  1  0
 16 28  2  0
 17 20  1  0
 19 24  4  0
 20 23  1  0
 21 22  4  0
 22 23  4  0
 25 26  4  0
 27 29  2  0
M  END
$$$$

 Created by Python create_sdf_string function

 30 33  0  0  0  0  0  0  0  0999 V2000
    8.3036    9.8571   18.4133 C   0  0  0  0  0  0  0  0  0  0  0  0
    8.3694    7.6612   22.6703 C   0  0  0  0  0  0  0  0  0  0  0  0
    8.4143    6.6863   16.2273 C   0  0  0  0  0  0  0  0  0  0  0  0
   10.7581    6.5674   21.7636 C   0  0  0  0  0  0  0  0  0  0  0  0
    8.4452    8.7960   19.2958 O   0  0  0  0  0  0  0  0  0  0  0  0
    8.7122    6.7842   24.8569 C   0  0  0  0  0  0  0  0  0  0  0  0
   10.3400    6.1726   14.3081 C   0  0  0  0  0  0  0  0  0  0  0  0
    7.4297    7.5873   24.8962 C   0  0  0  0  0  0  0  0  0  0  0  0
    8.1566   10.0536   16.0516 O   0  0  0  0  0  0  0  0  0  0  0  0
   12.4989    6.2074   20.1776 C   0  0  0  0  0  0  0  0  0  0  0  0
    6.9192    9.1053   20.9073 O   0  0  0  0  0  0  0  0  0  0  0  0
   14.3979    6.0729   18.7784 C   0  0  0  0  0  0  0  0  0  0  0  0
    8.6811    9.5354   16.9998 C   0  0  0  0  0  0  0  0  0  0  0  0
    9.2512    4.2713   13.7653 O   0  0  0  0  0  0  0  0  0  0  0  0
    9.6495    8.6317   16.8332 N   0  0  0  0  0  0  0  0  0  0  0  0
    6.2934    8.6988   23.1988 O   0  0  0  0  0  0  0  0  0  0  0  0
    7.9806    8.6543   20.5437 C   0  0  0  0  0  0  0  0  0  0  0  0
   13.7270    5.7144   19.8610 O   0  0  0  0  0  0  0  0  0  0  0  0
    8.3351    5.5235   15.4478 C   0  0  0  0  0  0  0  0  0  0  0  0
    8.7700    7.8434   21.3915 C   0  0  0  0  0  0  0  0  0  0  0  0
   11.7856    6.8851   19.2401 C   0  0  0  0  0  0  0  0  0  0  0  0
   10.5281    7.4276   19.5649 C   0  0  0  0  0  0  0  0  0  0  0  0
   10.0256    7.2907   20.8484 C   0  0  0  0  0  0  0  0  0  0  0  0
    9.3113    5.3049   14.4911 C   0  0  0  0  0  0  0  0  0  0  0  0
    9.4607    7.5646   16.0139 C   0  0  0  0  0  0  0  0  0  0  0  0
   10.4192    7.3157   15.0955 C   0  0  0  0  0  0  0  0  0  0  0  0
   10.2489    6.4227   23.0218 N   0  0  0  0  0  0  0  0  0  0  0  0
    7.2472    8.0746   23.5050 C   0  0  0  0  0  0  0  0  0  0  0  0
    9.2051    6.9101   23.4604 C   0  0  0  0  0  0  0  0  0  0  0  0
   11.9646    6.0299   21.4251 C   0  0  0  0  0  0  0  0  0  0  0  0
  1  5  1  0
  1 13  1  0
  2 20  2  0
  2 28  1  0
  2 29  1  0
  3 19  4  0
  3 25  4  0
  4 23  4  0
  4 27  1  0
  4 30  4  0
  5 17  1  0
  6  8  1  0
  6 29  1  0
  7 24  4  0
  7 26  4  0
  8 28  1  0
  9 13  2  0
 10 18  1  0
 10 21  4  0
 10 30  4  0
 11 17  2  0
 12 18  1  0
 13 15  1  0
 14 24  1  0
 15 25  1  0
 16 28  2  0
 17 20  1  0
 19 24  4  0
 20 23  1  0
 21 22  4  0
 22 23  4  0
 25 26  4  0
 27 29  2  0
M  END
$$$$

 Created by Python create_sdf_string function

 30 33  0  0  0  0  0  0  0  0999 V2000
    8.3036    9.8571   18.4133 C   0  0  0  0  0  0  0  0  0  0  0  0
    8.3694    7.6612   22.6703 C   0  0  0  0  0  0  0  0  0  0  0  0
    8.4143    6.6863   16.2273 C   0  0  0  0  0  0  0  0  0  0  0  0
   10.7581    6.5674   21.7636 C   0  0  0  0  0  0  0  0  0  0  0  0
    8.4452    8.7960   19.2958 O   0  0  0  0  0  0  0  0  0  0  0  0
    8.7122    6.7842   24.8569 C   0  0  0  0  0  0  0  0  0  0  0  0
   10.3400    6.1726   14.3081 C   0  0  0  0  0  0  0  0  0  0  0  0
    7.4297    7.5873   24.8962 C   0  0  0  0  0  0  0  0  0  0  0  0
    8.1566   10.0536   16.0516 O   0  0  0  0  0  0  0  0  0  0  0  0
   12.4989    6.2074   20.1776 C   0  0  0  0  0  0  0  0  0  0  0  0
    6.9192    9.1053   20.9073 O   0  0  0  0  0  0  0  0  0  0  0  0
   14.3979    6.0729   18.7784 C   0  0  0  0  0  0  0  0  0  0  0  0
    8.6811    9.5354   16.9998 C   0  0  0  0  0  0  0  0  0  0  0  0
    9.2512    4.2713   13.7653 O   0  0  0  0  0  0  0  0  0  0  0  0
    9.6495    8.6317   16.8332 N   0  0  0  0  0  0  0  0  0  0  0  0
    6.2934    8.6988   23.1988 O   0  0  0  0  0  0  0  0  0  0  0  0
    7.9806    8.6543   20.5437 C   0  0  0  0  0  0  0  0  0  0  0  0
   13.7270    5.7144   19.8610 O   0  0  0  0  0  0  0  0  0  0  0  0
    8.3351    5.5235   15.4478 C   0  0  0  0  0  0  0  0  0  0  0  0
    8.7700    7.8434   21.3915 C   0  0  0  0  0  0  0  0  0  0  0  0
   11.7856    6.8851   19.2401 C   0  0  0  0  0  0  0  0  0  0  0  0
   10.5281    7.4276   19.5649 C   0  0  0  0  0  0  0  0  0  0  0  0
   10.0256    7.2907   20.8484 C   0  0  0  0  0  0  0  0  0  0  0  0
    9.3113    5.3049   14.4911 C   0  0  0  0  0  0  0  0  0  0  0  0
    9.4607    7.5646   16.0139 C   0  0  0  0  0  0  0  0  0  0  0  0
   10.4192    7.3157   15.0955 C   0  0  0  0  0  0  0  0  0  0  0  0
   10.2489    6.4227   23.0218 N   0  0  0  0  0  0  0  0  0  0  0  0
    7.2472    8.0746   23.5050 C   0  0  0  0  0  0  0  0  0  0  0  0
    9.2051    6.9101   23.4604 C   0  0  0  0  0  0  0  0  0  0  0  0
   11.9646    6.0299   21.4251 C   0  0  0  0  0  0  0  0  0  0  0  0
  1  5  1  0
  1 13  1  0
  2 20  2  0
  2 28  1  0
  2 29  1  0
  3 19  4  0
  3 25  4  0
  4 23  4  0
  4 27  1  0
  4 30  4  0
  5 17  1  0
  6  8  1  0
  6 29  1  0
  7 24  4  0
  7 26  4  0
  8 28  1  0
  9 13  2  0
 10 18  1  0
 10 21  4  0
 10 30  4  0
 11 17  2  0
 12 18  1  0
 13 15  1  0
 14 24  1  0
 15 25  1  0
 16 28  2  0
 17 20  1  0
 19 24  4  0
 20 23  1  0
 21 22  4  0
 22 23  4  0
 25 26  4  0
 27 29  2  0
M  END
$$$$

 Created by Python create_sdf_string function

 30 33  0  0  0  0  0  0  0  0999 V2000
    8.3036    9.8571   18.4133 C   0  0  0  0  0  0  0  0  0  0  0  0
    8.3694    7.6612   22.6703 C   0  0  0  0  0  0  0  0  0  0  0  0
    8.4143    6.6863   16.2273 C   0  0  0  0  0  0  0  0  0  0  0  0
   10.7581    6.5674   21.7636 C   0  0  0  0  0  0  0  0  0  0  0  0
    8.4452    8.7960   19.2958 O   0  0  0  0  0  0  0  0  0  0  0  0
    8.7122    6.7842   24.8569 C   0  0  0  0  0  0  0  0  0  0  0  0
   10.3400    6.1726   14.3081 C   0  0  0  0  0  0  0  0  0  0  0  0
    7.4297    7.5873   24.8962 C   0  0  0  0  0  0  0  0  0  0  0  0
    8.1566   10.0536   16.0516 O   0  0  0  0  0  0  0  0  0  0  0  0
   12.4989    6.2074   20.1776 C   0  0  0  0  0  0  0  0  0  0  0  0
    6.9192    9.1053   20.9073 O   0  0  0  0  0  0  0  0  0  0  0  0
   14.3979    6.0729   18.7784 C   0  0  0  0  0  0  0  0  0  0  0  0
    8.6811    9.5354   16.9998 C   0  0  0  0  0  0  0  0  0  0  0  0
    9.2512    4.2713   13.7653 O   0  0  0  0  0  0  0  0  0  0  0  0
    9.6495    8.6317   16.8332 N   0  0  0  0  0  0  0  0  0  0  0  0
    6.2934    8.6988   23.1988 O   0  0  0  0  0  0  0  0  0  0  0  0
    7.9806    8.6543   20.5437 C   0  0  0  0  0  0  0  0  0  0  0  0
   13.7270    5.7144   19.8610 O   0  0  0  0  0  0  0  0  0  0  0  0
    8.3351    5.5235   15.4478 C   0  0  0  0  0  0  0  0  0  0  0  0
    8.7700    7.8434   21.3915 C   0  0  0  0  0  0  0  0  0  0  0  0
   11.7856    6.8851   19.2401 C   0  0  0  0  0  0  0  0  0  0  0  0
   10.5281    7.4276   19.5649 C   0  0  0  0  0  0  0  0  0  0  0  0
   10.0256    7.2907   20.8484 C   0  0  0  0  0  0  0  0  0  0  0  0
    9.3113    5.3049   14.4911 C   0  0  0  0  0  0  0  0  0  0  0  0
    9.4607    7.5646   16.0139 C   0  0  0  0  0  0  0  0  0  0  0  0
   10.4192    7.3157   15.0955 C   0  0  0  0  0  0  0  0  0  0  0  0
   10.2489    6.4227   23.0218 N   0  0  0  0  0  0  0  0  0  0  0  0
    7.2472    8.0746   23.5050 C   0  0  0  0  0  0  0  0  0  0  0  0
    9.2051    6.9101   23.4604 C   0  0  0  0  0  0  0  0  0  0  0  0
   11.9646    6.0299   21.4251 C   0  0  0  0  0  0  0  0  0  0  0  0
  1  5  1  0
  1 13  1  0
  2 20  2  0
  2 28  1  0
  2 29  1  0
  3 19  4  0
  3 25  4  0
  4 23  4  0
  4 27  1  0
  4 30  4  0
  5 17  1  0
  6  8  1  0
  6 29  1  0
  7 24  4  0
  7 26  4  0
  8 28  1  0
  9 13  2  0
 10 18  1  0
 10 21  4  0
 10 30  4  0
 11 17  2  0
 12 18  1  0
 13 15  1  0
 14 24  1  0
 15 25  1  0
 16 28  2  0
 17 20  1  0
 19 24  4  0
 20 23  1  0
 21 22  4  0
 22 23  4  0
 25 26  4  0
 27 29  2  0
M  END
$$$$

 Created by Python create_sdf_string function

 30 33  0  0  0  0  0  0  0  0999 V2000
    8.3036    9.8571   18.4133 C   0  0  0  0  0  0  0  0  0  0  0  0
    8.3694    7.6612   22.6703 C   0  0  0  0  0  0  0  0  0  0  0  0
    8.4143    6.6863   16.2273 C   0  0  0  0  0  0  0  0  0  0  0  0
   10.7581    6.5674   21.7636 C   0  0  0  0  0  0  0  0  0  0  0  0
    8.4452    8.7960   19.2958 O   0  0  0  0  0  0  0  0  0  0  0  0
    8.7122    6.7842   24.8569 C   0  0  0  0  0  0  0  0  0  0  0  0
   10.3400    6.1726   14.3081 C   0  0  0  0  0  0  0  0  0  0  0  0
    7.4297    7.5873   24.8962 C   0  0  0  0  0  0  0  0  0  0  0  0
    8.1566   10.0536   16.0516 O   0  0  0  0  0  0  0  0  0  0  0  0
   12.4989    6.2074   20.1776 C   0  0  0  0  0  0  0  0  0  0  0  0
    6.9192    9.1053   20.9073 O   0  0  0  0  0  0  0  0  0  0  0  0
   14.3979    6.0729   18.7784 C   0  0  0  0  0  0  0  0  0  0  0  0
    8.6811    9.5354   16.9998 C   0  0  0  0  0  0  0  0  0  0  0  0
    9.2512    4.2713   13.7653 O   0  0  0  0  0  0  0  0  0  0  0  0
    9.6495    8.6317   16.8332 N   0  0  0  0  0  0  0  0  0  0  0  0
    6.2934    8.6988   23.1988 O   0  0  0  0  0  0  0  0  0  0  0  0
    7.9806    8.6543   20.5437 C   0  0  0  0  0  0  0  0  0  0  0  0
   13.7270    5.7144   19.8610 O   0  0  0  0  0  0  0  0  0  0  0  0
    8.3351    5.5235   15.4478 C   0  0  0  0  0  0  0  0  0  0  0  0
    8.7700    7.8434   21.3915 C   0  0  0  0  0  0  0  0  0  0  0  0
   11.7856    6.8851   19.2401 C   0  0  0  0  0  0  0  0  0  0  0  0
   10.5281    7.4276   19.5649 C   0  0  0  0  0  0  0  0  0  0  0  0
   10.0256    7.2907   20.8484 C   0  0  0  0  0  0  0  0  0  0  0  0
    9.3113    5.3049   14.4911 C   0  0  0  0  0  0  0  0  0  0  0  0
    9.4607    7.5646   16.0139 C   0  0  0  0  0  0  0  0  0  0  0  0
   10.4192    7.3157   15.0955 C   0  0  0  0  0  0  0  0  0  0  0  0
   10.2489    6.4227   23.0218 N   0  0  0  0  0  0  0  0  0  0  0  0
    7.2472    8.0746   23.5050 C   0  0  0  0  0  0  0  0  0  0  0  0
    9.2051    6.9101   23.4604 C   0  0  0  0  0  0  0  0  0  0  0  0
   11.9646    6.0299   21.4251 C   0  0  0  0  0  0  0  0  0  0  0  0
  1  5  1  0
  1 13  1  0
  2 20  2  0
  2 28  1  0
  2 29  1  0
  3 19  4  0
  3 25  4  0
  4 23  4  0
  4 27  1  0
  4 30  4  0
  5 17  1  0
  6  8  1  0
  6 29  1  0
  7 24  4  0
  7 26  4  0
  8 28  1  0
  9 13  2  0
 10 18  1  0
 10 21  4  0
 10 30  4  0
 11 17  2  0
 12 18  1  0
 13 15  1  0
 14 24  1  0
 15 25  1  0
 16 28  2  0
 17 20  1  0
 19 24  4  0
 20 23  1  0
 21 22  4  0
 22 23  4  0
 25 26  4  0
 27 29  2  0
M  END
$$$$

 Created by Python create_sdf_string function

 30 33  0  0  0  0  0  0  0  0999 V2000
    8.3036    9.8571   18.4133 C   0  0  0  0  0  0  0  0  0  0  0  0
    8.3694    7.6612   22.6703 C   0  0  0  0  0  0  0  0  0  0  0  0
    8.4143    6.6863   16.2273 C   0  0  0  0  0  0  0  0  0  0  0  0
   10.7581    6.5674   21.7636 C   0  0  0  0  0  0  0  0  0  0  0  0
    8.4452    8.7960   19.2958 O   0  0  0  0  0  0  0  0  0  0  0  0
    8.7122    6.7842   24.8569 C   0  0  0  0  0  0  0  0  0  0  0  0
   10.3400    6.1726   14.3081 C   0  0  0  0  0  0  0  0  0  0  0  0
    7.4297    7.5873   24.8962 C   0  0  0  0  0  0  0  0  0  0  0  0
    8.1566   10.0536   16.0516 O   0  0  0  0  0  0  0  0  0  0  0  0
   12.4989    6.2074   20.1776 C   0  0  0  0  0  0  0  0  0  0  0  0
    6.9192    9.1053   20.9073 O   0  0  0  0  0  0  0  0  0  0  0  0
   14.3979    6.0729   18.7784 C   0  0  0  0  0  0  0  0  0  0  0  0
    8.6811    9.5354   16.9998 C   0  0  0  0  0  0  0  0  0  0  0  0
    9.2512    4.2713   13.7653 O   0  0  0  0  0  0  0  0  0  0  0  0
    9.6495    8.6317   16.8332 N   0  0  0  0  0  0  0  0  0  0  0  0
    6.2934    8.6988   23.1988 O   0  0  0  0  0  0  0  0  0  0  0  0
    7.9806    8.6543   20.5437 C   0  0  0  0  0  0  0  0  0  0  0  0
   13.7270    5.7144   19.8610 O   0  0  0  0  0  0  0  0  0  0  0  0
    8.3351    5.5235   15.4478 C   0  0  0  0  0  0  0  0  0  0  0  0
    8.7700    7.8434   21.3915 C   0  0  0  0  0  0  0  0  0  0  0  0
   11.7856    6.8851   19.2401 C   0  0  0  0  0  0  0  0  0  0  0  0
   10.5281    7.4276   19.5649 C   0  0  0  0  0  0  0  0  0  0  0  0
   10.0256    7.2907   20.8484 C   0  0  0  0  0  0  0  0  0  0  0  0
    9.3113    5.3049   14.4911 C   0  0  0  0  0  0  0  0  0  0  0  0
    9.4607    7.5646   16.0139 C   0  0  0  0  0  0  0  0  0  0  0  0
   10.4192    7.3157   15.0955 C   0  0  0  0  0  0  0  0  0  0  0  0
   10.2489    6.4227   23.0218 N   0  0  0  0  0  0  0  0  0  0  0  0
    7.2472    8.0746   23.5050 C   0  0  0  0  0  0  0  0  0  0  0  0
    9.2051    6.9101   23.4604 C   0  0  0  0  0  0  0  0  0  0  0  0
   11.9646    6.0299   21.4251 C   0  0  0  0  0  0  0  0  0  0  0  0
  1  5  1  0
  1 13  1  0
  2 20  2  0
  2 28  1  0
  2 29  1  0
  3 19  4  0
  3 25  4  0
  4 23  4  0
  4 27  1  0
  4 30  4  0
  5 17  1  0
  6  8  1  0
  6 29  1  0
  7 24  4  0
  7 26  4  0
  8 28  1  0
  9 13  2  0
 10 18  1  0
 10 21  4  0
 10 30  4  0
 11 17  2  0
 12 18  1  0
 13 15  1  0
 14 24  1  0
 15 25  1  0
 16 28  2  0
 17 20  1  0
 19 24  4  0
 20 23  1  0
 21 22  4  0
 22 23  4  0
 25 26  4  0
 27 29  2  0
M  END
$$$$

 Created by Python create_sdf_string function

 30 33  0  0  0  0  0  0  0  0999 V2000
    8.3036    9.8571   18.4133 C   0  0  0  0  0  0  0  0  0  0  0  0
    8.3694    7.6612   22.6703 C   0  0  0  0  0  0  0  0  0  0  0  0
    8.4143    6.6863   16.2273 C   0  0  0  0  0  0  0  0  0  0  0  0
   10.7581    6.5674   21.7636 C   0  0  0  0  0  0  0  0  0  0  0  0
    8.4452    8.7960   19.2958 O   0  0  0  0  0  0  0  0  0  0  0  0
    8.7122    6.7842   24.8569 C   0  0  0  0  0  0  0  0  0  0  0  0
   10.3400    6.1726   14.3081 C   0  0  0  0  0  0  0  0  0  0  0  0
    7.4297    7.5873   24.8962 C   0  0  0  0  0  0  0  0  0  0  0  0
    8.1566   10.0536   16.0516 O   0  0  0  0  0  0  0  0  0  0  0  0
   12.4989    6.2074   20.1776 C   0  0  0  0  0  0  0  0  0  0  0  0
    6.9192    9.1053   20.9073 O   0  0  0  0  0  0  0  0  0  0  0  0
   14.3979    6.0729   18.7784 C   0  0  0  0  0  0  0  0  0  0  0  0
    8.6811    9.5354   16.9998 C   0  0  0  0  0  0  0  0  0  0  0  0
    9.2512    4.2713   13.7653 O   0  0  0  0  0  0  0  0  0  0  0  0
    9.6495    8.6317   16.8332 N   0  0  0  0  0  0  0  0  0  0  0  0
    6.2934    8.6988   23.1988 O   0  0  0  0  0  0  0  0  0  0  0  0
    7.9806    8.6543   20.5437 C   0  0  0  0  0  0  0  0  0  0  0  0
   13.7270    5.7144   19.8610 O   0  0  0  0  0  0  0  0  0  0  0  0
    8.3351    5.5235   15.4478 C   0  0  0  0  0  0  0  0  0  0  0  0
    8.7700    7.8434   21.3915 C   0  0  0  0  0  0  0  0  0  0  0  0
   11.7856    6.8851   19.2401 C   0  0  0  0  0  0  0  0  0  0  0  0
   10.5281    7.4276   19.5649 C   0  0  0  0  0  0  0  0  0  0  0  0
   10.0256    7.2907   20.8484 C   0  0  0  0  0  0  0  0  0  0  0  0
    9.3113    5.3049   14.4911 C   0  0  0  0  0  0  0  0  0  0  0  0
    9.4607    7.5646   16.0139 C   0  0  0  0  0  0  0  0  0  0  0  0
   10.4192    7.3157   15.0955 C   0  0  0  0  0  0  0  0  0  0  0  0
   10.2489    6.4227   23.0218 N   0  0  0  0  0  0  0  0  0  0  0  0
    7.2472    8.0746   23.5050 C   0  0  0  0  0  0  0  0  0  0  0  0
    9.2051    6.9101   23.4604 C   0  0  0  0  0  0  0  0  0  0  0  0
   11.9646    6.0299   21.4251 C   0  0  0  0  0  0  0  0  0  0  0  0
  1  5  1  0
  1 13  1  0
  2 20  2  0
  2 28  1  0
  2 29  1  0
  3 19  4  0
  3 25  4  0
  4 23  4  0
  4 27  1  0
  4 30  4  0
  5 17  1  0
  6  8  1  0
  6 29  1  0
  7 24  4  0
  7 26  4  0
  8 28  1  0
  9 13  2  0
 10 18  1  0
 10 21  4  0
 10 30  4  0
 11 17  2  0
 12 18  1  0
 13 15  1  0
 14 24  1  0
 15 25  1  0
 16 28  2  0
 17 20  1  0
 19 24  4  0
 20 23  1  0
 21 22  4  0
 22 23  4  0
 25 26  4  0
 27 29  2  0
M  END
$$$$

 Created by Python create_sdf_string function

 30 33  0  0  0  0  0  0  0  0999 V2000
    8.3036    9.8571   18.4133 C   0  0  0  0  0  0  0  0  0  0  0  0
    8.3694    7.6612   22.6703 C   0  0  0  0  0  0  0  0  0  0  0  0
    8.4143    6.6863   16.2273 C   0  0  0  0  0  0  0  0  0  0  0  0
   10.7581    6.5674   21.7636 C   0  0  0  0  0  0  0  0  0  0  0  0
    8.4452    8.7960   19.2958 O   0  0  0  0  0  0  0  0  0  0  0  0
    8.7122    6.7842   24.8569 C   0  0  0  0  0  0  0  0  0  0  0  0
   10.3400    6.1726   14.3081 C   0  0  0  0  0  0  0  0  0  0  0  0
    7.4297    7.5873   24.8962 C   0  0  0  0  0  0  0  0  0  0  0  0
    8.1566   10.0536   16.0516 O   0  0  0  0  0  0  0  0  0  0  0  0
   12.4989    6.2074   20.1776 C   0  0  0  0  0  0  0  0  0  0  0  0
    6.9192    9.1053   20.9073 O   0  0  0  0  0  0  0  0  0  0  0  0
   14.3979    6.0729   18.7784 C   0  0  0  0  0  0  0  0  0  0  0  0
    8.6811    9.5354   16.9998 C   0  0  0  0  0  0  0  0  0  0  0  0
    9.2512    4.2713   13.7653 O   0  0  0  0  0  0  0  0  0  0  0  0
    9.6495    8.6317   16.8332 N   0  0  0  0  0  0  0  0  0  0  0  0
    6.2934    8.6988   23.1988 O   0  0  0  0  0  0  0  0  0  0  0  0
    7.9806    8.6543   20.5437 C   0  0  0  0  0  0  0  0  0  0  0  0
   13.7270    5.7144   19.8610 O   0  0  0  0  0  0  0  0  0  0  0  0
    8.3351    5.5235   15.4478 C   0  0  0  0  0  0  0  0  0  0  0  0
    8.7700    7.8434   21.3915 C   0  0  0  0  0  0  0  0  0  0  0  0
   11.7856    6.8851   19.2401 C   0  0  0  0  0  0  0  0  0  0  0  0
   10.5281    7.4276   19.5649 C   0  0  0  0  0  0  0  0  0  0  0  0
   10.0256    7.2907   20.8484 C   0  0  0  0  0  0  0  0  0  0  0  0
    9.3113    5.3049   14.4911 C   0  0  0  0  0  0  0  0  0  0  0  0
    9.4607    7.5646   16.0139 C   0  0  0  0  0  0  0  0  0  0  0  0
   10.4192    7.3157   15.0955 C   0  0  0  0  0  0  0  0  0  0  0  0
   10.2489    6.4227   23.0218 N   0  0  0  0  0  0  0  0  0  0  0  0
    7.2472    8.0746   23.5050 C   0  0  0  0  0  0  0  0  0  0  0  0
    9.2051    6.9101   23.4604 C   0  0  0  0  0  0  0  0  0  0  0  0
   11.9646    6.0299   21.4251 C   0  0  0  0  0  0  0  0  0  0  0  0
  1  5  1  0
  1 13  1  0
  2 20  2  0
  2 28  1  0
  2 29  1  0
  3 19  4  0
  3 25  4  0
  4 23  4  0
  4 27  1  0
  4 30  4  0
  5 17  1  0
  6  8  1  0
  6 29  1  0
  7 24  4  0
  7 26  4  0
  8 28  1  0
  9 13  2  0
 10 18  1  0
 10 21  4  0
 10 30  4  0
 11 17  2  0
 12 18  1  0
 13 15  1  0
 14 24  1  0
 15 25  1  0
 16 28  2  0
 17 20  1  0
 19 24  4  0
 20 23  1  0
 21 22  4  0
 22 23  4  0
 25 26  4  0
 27 29  2  0
M  END
$$$$

 Created by Python create_sdf_string function

 30 33  0  0  0  0  0  0  0  0999 V2000
    8.3036    9.8571   18.4133 C   0  0  0  0  0  0  0  0  0  0  0  0
    8.3694    7.6612   22.6703 C   0  0  0  0  0  0  0  0  0  0  0  0
    8.4143    6.6863   16.2273 C   0  0  0  0  0  0  0  0  0  0  0  0
   10.7581    6.5674   21.7636 C   0  0  0  0  0  0  0  0  0  0  0  0
    8.4452    8.7960   19.2958 O   0  0  0  0  0  0  0  0  0  0  0  0
    8.7122    6.7842   24.8569 C   0  0  0  0  0  0  0  0  0  0  0  0
   10.3400    6.1726   14.3081 C   0  0  0  0  0  0  0  0  0  0  0  0
    7.4297    7.5873   24.8962 C   0  0  0  0  0  0  0  0  0  0  0  0
    8.1566   10.0536   16.0516 O   0  0  0  0  0  0  0  0  0  0  0  0
   12.4989    6.2074   20.1776 C   0  0  0  0  0  0  0  0  0  0  0  0
    6.9192    9.1053   20.9073 O   0  0  0  0  0  0  0  0  0  0  0  0
   14.3979    6.0729   18.7784 C   0  0  0  0  0  0  0  0  0  0  0  0
    8.6811    9.5354   16.9998 C   0  0  0  0  0  0  0  0  0  0  0  0
    9.2512    4.2713   13.7653 O   0  0  0  0  0  0  0  0  0  0  0  0
    9.6495    8.6317   16.8332 N   0  0  0  0  0  0  0  0  0  0  0  0
    6.2934    8.6988   23.1988 O   0  0  0  0  0  0  0  0  0  0  0  0
    7.9806    8.6543   20.5437 C   0  0  0  0  0  0  0  0  0  0  0  0
   13.7270    5.7144   19.8610 O   0  0  0  0  0  0  0  0  0  0  0  0
    8.3351    5.5235   15.4478 C   0  0  0  0  0  0  0  0  0  0  0  0
    8.7700    7.8434   21.3915 C   0  0  0  0  0  0  0  0  0  0  0  0
   11.7856    6.8851   19.2401 C   0  0  0  0  0  0  0  0  0  0  0  0
   10.5281    7.4276   19.5649 C   0  0  0  0  0  0  0  0  0  0  0  0
   10.0256    7.2907   20.8484 C   0  0  0  0  0  0  0  0  0  0  0  0
    9.3113    5.3049   14.4911 C   0  0  0  0  0  0  0  0  0  0  0  0
    9.4607    7.5646   16.0139 C   0  0  0  0  0  0  0  0  0  0  0  0
   10.4192    7.3157   15.0955 C   0  0  0  0  0  0  0  0  0  0  0  0
   10.2489    6.4227   23.0218 N   0  0  0  0  0  0  0  0  0  0  0  0
    7.2472    8.0746   23.5050 C   0  0  0  0  0  0  0  0  0  0  0  0
    9.2051    6.9101   23.4604 C   0  0  0  0  0  0  0  0  0  0  0  0
   11.9646    6.0299   21.4251 C   0  0  0  0  0  0  0  0  0  0  0  0
  1  5  1  0
  1 13  1  0
  2 20  2  0
  2 28  1  0
  2 29  1  0
  3 19  4  0
  3 25  4  0
  4 23  4  0
  4 27  1  0
  4 30  4  0
  5 17  1  0
  6  8  1  0
  6 29  1  0
  7 24  4  0
  7 26  4  0
  8 28  1  0
  9 13  2  0
 10 18  1  0
 10 21  4  0
 10 30  4  0
 11 17  2  0
 12 18  1  0
 13 15  1  0
 14 24  1  0
 15 25  1  0
 16 28  2  0
 17 20  1  0
 19 24  4  0
 20 23  1  0
 21 22  4  0
 22 23  4  0
 25 26  4  0
 27 29  2  0
M  END
$$$$

 Created by Python create_sdf_string function

 30 33  0  0  0  0  0  0  0  0999 V2000
    8.3036    9.8571   18.4133 C   0  0  0  0  0  0  0  0  0  0  0  0
    8.3694    7.6612   22.6703 C   0  0  0  0  0  0  0  0  0  0  0  0
    8.4143    6.6863   16.2273 C   0  0  0  0  0  0  0  0  0  0  0  0
   10.7581    6.5674   21.7636 C   0  0  0  0  0  0  0  0  0  0  0  0
    8.4452    8.7960   19.2958 O   0  0  0  0  0  0  0  0  0  0  0  0
    8.7122    6.7842   24.8569 C   0  0  0  0  0  0  0  0  0  0  0  0
   10.3400    6.1726   14.3081 C   0  0  0  0  0  0  0  0  0  0  0  0
    7.4297    7.5873   24.8962 C   0  0  0  0  0  0  0  0  0  0  0  0
    8.1566   10.0536   16.0516 O   0  0  0  0  0  0  0  0  0  0  0  0
   12.4989    6.2074   20.1776 C   0  0  0  0  0  0  0  0  0  0  0  0
    6.9192    9.1053   20.9073 O   0  0  0  0  0  0  0  0  0  0  0  0
   14.3979    6.0729   18.7784 C   0  0  0  0  0  0  0  0  0  0  0  0
    8.6811    9.5354   16.9998 C   0  0  0  0  0  0  0  0  0  0  0  0
    9.2512    4.2713   13.7653 O   0  0  0  0  0  0  0  0  0  0  0  0
    9.6495    8.6317   16.8332 N   0  0  0  0  0  0  0  0  0  0  0  0
    6.2934    8.6988   23.1988 O   0  0  0  0  0  0  0  0  0  0  0  0
    7.9806    8.6543   20.5437 C   0  0  0  0  0  0  0  0  0  0  0  0
   13.7270    5.7144   19.8610 O   0  0  0  0  0  0  0  0  0  0  0  0
    8.3351    5.5235   15.4478 C   0  0  0  0  0  0  0  0  0  0  0  0
    8.7700    7.8434   21.3915 C   0  0  0  0  0  0  0  0  0  0  0  0
   11.7856    6.8851   19.2401 C   0  0  0  0  0  0  0  0  0  0  0  0
   10.5281    7.4276   19.5649 C   0  0  0  0  0  0  0  0  0  0  0  0
   10.0256    7.2907   20.8484 C   0  0  0  0  0  0  0  0  0  0  0  0
    9.3113    5.3049   14.4911 C   0  0  0  0  0  0  0  0  0  0  0  0
    9.4607    7.5646   16.0139 C   0  0  0  0  0  0  0  0  0  0  0  0
   10.4192    7.3157   15.0955 C   0  0  0  0  0  0  0  0  0  0  0  0
   10.2489    6.4227   23.0218 N   0  0  0  0  0  0  0  0  0  0  0  0
    7.2472    8.0746   23.5050 C   0  0  0  0  0  0  0  0  0  0  0  0
    9.2051    6.9101   23.4604 C   0  0  0  0  0  0  0  0  0  0  0  0
   11.9646    6.0299   21.4251 C   0  0  0  0  0  0  0  0  0  0  0  0
  1  5  1  0
  1 13  1  0
  2 20  2  0
  2 28  1  0
  2 29  1  0
  3 19  4  0
  3 25  4  0
  4 23  4  0
  4 27  1  0
  4 30  4  0
  5 17  1  0
  6  8  1  0
  6 29  1  0
  7 24  4  0
  7 26  4  0
  8 28  1  0
  9 13  2  0
 10 18  1  0
 10 21  4  0
 10 30  4  0
 11 17  2  0
 12 18  1  0
 13 15  1  0
 14 24  1  0
 15 25  1  0
 16 28  2  0
 17 20  1  0
 19 24  4  0
 20 23  1  0
 21 22  4  0
 22 23  4  0
 25 26  4  0
 27 29  2  0
M  END
$$$$

 Created by Python create_sdf_string function

 30 33  0  0  0  0  0  0  0  0999 V2000
    8.3036    9.8571   18.4133 C   0  0  0  0  0  0  0  0  0  0  0  0
    8.3694    7.6612   22.6703 C   0  0  0  0  0  0  0  0  0  0  0  0
    8.4143    6.6863   16.2273 C   0  0  0  0  0  0  0  0  0  0  0  0
   10.7581    6.5674   21.7636 C   0  0  0  0  0  0  0  0  0  0  0  0
    8.4452    8.7960   19.2958 O   0  0  0  0  0  0  0  0  0  0  0  0
    8.7122    6.7842   24.8569 C   0  0  0  0  0  0  0  0  0  0  0  0
   10.3400    6.1726   14.3081 C   0  0  0  0  0  0  0  0  0  0  0  0
    7.4297    7.5873   24.8962 C   0  0  0  0  0  0  0  0  0  0  0  0
    8.1566   10.0536   16.0516 O   0  0  0  0  0  0  0  0  0  0  0  0
   12.4989    6.2074   20.1776 C   0  0  0  0  0  0  0  0  0  0  0  0
    6.9192    9.1053   20.9073 O   0  0  0  0  0  0  0  0  0  0  0  0
   14.3979    6.0729   18.7784 C   0  0  0  0  0  0  0  0  0  0  0  0
    8.6811    9.5354   16.9998 C   0  0  0  0  0  0  0  0  0  0  0  0
    9.2512    4.2713   13.7653 O   0  0  0  0  0  0  0  0  0  0  0  0
    9.6495    8.6317   16.8332 N   0  0  0  0  0  0  0  0  0  0  0  0
    6.2934    8.6988   23.1988 O   0  0  0  0  0  0  0  0  0  0  0  0
    7.9806    8.6543   20.5437 C   0  0  0  0  0  0  0  0  0  0  0  0
   13.7270    5.7144   19.8610 O   0  0  0  0  0  0  0  0  0  0  0  0
    8.3351    5.5235   15.4478 C   0  0  0  0  0  0  0  0  0  0  0  0
    8.7700    7.8434   21.3915 C   0  0  0  0  0  0  0  0  0  0  0  0
   11.7856    6.8851   19.2401 C   0  0  0  0  0  0  0  0  0  0  0  0
   10.5281    7.4276   19.5649 C   0  0  0  0  0  0  0  0  0  0  0  0
   10.0256    7.2907   20.8484 C   0  0  0  0  0  0  0  0  0  0  0  0
    9.3113    5.3049   14.4911 C   0  0  0  0  0  0  0  0  0  0  0  0
    9.4607    7.5646   16.0139 C   0  0  0  0  0  0  0  0  0  0  0  0
   10.4192    7.3157   15.0955 C   0  0  0  0  0  0  0  0  0  0  0  0
   10.2489    6.4227   23.0218 N   0  0  0  0  0  0  0  0  0  0  0  0
    7.2472    8.0746   23.5050 C   0  0  0  0  0  0  0  0  0  0  0  0
    9.2051    6.9101   23.4604 C   0  0  0  0  0  0  0  0  0  0  0  0
   11.9646    6.0299   21.4251 C   0  0  0  0  0  0  0  0  0  0  0  0
  1  5  1  0
  1 13  1  0
  2 20  2  0
  2 28  1  0
  2 29  1  0
  3 19  4  0
  3 25  4  0
  4 23  4  0
  4 27  1  0
  4 30  4  0
  5 17  1  0
  6  8  1  0
  6 29  1  0
  7 24  4  0
  7 26  4  0
  8 28  1  0
  9 13  2  0
 10 18  1  0
 10 21  4  0
 10 30  4  0
 11 17  2  0
 12 18  1  0
 13 15  1  0
 14 24  1  0
 15 25  1  0
 16 28  2  0
 17 20  1  0
 19 24  4  0
 20 23  1  0
 21 22  4  0
 22 23  4  0
 25 26  4  0
 27 29  2  0
M  END
$$$$

 Created by Python create_sdf_string function

 30 33  0  0  0  0  0  0  0  0999 V2000
    8.3036    9.8571   18.4133 C   0  0  0  0  0  0  0  0  0  0  0  0
    8.3694    7.6612   22.6703 C   0  0  0  0  0  0  0  0  0  0  0  0
    8.4143    6.6863   16.2273 C   0  0  0  0  0  0  0  0  0  0  0  0
   10.7581    6.5674   21.7636 C   0  0  0  0  0  0  0  0  0  0  0  0
    8.4452    8.7960   19.2958 O   0  0  0  0  0  0  0  0  0  0  0  0
    8.7122    6.7842   24.8569 C   0  0  0  0  0  0  0  0  0  0  0  0
   10.3400    6.1726   14.3081 C   0  0  0  0  0  0  0  0  0  0  0  0
    7.4297    7.5873   24.8962 C   0  0  0  0  0  0  0  0  0  0  0  0
    8.1566   10.0536   16.0516 O   0  0  0  0  0  0  0  0  0  0  0  0
   12.4989    6.2074   20.1776 C   0  0  0  0  0  0  0  0  0  0  0  0
    6.9192    9.1053   20.9073 O   0  0  0  0  0  0  0  0  0  0  0  0
   14.3979    6.0729   18.7784 C   0  0  0  0  0  0  0  0  0  0  0  0
    8.6811    9.5354   16.9998 C   0  0  0  0  0  0  0  0  0  0  0  0
    9.2512    4.2713   13.7653 O   0  0  0  0  0  0  0  0  0  0  0  0
    9.6495    8.6317   16.8332 N   0  0  0  0  0  0  0  0  0  0  0  0
    6.2934    8.6988   23.1988 O   0  0  0  0  0  0  0  0  0  0  0  0
    7.9806    8.6543   20.5437 C   0  0  0  0  0  0  0  0  0  0  0  0
   13.7270    5.7144   19.8610 O   0  0  0  0  0  0  0  0  0  0  0  0
    8.3351    5.5235   15.4478 C   0  0  0  0  0  0  0  0  0  0  0  0
    8.7700    7.8434   21.3915 C   0  0  0  0  0  0  0  0  0  0  0  0
   11.7856    6.8851   19.2401 C   0  0  0  0  0  0  0  0  0  0  0  0
   10.5281    7.4276   19.5649 C   0  0  0  0  0  0  0  0  0  0  0  0
   10.0256    7.2907   20.8484 C   0  0  0  0  0  0  0  0  0  0  0  0
    9.3113    5.3049   14.4911 C   0  0  0  0  0  0  0  0  0  0  0  0
    9.4607    7.5646   16.0139 C   0  0  0  0  0  0  0  0  0  0  0  0
   10.4192    7.3157   15.0955 C   0  0  0  0  0  0  0  0  0  0  0  0
   10.2489    6.4227   23.0218 N   0  0  0  0  0  0  0  0  0  0  0  0
    7.2472    8.0746   23.5050 C   0  0  0  0  0  0  0  0  0  0  0  0
    9.2051    6.9101   23.4604 C   0  0  0  0  0  0  0  0  0  0  0  0
   11.9646    6.0299   21.4251 C   0  0  0  0  0  0  0  0  0  0  0  0
  1  5  1  0
  1 13  1  0
  2 20  2  0
  2 28  1  0
  2 29  1  0
  3 19  4  0
  3 25  4  0
  4 23  4  0
  4 27  1  0
  4 30  4  0
  5 17  1  0
  6  8  1  0
  6 29  1  0
  7 24  4  0
  7 26  4  0
  8 28  1  0
  9 13  2  0
 10 18  1  0
 10 21  4  0
 10 30  4  0
 11 17  2  0
 12 18  1  0
 13 15  1  0
 14 24  1  0
 15 25  1  0
 16 28  2  0
 17 20  1  0
 19 24  4  0
 20 23  1  0
 21 22  4  0
 22 23  4  0
 25 26  4  0
 27 29  2  0
M  END
$$$$

 Created by Python create_sdf_string function

 30 33  0  0  0  0  0  0  0  0999 V2000
    8.3036    9.8571   18.4133 C   0  0  0  0  0  0  0  0  0  0  0  0
    8.3694    7.6612   22.6703 C   0  0  0  0  0  0  0  0  0  0  0  0
    8.4143    6.6863   16.2273 C   0  0  0  0  0  0  0  0  0  0  0  0
   10.7581    6.5674   21.7636 C   0  0  0  0  0  0  0  0  0  0  0  0
    8.4452    8.7960   19.2958 O   0  0  0  0  0  0  0  0  0  0  0  0
    8.7122    6.7842   24.8569 C   0  0  0  0  0  0  0  0  0  0  0  0
   10.3400    6.1726   14.3081 C   0  0  0  0  0  0  0  0  0  0  0  0
    7.4297    7.5873   24.8962 C   0  0  0  0  0  0  0  0  0  0  0  0
    8.1566   10.0536   16.0516 O   0  0  0  0  0  0  0  0  0  0  0  0
   12.4989    6.2074   20.1776 C   0  0  0  0  0  0  0  0  0  0  0  0
    6.9192    9.1053   20.9073 O   0  0  0  0  0  0  0  0  0  0  0  0
   14.3979    6.0729   18.7784 C   0  0  0  0  0  0  0  0  0  0  0  0
    8.6811    9.5354   16.9998 C   0  0  0  0  0  0  0  0  0  0  0  0
    9.2512    4.2713   13.7653 O   0  0  0  0  0  0  0  0  0  0  0  0
    9.6495    8.6317   16.8332 N   0  0  0  0  0  0  0  0  0  0  0  0
    6.2934    8.6988   23.1988 O   0  0  0  0  0  0  0  0  0  0  0  0
    7.9806    8.6543   20.5437 C   0  0  0  0  0  0  0  0  0  0  0  0
   13.7270    5.7144   19.8610 O   0  0  0  0  0  0  0  0  0  0  0  0
    8.3351    5.5235   15.4478 C   0  0  0  0  0  0  0  0  0  0  0  0
    8.7700    7.8434   21.3915 C   0  0  0  0  0  0  0  0  0  0  0  0
   11.7856    6.8851   19.2401 C   0  0  0  0  0  0  0  0  0  0  0  0
   10.5281    7.4276   19.5649 C   0  0  0  0  0  0  0  0  0  0  0  0
   10.0256    7.2907   20.8484 C   0  0  0  0  0  0  0  0  0  0  0  0
    9.3113    5.3049   14.4911 C   0  0  0  0  0  0  0  0  0  0  0  0
    9.4607    7.5646   16.0139 C   0  0  0  0  0  0  0  0  0  0  0  0
   10.4192    7.3157   15.0955 C   0  0  0  0  0  0  0  0  0  0  0  0
   10.2489    6.4227   23.0218 N   0  0  0  0  0  0  0  0  0  0  0  0
    7.2472    8.0746   23.5050 C   0  0  0  0  0  0  0  0  0  0  0  0
    9.2051    6.9101   23.4604 C   0  0  0  0  0  0  0  0  0  0  0  0
   11.9646    6.0299   21.4251 C   0  0  0  0  0  0  0  0  0  0  0  0
  1  5  1  0
  1 13  1  0
  2 20  2  0
  2 28  1  0
  2 29  1  0
  3 19  4  0
  3 25  4  0
  4 23  4  0
  4 27  1  0
  4 30  4  0
  5 17  1  0
  6  8  1  0
  6 29  1  0
  7 24  4  0
  7 26  4  0
  8 28  1  0
  9 13  2  0
 10 18  1  0
 10 21  4  0
 10 30  4  0
 11 17  2  0
 12 18  1  0
 13 15  1  0
 14 24  1  0
 15 25  1  0
 16 28  2  0
 17 20  1  0
 19 24  4  0
 20 23  1  0
 21 22  4  0
 22 23  4  0
 25 26  4  0
 27 29  2  0
M  END
$$$$

 Created by Python create_sdf_string function

 30 33  0  0  0  0  0  0  0  0999 V2000
    8.3036    9.8571   18.4133 C   0  0  0  0  0  0  0  0  0  0  0  0
    8.3694    7.6612   22.6703 C   0  0  0  0  0  0  0  0  0  0  0  0
    8.4143    6.6863   16.2273 C   0  0  0  0  0  0  0  0  0  0  0  0
   10.7581    6.5674   21.7636 C   0  0  0  0  0  0  0  0  0  0  0  0
    8.4452    8.7960   19.2958 O   0  0  0  0  0  0  0  0  0  0  0  0
    8.7122    6.7842   24.8569 C   0  0  0  0  0  0  0  0  0  0  0  0
   10.3400    6.1726   14.3081 C   0  0  0  0  0  0  0  0  0  0  0  0
    7.4297    7.5873   24.8962 C   0  0  0  0  0  0  0  0  0  0  0  0
    8.1566   10.0536   16.0516 O   0  0  0  0  0  0  0  0  0  0  0  0
   12.4989    6.2074   20.1776 C   0  0  0  0  0  0  0  0  0  0  0  0
    6.9192    9.1053   20.9073 O   0  0  0  0  0  0  0  0  0  0  0  0
   14.3979    6.0729   18.7784 C   0  0  0  0  0  0  0  0  0  0  0  0
    8.6811    9.5354   16.9998 C   0  0  0  0  0  0  0  0  0  0  0  0
    9.2512    4.2713   13.7653 O   0  0  0  0  0  0  0  0  0  0  0  0
    9.6495    8.6317   16.8332 N   0  0  0  0  0  0  0  0  0  0  0  0
    6.2934    8.6988   23.1988 O   0  0  0  0  0  0  0  0  0  0  0  0
    7.9806    8.6543   20.5437 C   0  0  0  0  0  0  0  0  0  0  0  0
   13.7270    5.7144   19.8610 O   0  0  0  0  0  0  0  0  0  0  0  0
    8.3351    5.5235   15.4478 C   0  0  0  0  0  0  0  0  0  0  0  0
    8.7700    7.8434   21.3915 C   0  0  0  0  0  0  0  0  0  0  0  0
   11.7856    6.8851   19.2401 C   0  0  0  0  0  0  0  0  0  0  0  0
   10.5281    7.4276   19.5649 C   0  0  0  0  0  0  0  0  0  0  0  0
   10.0256    7.2907   20.8484 C   0  0  0  0  0  0  0  0  0  0  0  0
    9.3113    5.3049   14.4911 C   0  0  0  0  0  0  0  0  0  0  0  0
    9.4607    7.5646   16.0139 C   0  0  0  0  0  0  0  0  0  0  0  0
   10.4192    7.3157   15.0955 C   0  0  0  0  0  0  0  0  0  0  0  0
   10.2489    6.4227   23.0218 N   0  0  0  0  0  0  0  0  0  0  0  0
    7.2472    8.0746   23.5050 C   0  0  0  0  0  0  0  0  0  0  0  0
    9.2051    6.9101   23.4604 C   0  0  0  0  0  0  0  0  0  0  0  0
   11.9646    6.0299   21.4251 C   0  0  0  0  0  0  0  0  0  0  0  0
  1  5  1  0
  1 13  1  0
  2 20  2  0
  2 28  1  0
  2 29  1  0
  3 19  4  0
  3 25  4  0
  4 23  4  0
  4 27  1  0
  4 30  4  0
  5 17  1  0
  6  8  1  0
  6 29  1  0
  7 24  4  0
  7 26  4  0
  8 28  1  0
  9 13  2  0
 10 18  1  0
 10 21  4  0
 10 30  4  0
 11 17  2  0
 12 18  1  0
 13 15  1  0
 14 24  1  0
 15 25  1  0
 16 28  2  0
 17 20  1  0
 19 24  4  0
 20 23  1  0
 21 22  4  0
 22 23  4  0
 25 26  4  0
 27 29  2  0
M  END
$$$$

 Created by Python create_sdf_string function

 30 33  0  0  0  0  0  0  0  0999 V2000
    8.3036    9.8571   18.4133 C   0  0  0  0  0  0  0  0  0  0  0  0
    8.3694    7.6612   22.6703 C   0  0  0  0  0  0  0  0  0  0  0  0
    8.4143    6.6863   16.2273 C   0  0  0  0  0  0  0  0  0  0  0  0
   10.7581    6.5674   21.7636 C   0  0  0  0  0  0  0  0  0  0  0  0
    8.4452    8.7960   19.2958 O   0  0  0  0  0  0  0  0  0  0  0  0
    8.7122    6.7842   24.8569 C   0  0  0  0  0  0  0  0  0  0  0  0
   10.3400    6.1726   14.3081 C   0  0  0  0  0  0  0  0  0  0  0  0
    7.4297    7.5873   24.8962 C   0  0  0  0  0  0  0  0  0  0  0  0
    8.1566   10.0536   16.0516 O   0  0  0  0  0  0  0  0  0  0  0  0
   12.4989    6.2074   20.1776 C   0  0  0  0  0  0  0  0  0  0  0  0
    6.9192    9.1053   20.9073 O   0  0  0  0  0  0  0  0  0  0  0  0
   14.3979    6.0729   18.7784 C   0  0  0  0  0  0  0  0  0  0  0  0
    8.6811    9.5354   16.9998 C   0  0  0  0  0  0  0  0  0  0  0  0
    9.2512    4.2713   13.7653 O   0  0  0  0  0  0  0  0  0  0  0  0
    9.6495    8.6317   16.8332 N   0  0  0  0  0  0  0  0  0  0  0  0
    6.2934    8.6988   23.1988 O   0  0  0  0  0  0  0  0  0  0  0  0
    7.9806    8.6543   20.5437 C   0  0  0  0  0  0  0  0  0  0  0  0
   13.7270    5.7144   19.8610 O   0  0  0  0  0  0  0  0  0  0  0  0
    8.3351    5.5235   15.4478 C   0  0  0  0  0  0  0  0  0  0  0  0
    8.7700    7.8434   21.3915 C   0  0  0  0  0  0  0  0  0  0  0  0
   11.7856    6.8851   19.2401 C   0  0  0  0  0  0  0  0  0  0  0  0
   10.5281    7.4276   19.5649 C   0  0  0  0  0  0  0  0  0  0  0  0
   10.0256    7.2907   20.8484 C   0  0  0  0  0  0  0  0  0  0  0  0
    9.3113    5.3049   14.4911 C   0  0  0  0  0  0  0  0  0  0  0  0
    9.4607    7.5646   16.0139 C   0  0  0  0  0  0  0  0  0  0  0  0
   10.4192    7.3157   15.0955 C   0  0  0  0  0  0  0  0  0  0  0  0
   10.2489    6.4227   23.0218 N   0  0  0  0  0  0  0  0  0  0  0  0
    7.2472    8.0746   23.5050 C   0  0  0  0  0  0  0  0  0  0  0  0
    9.2051    6.9101   23.4604 C   0  0  0  0  0  0  0  0  0  0  0  0
   11.9646    6.0299   21.4251 C   0  0  0  0  0  0  0  0  0  0  0  0
  1  5  1  0
  1 13  1  0
  2 20  2  0
  2 28  1  0
  2 29  1  0
  3 19  4  0
  3 25  4  0
  4 23  4  0
  4 27  1  0
  4 30  4  0
  5 17  1  0
  6  8  1  0
  6 29  1  0
  7 24  4  0
  7 26  4  0
  8 28  1  0
  9 13  2  0
 10 18  1  0
 10 21  4  0
 10 30  4  0
 11 17  2  0
 12 18  1  0
 13 15  1  0
 14 24  1  0
 15 25  1  0
 16 28  2  0
 17 20  1  0
 19 24  4  0
 20 23  1  0
 21 22  4  0
 22 23  4  0
 25 26  4  0
 27 29  2  0
M  END
$$$$

 Created by Python create_sdf_string function

 30 33  0  0  0  0  0  0  0  0999 V2000
    8.3036    9.8571   18.4133 C   0  0  0  0  0  0  0  0  0  0  0  0
    8.3694    7.6612   22.6703 C   0  0  0  0  0  0  0  0  0  0  0  0
    8.4143    6.6863   16.2273 C   0  0  0  0  0  0  0  0  0  0  0  0
   10.7581    6.5674   21.7636 C   0  0  0  0  0  0  0  0  0  0  0  0
    8.4452    8.7960   19.2958 O   0  0  0  0  0  0  0  0  0  0  0  0
    8.7122    6.7842   24.8569 C   0  0  0  0  0  0  0  0  0  0  0  0
   10.3400    6.1726   14.3081 C   0  0  0  0  0  0  0  0  0  0  0  0
    7.4297    7.5873   24.8962 C   0  0  0  0  0  0  0  0  0  0  0  0
    8.1566   10.0536   16.0516 O   0  0  0  0  0  0  0  0  0  0  0  0
   12.4989    6.2074   20.1776 C   0  0  0  0  0  0  0  0  0  0  0  0
    6.9192    9.1053   20.9073 O   0  0  0  0  0  0  0  0  0  0  0  0
   14.3979    6.0729   18.7784 C   0  0  0  0  0  0  0  0  0  0  0  0
    8.6811    9.5354   16.9998 C   0  0  0  0  0  0  0  0  0  0  0  0
    9.2512    4.2713   13.7653 O   0  0  0  0  0  0  0  0  0  0  0  0
    9.6495    8.6317   16.8332 N   0  0  0  0  0  0  0  0  0  0  0  0
    6.2934    8.6988   23.1988 O   0  0  0  0  0  0  0  0  0  0  0  0
    7.9806    8.6543   20.5437 C   0  0  0  0  0  0  0  0  0  0  0  0
   13.7270    5.7144   19.8610 O   0  0  0  0  0  0  0  0  0  0  0  0
    8.3351    5.5235   15.4478 C   0  0  0  0  0  0  0  0  0  0  0  0
    8.7700    7.8434   21.3915 C   0  0  0  0  0  0  0  0  0  0  0  0
   11.7856    6.8851   19.2401 C   0  0  0  0  0  0  0  0  0  0  0  0
   10.5281    7.4276   19.5649 C   0  0  0  0  0  0  0  0  0  0  0  0
   10.0256    7.2907   20.8484 C   0  0  0  0  0  0  0  0  0  0  0  0
    9.3113    5.3049   14.4911 C   0  0  0  0  0  0  0  0  0  0  0  0
    9.4607    7.5646   16.0139 C   0  0  0  0  0  0  0  0  0  0  0  0
   10.4192    7.3157   15.0955 C   0  0  0  0  0  0  0  0  0  0  0  0
   10.2489    6.4227   23.0218 N   0  0  0  0  0  0  0  0  0  0  0  0
    7.2472    8.0746   23.5050 C   0  0  0  0  0  0  0  0  0  0  0  0
    9.2051    6.9101   23.4604 C   0  0  0  0  0  0  0  0  0  0  0  0
   11.9646    6.0299   21.4251 C   0  0  0  0  0  0  0  0  0  0  0  0
  1  5  1  0
  1 13  1  0
  2 20  2  0
  2 28  1  0
  2 29  1  0
  3 19  4  0
  3 25  4  0
  4 23  4  0
  4 27  1  0
  4 30  4  0
  5 17  1  0
  6  8  1  0
  6 29  1  0
  7 24  4  0
  7 26  4  0
  8 28  1  0
  9 13  2  0
 10 18  1  0
 10 21  4  0
 10 30  4  0
 11 17  2  0
 12 18  1  0
 13 15  1  0
 14 24  1  0
 15 25  1  0
 16 28  2  0
 17 20  1  0
 19 24  4  0
 20 23  1  0
 21 22  4  0
 22 23  4  0
 25 26  4  0
 27 29  2  0
M  END
$$$$

 Created by Python create_sdf_string function

 30 33  0  0  0  0  0  0  0  0999 V2000
    8.3036    9.8571   18.4133 C   0  0  0  0  0  0  0  0  0  0  0  0
    8.3694    7.6612   22.6703 C   0  0  0  0  0  0  0  0  0  0  0  0
    8.4143    6.6863   16.2273 C   0  0  0  0  0  0  0  0  0  0  0  0
   10.7581    6.5674   21.7636 C   0  0  0  0  0  0  0  0  0  0  0  0
    8.4452    8.7960   19.2958 O   0  0  0  0  0  0  0  0  0  0  0  0
    8.7122    6.7842   24.8569 C   0  0  0  0  0  0  0  0  0  0  0  0
   10.3400    6.1726   14.3081 C   0  0  0  0  0  0  0  0  0  0  0  0
    7.4297    7.5873   24.8962 C   0  0  0  0  0  0  0  0  0  0  0  0
    8.1566   10.0536   16.0516 O   0  0  0  0  0  0  0  0  0  0  0  0
   12.4989    6.2074   20.1776 C   0  0  0  0  0  0  0  0  0  0  0  0
    6.9192    9.1053   20.9073 O   0  0  0  0  0  0  0  0  0  0  0  0
   14.3979    6.0729   18.7784 C   0  0  0  0  0  0  0  0  0  0  0  0
    8.6811    9.5354   16.9998 C   0  0  0  0  0  0  0  0  0  0  0  0
    9.2512    4.2713   13.7653 O   0  0  0  0  0  0  0  0  0  0  0  0
    9.6495    8.6317   16.8332 N   0  0  0  0  0  0  0  0  0  0  0  0
    6.2934    8.6988   23.1988 O   0  0  0  0  0  0  0  0  0  0  0  0
    7.9806    8.6543   20.5437 C   0  0  0  0  0  0  0  0  0  0  0  0
   13.7270    5.7144   19.8610 O   0  0  0  0  0  0  0  0  0  0  0  0
    8.3351    5.5235   15.4478 C   0  0  0  0  0  0  0  0  0  0  0  0
    8.7700    7.8434   21.3915 C   0  0  0  0  0  0  0  0  0  0  0  0
   11.7856    6.8851   19.2401 C   0  0  0  0  0  0  0  0  0  0  0  0
   10.5281    7.4276   19.5649 C   0  0  0  0  0  0  0  0  0  0  0  0
   10.0256    7.2907   20.8484 C   0  0  0  0  0  0  0  0  0  0  0  0
    9.3113    5.3049   14.4911 C   0  0  0  0  0  0  0  0  0  0  0  0
    9.4607    7.5646   16.0139 C   0  0  0  0  0  0  0  0  0  0  0  0
   10.4192    7.3157   15.0955 C   0  0  0  0  0  0  0  0  0  0  0  0
   10.2489    6.4227   23.0218 N   0  0  0  0  0  0  0  0  0  0  0  0
    7.2472    8.0746   23.5050 C   0  0  0  0  0  0  0  0  0  0  0  0
    9.2051    6.9101   23.4604 C   0  0  0  0  0  0  0  0  0  0  0  0
   11.9646    6.0299   21.4251 C   0  0  0  0  0  0  0  0  0  0  0  0
  1  5  1  0
  1 13  1  0
  2 20  2  0
  2 28  1  0
  2 29  1  0
  3 19  4  0
  3 25  4  0
  4 23  4  0
  4 27  1  0
  4 30  4  0
  5 17  1  0
  6  8  1  0
  6 29  1  0
  7 24  4  0
  7 26  4  0
  8 28  1  0
  9 13  2  0
 10 18  1  0
 10 21  4  0
 10 30  4  0
 11 17  2  0
 12 18  1  0
 13 15  1  0
 14 24  1  0
 15 25  1  0
 16 28  2  0
 17 20  1  0
 19 24  4  0
 20 23  1  0
 21 22  4  0
 22 23  4  0
 25 26  4  0
 27 29  2  0
M  END
$$$$

 Created by Python create_sdf_string function

 30 33  0  0  0  0  0  0  0  0999 V2000
    8.3036    9.8571   18.4133 C   0  0  0  0  0  0  0  0  0  0  0  0
    8.3694    7.6612   22.6703 C   0  0  0  0  0  0  0  0  0  0  0  0
    8.4143    6.6863   16.2273 C   0  0  0  0  0  0  0  0  0  0  0  0
   10.7581    6.5674   21.7636 C   0  0  0  0  0  0  0  0  0  0  0  0
    8.4452    8.7960   19.2958 O   0  0  0  0  0  0  0  0  0  0  0  0
    8.7122    6.7842   24.8569 C   0  0  0  0  0  0  0  0  0  0  0  0
   10.3400    6.1726   14.3081 C   0  0  0  0  0  0  0  0  0  0  0  0
    7.4297    7.5873   24.8962 C   0  0  0  0  0  0  0  0  0  0  0  0
    8.1566   10.0536   16.0516 O   0  0  0  0  0  0  0  0  0  0  0  0
   12.4989    6.2074   20.1776 C   0  0  0  0  0  0  0  0  0  0  0  0
    6.9192    9.1053   20.9073 O   0  0  0  0  0  0  0  0  0  0  0  0
   14.3979    6.0729   18.7784 C   0  0  0  0  0  0  0  0  0  0  0  0
    8.6811    9.5354   16.9998 C   0  0  0  0  0  0  0  0  0  0  0  0
    9.2512    4.2713   13.7653 O   0  0  0  0  0  0  0  0  0  0  0  0
    9.6495    8.6317   16.8332 N   0  0  0  0  0  0  0  0  0  0  0  0
    6.2934    8.6988   23.1988 O   0  0  0  0  0  0  0  0  0  0  0  0
    7.9806    8.6543   20.5437 C   0  0  0  0  0  0  0  0  0  0  0  0
   13.7270    5.7144   19.8610 O   0  0  0  0  0  0  0  0  0  0  0  0
    8.3351    5.5235   15.4478 C   0  0  0  0  0  0  0  0  0  0  0  0
    8.7700    7.8434   21.3915 C   0  0  0  0  0  0  0  0  0  0  0  0
   11.7856    6.8851   19.2401 C   0  0  0  0  0  0  0  0  0  0  0  0
   10.5281    7.4276   19.5649 C   0  0  0  0  0  0  0  0  0  0  0  0
   10.0256    7.2907   20.8484 C   0  0  0  0  0  0  0  0  0  0  0  0
    9.3113    5.3049   14.4911 C   0  0  0  0  0  0  0  0  0  0  0  0
    9.4607    7.5646   16.0139 C   0  0  0  0  0  0  0  0  0  0  0  0
   10.4192    7.3157   15.0955 C   0  0  0  0  0  0  0  0  0  0  0  0
   10.2489    6.4227   23.0218 N   0  0  0  0  0  0  0  0  0  0  0  0
    7.2472    8.0746   23.5050 C   0  0  0  0  0  0  0  0  0  0  0  0
    9.2051    6.9101   23.4604 C   0  0  0  0  0  0  0  0  0  0  0  0
   11.9646    6.0299   21.4251 C   0  0  0  0  0  0  0  0  0  0  0  0
  1  5  1  0
  1 13  1  0
  2 20  2  0
  2 28  1  0
  2 29  1  0
  3 19  4  0
  3 25  4  0
  4 23  4  0
  4 27  1  0
  4 30  4  0
  5 17  1  0
  6  8  1  0
  6 29  1  0
  7 24  4  0
  7 26  4  0
  8 28  1  0
  9 13  2  0
 10 18  1  0
 10 21  4  0
 10 30  4  0
 11 17  2  0
 12 18  1  0
 13 15  1  0
 14 24  1  0
 15 25  1  0
 16 28  2  0
 17 20  1  0
 19 24  4  0
 20 23  1  0
 21 22  4  0
 22 23  4  0
 25 26  4  0
 27 29  2  0
M  END
$$$$

 Created by Python create_sdf_string function

 30 33  0  0  0  0  0  0  0  0999 V2000
    8.3036    9.8571   18.4133 C   0  0  0  0  0  0  0  0  0  0  0  0
    8.3694    7.6612   22.6703 C   0  0  0  0  0  0  0  0  0  0  0  0
    8.4143    6.6863   16.2273 C   0  0  0  0  0  0  0  0  0  0  0  0
   10.7581    6.5674   21.7636 C   0  0  0  0  0  0  0  0  0  0  0  0
    8.4452    8.7960   19.2958 O   0  0  0  0  0  0  0  0  0  0  0  0
    8.7122    6.7842   24.8569 C   0  0  0  0  0  0  0  0  0  0  0  0
   10.3400    6.1726   14.3081 C   0  0  0  0  0  0  0  0  0  0  0  0
    7.4297    7.5873   24.8962 C   0  0  0  0  0  0  0  0  0  0  0  0
    8.1566   10.0536   16.0516 O   0  0  0  0  0  0  0  0  0  0  0  0
   12.4989    6.2074   20.1776 C   0  0  0  0  0  0  0  0  0  0  0  0
    6.9192    9.1053   20.9073 O   0  0  0  0  0  0  0  0  0  0  0  0
   14.3979    6.0729   18.7784 C   0  0  0  0  0  0  0  0  0  0  0  0
    8.6811    9.5354   16.9998 C   0  0  0  0  0  0  0  0  0  0  0  0
    9.2512    4.2713   13.7653 O   0  0  0  0  0  0  0  0  0  0  0  0
    9.6495    8.6317   16.8332 N   0  0  0  0  0  0  0  0  0  0  0  0
    6.2934    8.6988   23.1988 O   0  0  0  0  0  0  0  0  0  0  0  0
    7.9806    8.6543   20.5437 C   0  0  0  0  0  0  0  0  0  0  0  0
   13.7270    5.7144   19.8610 O   0  0  0  0  0  0  0  0  0  0  0  0
    8.3351    5.5235   15.4478 C   0  0  0  0  0  0  0  0  0  0  0  0
    8.7700    7.8434   21.3915 C   0  0  0  0  0  0  0  0  0  0  0  0
   11.7856    6.8851   19.2401 C   0  0  0  0  0  0  0  0  0  0  0  0
   10.5281    7.4276   19.5649 C   0  0  0  0  0  0  0  0  0  0  0  0
   10.0256    7.2907   20.8484 C   0  0  0  0  0  0  0  0  0  0  0  0
    9.3113    5.3049   14.4911 C   0  0  0  0  0  0  0  0  0  0  0  0
    9.4607    7.5646   16.0139 C   0  0  0  0  0  0  0  0  0  0  0  0
   10.4192    7.3157   15.0955 C   0  0  0  0  0  0  0  0  0  0  0  0
   10.2489    6.4227   23.0218 N   0  0  0  0  0  0  0  0  0  0  0  0
    7.2472    8.0746   23.5050 C   0  0  0  0  0  0  0  0  0  0  0  0
    9.2051    6.9101   23.4604 C   0  0  0  0  0  0  0  0  0  0  0  0
   11.9646    6.0299   21.4251 C   0  0  0  0  0  0  0  0  0  0  0  0
  1  5  1  0
  1 13  1  0
  2 20  2  0
  2 28  1  0
  2 29  1  0
  3 19  4  0
  3 25  4  0
  4 23  4  0
  4 27  1  0
  4 30  4  0
  5 17  1  0
  6  8  1  0
  6 29  1  0
  7 24  4  0
  7 26  4  0
  8 28  1  0
  9 13  2  0
 10 18  1  0
 10 21  4  0
 10 30  4  0
 11 17  2  0
 12 18  1  0
 13 15  1  0
 14 24  1  0
 15 25  1  0
 16 28  2  0
 17 20  1  0
 19 24  4  0
 20 23  1  0
 21 22  4  0
 22 23  4  0
 25 26  4  0
 27 29  2  0
M  END
$$$$

 Created by Python create_sdf_string function

 30 33  0  0  0  0  0  0  0  0999 V2000
    8.3036    9.8571   18.4133 C   0  0  0  0  0  0  0  0  0  0  0  0
    8.3694    7.6612   22.6703 C   0  0  0  0  0  0  0  0  0  0  0  0
    8.4143    6.6863   16.2273 C   0  0  0  0  0  0  0  0  0  0  0  0
   10.7581    6.5674   21.7636 C   0  0  0  0  0  0  0  0  0  0  0  0
    8.4452    8.7960   19.2958 O   0  0  0  0  0  0  0  0  0  0  0  0
    8.7122    6.7842   24.8569 C   0  0  0  0  0  0  0  0  0  0  0  0
   10.3400    6.1726   14.3081 C   0  0  0  0  0  0  0  0  0  0  0  0
    7.4297    7.5873   24.8962 C   0  0  0  0  0  0  0  0  0  0  0  0
    8.1566   10.0536   16.0516 O   0  0  0  0  0  0  0  0  0  0  0  0
   12.4989    6.2074   20.1776 C   0  0  0  0  0  0  0  0  0  0  0  0
    6.9192    9.1053   20.9073 O   0  0  0  0  0  0  0  0  0  0  0  0
   14.3979    6.0729   18.7784 C   0  0  0  0  0  0  0  0  0  0  0  0
    8.6811    9.5354   16.9998 C   0  0  0  0  0  0  0  0  0  0  0  0
    9.2512    4.2713   13.7653 O   0  0  0  0  0  0  0  0  0  0  0  0
    9.6495    8.6317   16.8332 N   0  0  0  0  0  0  0  0  0  0  0  0
    6.2934    8.6988   23.1988 O   0  0  0  0  0  0  0  0  0  0  0  0
    7.9806    8.6543   20.5437 C   0  0  0  0  0  0  0  0  0  0  0  0
   13.7270    5.7144   19.8610 O   0  0  0  0  0  0  0  0  0  0  0  0
    8.3351    5.5235   15.4478 C   0  0  0  0  0  0  0  0  0  0  0  0
    8.7700    7.8434   21.3915 C   0  0  0  0  0  0  0  0  0  0  0  0
   11.7856    6.8851   19.2401 C   0  0  0  0  0  0  0  0  0  0  0  0
   10.5281    7.4276   19.5649 C   0  0  0  0  0  0  0  0  0  0  0  0
   10.0256    7.2907   20.8484 C   0  0  0  0  0  0  0  0  0  0  0  0
    9.3113    5.3049   14.4911 C   0  0  0  0  0  0  0  0  0  0  0  0
    9.4607    7.5646   16.0139 C   0  0  0  0  0  0  0  0  0  0  0  0
   10.4192    7.3157   15.0955 C   0  0  0  0  0  0  0  0  0  0  0  0
   10.2489    6.4227   23.0218 N   0  0  0  0  0  0  0  0  0  0  0  0
    7.2472    8.0746   23.5050 C   0  0  0  0  0  0  0  0  0  0  0  0
    9.2051    6.9101   23.4604 C   0  0  0  0  0  0  0  0  0  0  0  0
   11.9646    6.0299   21.4251 C   0  0  0  0  0  0  0  0  0  0  0  0
  1  5  1  0
  1 13  1  0
  2 20  2  0
  2 28  1  0
  2 29  1  0
  3 19  4  0
  3 25  4  0
  4 23  4  0
  4 27  1  0
  4 30  4  0
  5 17  1  0
  6  8  1  0
  6 29  1  0
  7 24  4  0
  7 26  4  0
  8 28  1  0
  9 13  2  0
 10 18  1  0
 10 21  4  0
 10 30  4  0
 11 17  2  0
 12 18  1  0
 13 15  1  0
 14 24  1  0
 15 25  1  0
 16 28  2  0
 17 20  1  0
 19 24  4  0
 20 23  1  0
 21 22  4  0
 22 23  4  0
 25 26  4  0
 27 29  2  0
M  END
$$$$

 Created by Python create_sdf_string function

 30 33  0  0  0  0  0  0  0  0999 V2000
    8.3036    9.8571   18.4133 C   0  0  0  0  0  0  0  0  0  0  0  0
    8.3694    7.6612   22.6703 C   0  0  0  0  0  0  0  0  0  0  0  0
    8.4143    6.6863   16.2273 C   0  0  0  0  0  0  0  0  0  0  0  0
   10.7581    6.5674   21.7636 C   0  0  0  0  0  0  0  0  0  0  0  0
    8.4452    8.7960   19.2958 O   0  0  0  0  0  0  0  0  0  0  0  0
    8.7122    6.7842   24.8569 C   0  0  0  0  0  0  0  0  0  0  0  0
   10.3400    6.1726   14.3081 C   0  0  0  0  0  0  0  0  0  0  0  0
    7.4297    7.5873   24.8962 C   0  0  0  0  0  0  0  0  0  0  0  0
    8.1566   10.0536   16.0516 O   0  0  0  0  0  0  0  0  0  0  0  0
   12.4989    6.2074   20.1776 C   0  0  0  0  0  0  0  0  0  0  0  0
    6.9192    9.1053   20.9073 O   0  0  0  0  0  0  0  0  0  0  0  0
   14.3979    6.0729   18.7784 C   0  0  0  0  0  0  0  0  0  0  0  0
    8.6811    9.5354   16.9998 C   0  0  0  0  0  0  0  0  0  0  0  0
    9.2512    4.2713   13.7653 O   0  0  0  0  0  0  0  0  0  0  0  0
    9.6495    8.6317   16.8332 N   0  0  0  0  0  0  0  0  0  0  0  0
    6.2934    8.6988   23.1988 O   0  0  0  0  0  0  0  0  0  0  0  0
    7.9806    8.6543   20.5437 C   0  0  0  0  0  0  0  0  0  0  0  0
   13.7270    5.7144   19.8610 O   0  0  0  0  0  0  0  0  0  0  0  0
    8.3351    5.5235   15.4478 C   0  0  0  0  0  0  0  0  0  0  0  0
    8.7700    7.8434   21.3915 C   0  0  0  0  0  0  0  0  0  0  0  0
   11.7856    6.8851   19.2401 C   0  0  0  0  0  0  0  0  0  0  0  0
   10.5281    7.4276   19.5649 C   0  0  0  0  0  0  0  0  0  0  0  0
   10.0256    7.2907   20.8484 C   0  0  0  0  0  0  0  0  0  0  0  0
    9.3113    5.3049   14.4911 C   0  0  0  0  0  0  0  0  0  0  0  0
    9.4607    7.5646   16.0139 C   0  0  0  0  0  0  0  0  0  0  0  0
   10.4192    7.3157   15.0955 C   0  0  0  0  0  0  0  0  0  0  0  0
   10.2489    6.4227   23.0218 N   0  0  0  0  0  0  0  0  0  0  0  0
    7.2472    8.0746   23.5050 C   0  0  0  0  0  0  0  0  0  0  0  0
    9.2051    6.9101   23.4604 C   0  0  0  0  0  0  0  0  0  0  0  0
   11.9646    6.0299   21.4251 C   0  0  0  0  0  0  0  0  0  0  0  0
  1  5  1  0
  1 13  1  0
  2 20  2  0
  2 28  1  0
  2 29  1  0
  3 19  4  0
  3 25  4  0
  4 23  4  0
  4 27  1  0
  4 30  4  0
  5 17  1  0
  6  8  1  0
  6 29  1  0
  7 24  4  0
  7 26  4  0
  8 28  1  0
  9 13  2  0
 10 18  1  0
 10 21  4  0
 10 30  4  0
 11 17  2  0
 12 18  1  0
 13 15  1  0
 14 24  1  0
 15 25  1  0
 16 28  2  0
 17 20  1  0
 19 24  4  0
 20 23  1  0
 21 22  4  0
 22 23  4  0
 25 26  4  0
 27 29  2  0
M  END
$$$$

 Created by Python create_sdf_string function

 30 33  0  0  0  0  0  0  0  0999 V2000
    8.3036    9.8571   18.4133 C   0  0  0  0  0  0  0  0  0  0  0  0
    8.3694    7.6612   22.6703 C   0  0  0  0  0  0  0  0  0  0  0  0
    8.4143    6.6863   16.2273 C   0  0  0  0  0  0  0  0  0  0  0  0
   10.7581    6.5674   21.7636 C   0  0  0  0  0  0  0  0  0  0  0  0
    8.4452    8.7960   19.2958 O   0  0  0  0  0  0  0  0  0  0  0  0
    8.7122    6.7842   24.8569 C   0  0  0  0  0  0  0  0  0  0  0  0
   10.3400    6.1726   14.3081 C   0  0  0  0  0  0  0  0  0  0  0  0
    7.4297    7.5873   24.8962 C   0  0  0  0  0  0  0  0  0  0  0  0
    8.1566   10.0536   16.0516 O   0  0  0  0  0  0  0  0  0  0  0  0
   12.4989    6.2074   20.1776 C   0  0  0  0  0  0  0  0  0  0  0  0
    6.9192    9.1053   20.9073 O   0  0  0  0  0  0  0  0  0  0  0  0
   14.3979    6.0729   18.7784 C   0  0  0  0  0  0  0  0  0  0  0  0
    8.6811    9.5354   16.9998 C   0  0  0  0  0  0  0  0  0  0  0  0
    9.2512    4.2713   13.7653 O   0  0  0  0  0  0  0  0  0  0  0  0
    9.6495    8.6317   16.8332 N   0  0  0  0  0  0  0  0  0  0  0  0
    6.2934    8.6988   23.1988 O   0  0  0  0  0  0  0  0  0  0  0  0
    7.9806    8.6543   20.5437 C   0  0  0  0  0  0  0  0  0  0  0  0
   13.7270    5.7144   19.8610 O   0  0  0  0  0  0  0  0  0  0  0  0
    8.3351    5.5235   15.4478 C   0  0  0  0  0  0  0  0  0  0  0  0
    8.7700    7.8434   21.3915 C   0  0  0  0  0  0  0  0  0  0  0  0
   11.7856    6.8851   19.2401 C   0  0  0  0  0  0  0  0  0  0  0  0
   10.5281    7.4276   19.5649 C   0  0  0  0  0  0  0  0  0  0  0  0
   10.0256    7.2907   20.8484 C   0  0  0  0  0  0  0  0  0  0  0  0
    9.3113    5.3049   14.4911 C   0  0  0  0  0  0  0  0  0  0  0  0
    9.4607    7.5646   16.0139 C   0  0  0  0  0  0  0  0  0  0  0  0
   10.4192    7.3157   15.0955 C   0  0  0  0  0  0  0  0  0  0  0  0
   10.2489    6.4227   23.0218 N   0  0  0  0  0  0  0  0  0  0  0  0
    7.2472    8.0746   23.5050 C   0  0  0  0  0  0  0  0  0  0  0  0
    9.2051    6.9101   23.4604 C   0  0  0  0  0  0  0  0  0  0  0  0
   11.9646    6.0299   21.4251 C   0  0  0  0  0  0  0  0  0  0  0  0
  1  5  1  0
  1 13  1  0
  2 20  2  0
  2 28  1  0
  2 29  1  0
  3 19  4  0
  3 25  4  0
  4 23  4  0
  4 27  1  0
  4 30  4  0
  5 17  1  0
  6  8  1  0
  6 29  1  0
  7 24  4  0
  7 26  4  0
  8 28  1  0
  9 13  2  0
 10 18  1  0
 10 21  4  0
 10 30  4  0
 11 17  2  0
 12 18  1  0
 13 15  1  0
 14 24  1  0
 15 25  1  0
 16 28  2  0
 17 20  1  0
 19 24  4  0
 20 23  1  0
 21 22  4  0
 22 23  4  0
 25 26  4  0
 27 29  2  0
M  END
$$$$

 Created by Python create_sdf_string function

 30 33  0  0  0  0  0  0  0  0999 V2000
    8.3036    9.8571   18.4133 C   0  0  0  0  0  0  0  0  0  0  0  0
    8.3694    7.6612   22.6703 C   0  0  0  0  0  0  0  0  0  0  0  0
    8.4143    6.6863   16.2273 C   0  0  0  0  0  0  0  0  0  0  0  0
   10.7581    6.5674   21.7636 C   0  0  0  0  0  0  0  0  0  0  0  0
    8.4452    8.7960   19.2958 O   0  0  0  0  0  0  0  0  0  0  0  0
    8.7122    6.7842   24.8569 C   0  0  0  0  0  0  0  0  0  0  0  0
   10.3400    6.1726   14.3081 C   0  0  0  0  0  0  0  0  0  0  0  0
    7.4297    7.5873   24.8962 C   0  0  0  0  0  0  0  0  0  0  0  0
    8.1566   10.0536   16.0516 O   0  0  0  0  0  0  0  0  0  0  0  0
   12.4989    6.2074   20.1776 C   0  0  0  0  0  0  0  0  0  0  0  0
    6.9192    9.1053   20.9073 O   0  0  0  0  0  0  0  0  0  0  0  0
   14.3979    6.0729   18.7784 C   0  0  0  0  0  0  0  0  0  0  0  0
    8.6811    9.5354   16.9998 C   0  0  0  0  0  0  0  0  0  0  0  0
    9.2512    4.2713   13.7653 O   0  0  0  0  0  0  0  0  0  0  0  0
    9.6495    8.6317   16.8332 N   0  0  0  0  0  0  0  0  0  0  0  0
    6.2934    8.6988   23.1988 O   0  0  0  0  0  0  0  0  0  0  0  0
    7.9806    8.6543   20.5437 C   0  0  0  0  0  0  0  0  0  0  0  0
   13.7270    5.7144   19.8610 O   0  0  0  0  0  0  0  0  0  0  0  0
    8.3351    5.5235   15.4478 C   0  0  0  0  0  0  0  0  0  0  0  0
    8.7700    7.8434   21.3915 C   0  0  0  0  0  0  0  0  0  0  0  0
   11.7856    6.8851   19.2401 C   0  0  0  0  0  0  0  0  0  0  0  0
   10.5281    7.4276   19.5649 C   0  0  0  0  0  0  0  0  0  0  0  0
   10.0256    7.2907   20.8484 C   0  0  0  0  0  0  0  0  0  0  0  0
    9.3113    5.3049   14.4911 C   0  0  0  0  0  0  0  0  0  0  0  0
    9.4607    7.5646   16.0139 C   0  0  0  0  0  0  0  0  0  0  0  0
   10.4192    7.3157   15.0955 C   0  0  0  0  0  0  0  0  0  0  0  0
   10.2489    6.4227   23.0218 N   0  0  0  0  0  0  0  0  0  0  0  0
    7.2472    8.0746   23.5050 C   0  0  0  0  0  0  0  0  0  0  0  0
    9.2051    6.9101   23.4604 C   0  0  0  0  0  0  0  0  0  0  0  0
   11.9646    6.0299   21.4251 C   0  0  0  0  0  0  0  0  0  0  0  0
  1  5  1  0
  1 13  1  0
  2 20  2  0
  2 28  1  0
  2 29  1  0
  3 19  4  0
  3 25  4  0
  4 23  4  0
  4 27  1  0
  4 30  4  0
  5 17  1  0
  6  8  1  0
  6 29  1  0
  7 24  4  0
  7 26  4  0
  8 28  1  0
  9 13  2  0
 10 18  1  0
 10 21  4  0
 10 30  4  0
 11 17  2  0
 12 18  1  0
 13 15  1  0
 14 24  1  0
 15 25  1  0
 16 28  2  0
 17 20  1  0
 19 24  4  0
 20 23  1  0
 21 22  4  0
 22 23  4  0
 25 26  4  0
 27 29  2  0
M  END
$$$$

 Created by Python create_sdf_string function

 30 33  0  0  0  0  0  0  0  0999 V2000
    8.3036    9.8571   18.4133 C   0  0  0  0  0  0  0  0  0  0  0  0
    8.3694    7.6612   22.6703 C   0  0  0  0  0  0  0  0  0  0  0  0
    8.4143    6.6863   16.2273 C   0  0  0  0  0  0  0  0  0  0  0  0
   10.7581    6.5674   21.7636 C   0  0  0  0  0  0  0  0  0  0  0  0
    8.4452    8.7960   19.2958 O   0  0  0  0  0  0  0  0  0  0  0  0
    8.7122    6.7842   24.8569 C   0  0  0  0  0  0  0  0  0  0  0  0
   10.3400    6.1726   14.3081 C   0  0  0  0  0  0  0  0  0  0  0  0
    7.4297    7.5873   24.8962 C   0  0  0  0  0  0  0  0  0  0  0  0
    8.1566   10.0536   16.0516 O   0  0  0  0  0  0  0  0  0  0  0  0
   12.4989    6.2074   20.1776 C   0  0  0  0  0  0  0  0  0  0  0  0
    6.9192    9.1053   20.9073 O   0  0  0  0  0  0  0  0  0  0  0  0
   14.3979    6.0729   18.7784 C   0  0  0  0  0  0  0  0  0  0  0  0
    8.6811    9.5354   16.9998 C   0  0  0  0  0  0  0  0  0  0  0  0
    9.2512    4.2713   13.7653 O   0  0  0  0  0  0  0  0  0  0  0  0
    9.6495    8.6317   16.8332 N   0  0  0  0  0  0  0  0  0  0  0  0
    6.2934    8.6988   23.1988 O   0  0  0  0  0  0  0  0  0  0  0  0
    7.9806    8.6543   20.5437 C   0  0  0  0  0  0  0  0  0  0  0  0
   13.7270    5.7144   19.8610 O   0  0  0  0  0  0  0  0  0  0  0  0
    8.3351    5.5235   15.4478 C   0  0  0  0  0  0  0  0  0  0  0  0
    8.7700    7.8434   21.3915 C   0  0  0  0  0  0  0  0  0  0  0  0
   11.7856    6.8851   19.2401 C   0  0  0  0  0  0  0  0  0  0  0  0
   10.5281    7.4276   19.5649 C   0  0  0  0  0  0  0  0  0  0  0  0
   10.0256    7.2907   20.8484 C   0  0  0  0  0  0  0  0  0  0  0  0
    9.3113    5.3049   14.4911 C   0  0  0  0  0  0  0  0  0  0  0  0
    9.4607    7.5646   16.0139 C   0  0  0  0  0  0  0  0  0  0  0  0
   10.4192    7.3157   15.0955 C   0  0  0  0  0  0  0  0  0  0  0  0
   10.2489    6.4227   23.0218 N   0  0  0  0  0  0  0  0  0  0  0  0
    7.2472    8.0746   23.5050 C   0  0  0  0  0  0  0  0  0  0  0  0
    9.2051    6.9101   23.4604 C   0  0  0  0  0  0  0  0  0  0  0  0
   11.9646    6.0299   21.4251 C   0  0  0  0  0  0  0  0  0  0  0  0
  1  5  1  0
  1 13  1  0
  2 20  2  0
  2 28  1  0
  2 29  1  0
  3 19  4  0
  3 25  4  0
  4 23  4  0
  4 27  1  0
  4 30  4  0
  5 17  1  0
  6  8  1  0
  6 29  1  0
  7 24  4  0
  7 26  4  0
  8 28  1  0
  9 13  2  0
 10 18  1  0
 10 21  4  0
 10 30  4  0
 11 17  2  0
 12 18  1  0
 13 15  1  0
 14 24  1  0
 15 25  1  0
 16 28  2  0
 17 20  1  0
 19 24  4  0
 20 23  1  0
 21 22  4  0
 22 23  4  0
 25 26  4  0
 27 29  2  0
M  END
$$$$

 Created by Python create_sdf_string function

 30 33  0  0  0  0  0  0  0  0999 V2000
    8.3036    9.8571   18.4133 C   0  0  0  0  0  0  0  0  0  0  0  0
    8.3694    7.6612   22.6703 C   0  0  0  0  0  0  0  0  0  0  0  0
    8.4143    6.6863   16.2273 C   0  0  0  0  0  0  0  0  0  0  0  0
   10.7581    6.5674   21.7636 C   0  0  0  0  0  0  0  0  0  0  0  0
    8.4452    8.7960   19.2958 O   0  0  0  0  0  0  0  0  0  0  0  0
    8.7122    6.7842   24.8569 C   0  0  0  0  0  0  0  0  0  0  0  0
   10.3400    6.1726   14.3081 C   0  0  0  0  0  0  0  0  0  0  0  0
    7.4297    7.5873   24.8962 C   0  0  0  0  0  0  0  0  0  0  0  0
    8.1566   10.0536   16.0516 O   0  0  0  0  0  0  0  0  0  0  0  0
   12.4989    6.2074   20.1776 C   0  0  0  0  0  0  0  0  0  0  0  0
    6.9192    9.1053   20.9073 O   0  0  0  0  0  0  0  0  0  0  0  0
   14.3979    6.0729   18.7784 C   0  0  0  0  0  0  0  0  0  0  0  0
    8.6811    9.5354   16.9998 C   0  0  0  0  0  0  0  0  0  0  0  0
    9.2512    4.2713   13.7653 O   0  0  0  0  0  0  0  0  0  0  0  0
    9.6495    8.6317   16.8332 N   0  0  0  0  0  0  0  0  0  0  0  0
    6.2934    8.6988   23.1988 O   0  0  0  0  0  0  0  0  0  0  0  0
    7.9806    8.6543   20.5437 C   0  0  0  0  0  0  0  0  0  0  0  0
   13.7270    5.7144   19.8610 O   0  0  0  0  0  0  0  0  0  0  0  0
    8.3351    5.5235   15.4478 C   0  0  0  0  0  0  0  0  0  0  0  0
    8.7700    7.8434   21.3915 C   0  0  0  0  0  0  0  0  0  0  0  0
   11.7856    6.8851   19.2401 C   0  0  0  0  0  0  0  0  0  0  0  0
   10.5281    7.4276   19.5649 C   0  0  0  0  0  0  0  0  0  0  0  0
   10.0256    7.2907   20.8484 C   0  0  0  0  0  0  0  0  0  0  0  0
    9.3113    5.3049   14.4911 C   0  0  0  0  0  0  0  0  0  0  0  0
    9.4607    7.5646   16.0139 C   0  0  0  0  0  0  0  0  0  0  0  0
   10.4192    7.3157   15.0955 C   0  0  0  0  0  0  0  0  0  0  0  0
   10.2489    6.4227   23.0218 N   0  0  0  0  0  0  0  0  0  0  0  0
    7.2472    8.0746   23.5050 C   0  0  0  0  0  0  0  0  0  0  0  0
    9.2051    6.9101   23.4604 C   0  0  0  0  0  0  0  0  0  0  0  0
   11.9646    6.0299   21.4251 C   0  0  0  0  0  0  0  0  0  0  0  0
  1  5  1  0
  1 13  1  0
  2 20  2  0
  2 28  1  0
  2 29  1  0
  3 19  4  0
  3 25  4  0
  4 23  4  0
  4 27  1  0
  4 30  4  0
  5 17  1  0
  6  8  1  0
  6 29  1  0
  7 24  4  0
  7 26  4  0
  8 28  1  0
  9 13  2  0
 10 18  1  0
 10 21  4  0
 10 30  4  0
 11 17  2  0
 12 18  1  0
 13 15  1  0
 14 24  1  0
 15 25  1  0
 16 28  2  0
 17 20  1  0
 19 24  4  0
 20 23  1  0
 21 22  4  0
 22 23  4  0
 25 26  4  0
 27 29  2  0
M  END
$$$$

 Created by Python create_sdf_string function

 30 33  0  0  0  0  0  0  0  0999 V2000
    8.3036    9.8571   18.4133 C   0  0  0  0  0  0  0  0  0  0  0  0
    8.3694    7.6612   22.6703 C   0  0  0  0  0  0  0  0  0  0  0  0
    8.4143    6.6863   16.2273 C   0  0  0  0  0  0  0  0  0  0  0  0
   10.7581    6.5674   21.7636 C   0  0  0  0  0  0  0  0  0  0  0  0
    8.4452    8.7960   19.2958 O   0  0  0  0  0  0  0  0  0  0  0  0
    8.7122    6.7842   24.8569 C   0  0  0  0  0  0  0  0  0  0  0  0
   10.3400    6.1726   14.3081 C   0  0  0  0  0  0  0  0  0  0  0  0
    7.4297    7.5873   24.8962 C   0  0  0  0  0  0  0  0  0  0  0  0
    8.1566   10.0536   16.0516 O   0  0  0  0  0  0  0  0  0  0  0  0
   12.4989    6.2074   20.1776 C   0  0  0  0  0  0  0  0  0  0  0  0
    6.9192    9.1053   20.9073 O   0  0  0  0  0  0  0  0  0  0  0  0
   14.3979    6.0729   18.7784 C   0  0  0  0  0  0  0  0  0  0  0  0
    8.6811    9.5354   16.9998 C   0  0  0  0  0  0  0  0  0  0  0  0
    9.2512    4.2713   13.7653 O   0  0  0  0  0  0  0  0  0  0  0  0
    9.6495    8.6317   16.8332 N   0  0  0  0  0  0  0  0  0  0  0  0
    6.2934    8.6988   23.1988 O   0  0  0  0  0  0  0  0  0  0  0  0
    7.9806    8.6543   20.5437 C   0  0  0  0  0  0  0  0  0  0  0  0
   13.7270    5.7144   19.8610 O   0  0  0  0  0  0  0  0  0  0  0  0
    8.3351    5.5235   15.4478 C   0  0  0  0  0  0  0  0  0  0  0  0
    8.7700    7.8434   21.3915 C   0  0  0  0  0  0  0  0  0  0  0  0
   11.7856    6.8851   19.2401 C   0  0  0  0  0  0  0  0  0  0  0  0
   10.5281    7.4276   19.5649 C   0  0  0  0  0  0  0  0  0  0  0  0
   10.0256    7.2907   20.8484 C   0  0  0  0  0  0  0  0  0  0  0  0
    9.3113    5.3049   14.4911 C   0  0  0  0  0  0  0  0  0  0  0  0
    9.4607    7.5646   16.0139 C   0  0  0  0  0  0  0  0  0  0  0  0
   10.4192    7.3157   15.0955 C   0  0  0  0  0  0  0  0  0  0  0  0
   10.2489    6.4227   23.0218 N   0  0  0  0  0  0  0  0  0  0  0  0
    7.2472    8.0746   23.5050 C   0  0  0  0  0  0  0  0  0  0  0  0
    9.2051    6.9101   23.4604 C   0  0  0  0  0  0  0  0  0  0  0  0
   11.9646    6.0299   21.4251 C   0  0  0  0  0  0  0  0  0  0  0  0
  1  5  1  0
  1 13  1  0
  2 20  2  0
  2 28  1  0
  2 29  1  0
  3 19  4  0
  3 25  4  0
  4 23  4  0
  4 27  1  0
  4 30  4  0
  5 17  1  0
  6  8  1  0
  6 29  1  0
  7 24  4  0
  7 26  4  0
  8 28  1  0
  9 13  2  0
 10 18  1  0
 10 21  4  0
 10 30  4  0
 11 17  2  0
 12 18  1  0
 13 15  1  0
 14 24  1  0
 15 25  1  0
 16 28  2  0
 17 20  1  0
 19 24  4  0
 20 23  1  0
 21 22  4  0
 22 23  4  0
 25 26  4  0
 27 29  2  0
M  END
$$$$

 Created by Python create_sdf_string function

 30 33  0  0  0  0  0  0  0  0999 V2000
    8.3036    9.8571   18.4133 C   0  0  0  0  0  0  0  0  0  0  0  0
    8.3694    7.6612   22.6703 C   0  0  0  0  0  0  0  0  0  0  0  0
    8.4143    6.6863   16.2273 C   0  0  0  0  0  0  0  0  0  0  0  0
   10.7581    6.5674   21.7636 C   0  0  0  0  0  0  0  0  0  0  0  0
    8.4452    8.7960   19.2958 O   0  0  0  0  0  0  0  0  0  0  0  0
    8.7122    6.7842   24.8569 C   0  0  0  0  0  0  0  0  0  0  0  0
   10.3400    6.1726   14.3081 C   0  0  0  0  0  0  0  0  0  0  0  0
    7.4297    7.5873   24.8962 C   0  0  0  0  0  0  0  0  0  0  0  0
    8.1566   10.0536   16.0516 O   0  0  0  0  0  0  0  0  0  0  0  0
   12.4989    6.2074   20.1776 C   0  0  0  0  0  0  0  0  0  0  0  0
    6.9192    9.1053   20.9073 O   0  0  0  0  0  0  0  0  0  0  0  0
   14.3979    6.0729   18.7784 C   0  0  0  0  0  0  0  0  0  0  0  0
    8.6811    9.5354   16.9998 C   0  0  0  0  0  0  0  0  0  0  0  0
    9.2512    4.2713   13.7653 O   0  0  0  0  0  0  0  0  0  0  0  0
    9.6495    8.6317   16.8332 N   0  0  0  0  0  0  0  0  0  0  0  0
    6.2934    8.6988   23.1988 O   0  0  0  0  0  0  0  0  0  0  0  0
    7.9806    8.6543   20.5437 C   0  0  0  0  0  0  0  0  0  0  0  0
   13.7270    5.7144   19.8610 O   0  0  0  0  0  0  0  0  0  0  0  0
    8.3351    5.5235   15.4478 C   0  0  0  0  0  0  0  0  0  0  0  0
    8.7700    7.8434   21.3915 C   0  0  0  0  0  0  0  0  0  0  0  0
   11.7856    6.8851   19.2401 C   0  0  0  0  0  0  0  0  0  0  0  0
   10.5281    7.4276   19.5649 C   0  0  0  0  0  0  0  0  0  0  0  0
   10.0256    7.2907   20.8484 C   0  0  0  0  0  0  0  0  0  0  0  0
    9.3113    5.3049   14.4911 C   0  0  0  0  0  0  0  0  0  0  0  0
    9.4607    7.5646   16.0139 C   0  0  0  0  0  0  0  0  0  0  0  0
   10.4192    7.3157   15.0955 C   0  0  0  0  0  0  0  0  0  0  0  0
   10.2489    6.4227   23.0218 N   0  0  0  0  0  0  0  0  0  0  0  0
    7.2472    8.0746   23.5050 C   0  0  0  0  0  0  0  0  0  0  0  0
    9.2051    6.9101   23.4604 C   0  0  0  0  0  0  0  0  0  0  0  0
   11.9646    6.0299   21.4251 C   0  0  0  0  0  0  0  0  0  0  0  0
  1  5  1  0
  1 13  1  0
  2 20  2  0
  2 28  1  0
  2 29  1  0
  3 19  4  0
  3 25  4  0
  4 23  4  0
  4 27  1  0
  4 30  4  0
  5 17  1  0
  6  8  1  0
  6 29  1  0
  7 24  4  0
  7 26  4  0
  8 28  1  0
  9 13  2  0
 10 18  1  0
 10 21  4  0
 10 30  4  0
 11 17  2  0
 12 18  1  0
 13 15  1  0
 14 24  1  0
 15 25  1  0
 16 28  2  0
 17 20  1  0
 19 24  4  0
 20 23  1  0
 21 22  4  0
 22 23  4  0
 25 26  4  0
 27 29  2  0
M  END
$$$$

 Created by Python create_sdf_string function

 30 33  0  0  0  0  0  0  0  0999 V2000
    8.3036    9.8571   18.4133 C   0  0  0  0  0  0  0  0  0  0  0  0
    8.3694    7.6612   22.6703 C   0  0  0  0  0  0  0  0  0  0  0  0
    8.4143    6.6863   16.2273 C   0  0  0  0  0  0  0  0  0  0  0  0
   10.7581    6.5674   21.7636 C   0  0  0  0  0  0  0  0  0  0  0  0
    8.4452    8.7960   19.2958 O   0  0  0  0  0  0  0  0  0  0  0  0
    8.7122    6.7842   24.8569 C   0  0  0  0  0  0  0  0  0  0  0  0
   10.3400    6.1726   14.3081 C   0  0  0  0  0  0  0  0  0  0  0  0
    7.4297    7.5873   24.8962 C   0  0  0  0  0  0  0  0  0  0  0  0
    8.1566   10.0536   16.0516 O   0  0  0  0  0  0  0  0  0  0  0  0
   12.4989    6.2074   20.1776 C   0  0  0  0  0  0  0  0  0  0  0  0
    6.9192    9.1053   20.9073 O   0  0  0  0  0  0  0  0  0  0  0  0
   14.3979    6.0729   18.7784 C   0  0  0  0  0  0  0  0  0  0  0  0
    8.6811    9.5354   16.9998 C   0  0  0  0  0  0  0  0  0  0  0  0
    9.2512    4.2713   13.7653 O   0  0  0  0  0  0  0  0  0  0  0  0
    9.6495    8.6317   16.8332 N   0  0  0  0  0  0  0  0  0  0  0  0
    6.2934    8.6988   23.1988 O   0  0  0  0  0  0  0  0  0  0  0  0
    7.9806    8.6543   20.5437 C   0  0  0  0  0  0  0  0  0  0  0  0
   13.7270    5.7144   19.8610 O   0  0  0  0  0  0  0  0  0  0  0  0
    8.3351    5.5235   15.4478 C   0  0  0  0  0  0  0  0  0  0  0  0
    8.7700    7.8434   21.3915 C   0  0  0  0  0  0  0  0  0  0  0  0
   11.7856    6.8851   19.2401 C   0  0  0  0  0  0  0  0  0  0  0  0
   10.5281    7.4276   19.5649 C   0  0  0  0  0  0  0  0  0  0  0  0
   10.0256    7.2907   20.8484 C   0  0  0  0  0  0  0  0  0  0  0  0
    9.3113    5.3049   14.4911 C   0  0  0  0  0  0  0  0  0  0  0  0
    9.4607    7.5646   16.0139 C   0  0  0  0  0  0  0  0  0  0  0  0
   10.4192    7.3157   15.0955 C   0  0  0  0  0  0  0  0  0  0  0  0
   10.2489    6.4227   23.0218 N   0  0  0  0  0  0  0  0  0  0  0  0
    7.2472    8.0746   23.5050 C   0  0  0  0  0  0  0  0  0  0  0  0
    9.2051    6.9101   23.4604 C   0  0  0  0  0  0  0  0  0  0  0  0
   11.9646    6.0299   21.4251 C   0  0  0  0  0  0  0  0  0  0  0  0
  1  5  1  0
  1 13  1  0
  2 20  2  0
  2 28  1  0
  2 29  1  0
  3 19  4  0
  3 25  4  0
  4 23  4  0
  4 27  1  0
  4 30  4  0
  5 17  1  0
  6  8  1  0
  6 29  1  0
  7 24  4  0
  7 26  4  0
  8 28  1  0
  9 13  2  0
 10 18  1  0
 10 21  4  0
 10 30  4  0
 11 17  2  0
 12 18  1  0
 13 15  1  0
 14 24  1  0
 15 25  1  0
 16 28  2  0
 17 20  1  0
 19 24  4  0
 20 23  1  0
 21 22  4  0
 22 23  4  0
 25 26  4  0
 27 29  2  0
M  END
$$$$

 Created by Python create_sdf_string function

 30 33  0  0  0  0  0  0  0  0999 V2000
    8.3036    9.8571   18.4133 C   0  0  0  0  0  0  0  0  0  0  0  0
    8.3694    7.6612   22.6703 C   0  0  0  0  0  0  0  0  0  0  0  0
    8.4143    6.6863   16.2273 C   0  0  0  0  0  0  0  0  0  0  0  0
   10.7581    6.5674   21.7636 C   0  0  0  0  0  0  0  0  0  0  0  0
    8.4452    8.7960   19.2958 O   0  0  0  0  0  0  0  0  0  0  0  0
    8.7122    6.7842   24.8569 C   0  0  0  0  0  0  0  0  0  0  0  0
   10.3400    6.1726   14.3081 C   0  0  0  0  0  0  0  0  0  0  0  0
    7.4297    7.5873   24.8962 C   0  0  0  0  0  0  0  0  0  0  0  0
    8.1566   10.0536   16.0516 O   0  0  0  0  0  0  0  0  0  0  0  0
   12.4989    6.2074   20.1776 C   0  0  0  0  0  0  0  0  0  0  0  0
    6.9192    9.1053   20.9073 O   0  0  0  0  0  0  0  0  0  0  0  0
   14.3979    6.0729   18.7784 C   0  0  0  0  0  0  0  0  0  0  0  0
    8.6811    9.5354   16.9998 C   0  0  0  0  0  0  0  0  0  0  0  0
    9.2512    4.2713   13.7653 O   0  0  0  0  0  0  0  0  0  0  0  0
    9.6495    8.6317   16.8332 N   0  0  0  0  0  0  0  0  0  0  0  0
    6.2934    8.6988   23.1988 O   0  0  0  0  0  0  0  0  0  0  0  0
    7.9806    8.6543   20.5437 C   0  0  0  0  0  0  0  0  0  0  0  0
   13.7270    5.7144   19.8610 O   0  0  0  0  0  0  0  0  0  0  0  0
    8.3351    5.5235   15.4478 C   0  0  0  0  0  0  0  0  0  0  0  0
    8.7700    7.8434   21.3915 C   0  0  0  0  0  0  0  0  0  0  0  0
   11.7856    6.8851   19.2401 C   0  0  0  0  0  0  0  0  0  0  0  0
   10.5281    7.4276   19.5649 C   0  0  0  0  0  0  0  0  0  0  0  0
   10.0256    7.2907   20.8484 C   0  0  0  0  0  0  0  0  0  0  0  0
    9.3113    5.3049   14.4911 C   0  0  0  0  0  0  0  0  0  0  0  0
    9.4607    7.5646   16.0139 C   0  0  0  0  0  0  0  0  0  0  0  0
   10.4192    7.3157   15.0955 C   0  0  0  0  0  0  0  0  0  0  0  0
   10.2489    6.4227   23.0218 N   0  0  0  0  0  0  0  0  0  0  0  0
    7.2472    8.0746   23.5050 C   0  0  0  0  0  0  0  0  0  0  0  0
    9.2051    6.9101   23.4604 C   0  0  0  0  0  0  0  0  0  0  0  0
   11.9646    6.0299   21.4251 C   0  0  0  0  0  0  0  0  0  0  0  0
  1  5  1  0
  1 13  1  0
  2 20  2  0
  2 28  1  0
  2 29  1  0
  3 19  4  0
  3 25  4  0
  4 23  4  0
  4 27  1  0
  4 30  4  0
  5 17  1  0
  6  8  1  0
  6 29  1  0
  7 24  4  0
  7 26  4  0
  8 28  1  0
  9 13  2  0
 10 18  1  0
 10 21  4  0
 10 30  4  0
 11 17  2  0
 12 18  1  0
 13 15  1  0
 14 24  1  0
 15 25  1  0
 16 28  2  0
 17 20  1  0
 19 24  4  0
 20 23  1  0
 21 22  4  0
 22 23  4  0
 25 26  4  0
 27 29  2  0
M  END
$$$$

 Created by Python create_sdf_string function

 30 33  0  0  0  0  0  0  0  0999 V2000
    8.3036    9.8571   18.4133 C   0  0  0  0  0  0  0  0  0  0  0  0
    8.3694    7.6612   22.6703 C   0  0  0  0  0  0  0  0  0  0  0  0
    8.4143    6.6863   16.2273 C   0  0  0  0  0  0  0  0  0  0  0  0
   10.7581    6.5674   21.7636 C   0  0  0  0  0  0  0  0  0  0  0  0
    8.4452    8.7960   19.2958 O   0  0  0  0  0  0  0  0  0  0  0  0
    8.7122    6.7842   24.8569 C   0  0  0  0  0  0  0  0  0  0  0  0
   10.3400    6.1726   14.3081 C   0  0  0  0  0  0  0  0  0  0  0  0
    7.4297    7.5873   24.8962 C   0  0  0  0  0  0  0  0  0  0  0  0
    8.1566   10.0536   16.0516 O   0  0  0  0  0  0  0  0  0  0  0  0
   12.4989    6.2074   20.1776 C   0  0  0  0  0  0  0  0  0  0  0  0
    6.9192    9.1053   20.9073 O   0  0  0  0  0  0  0  0  0  0  0  0
   14.3979    6.0729   18.7784 C   0  0  0  0  0  0  0  0  0  0  0  0
    8.6811    9.5354   16.9998 C   0  0  0  0  0  0  0  0  0  0  0  0
    9.2512    4.2713   13.7653 O   0  0  0  0  0  0  0  0  0  0  0  0
    9.6495    8.6317   16.8332 N   0  0  0  0  0  0  0  0  0  0  0  0
    6.2934    8.6988   23.1988 O   0  0  0  0  0  0  0  0  0  0  0  0
    7.9806    8.6543   20.5437 C   0  0  0  0  0  0  0  0  0  0  0  0
   13.7270    5.7144   19.8610 O   0  0  0  0  0  0  0  0  0  0  0  0
    8.3351    5.5235   15.4478 C   0  0  0  0  0  0  0  0  0  0  0  0
    8.7700    7.8434   21.3915 C   0  0  0  0  0  0  0  0  0  0  0  0
   11.7856    6.8851   19.2401 C   0  0  0  0  0  0  0  0  0  0  0  0
   10.5281    7.4276   19.5649 C   0  0  0  0  0  0  0  0  0  0  0  0
   10.0256    7.2907   20.8484 C   0  0  0  0  0  0  0  0  0  0  0  0
    9.3113    5.3049   14.4911 C   0  0  0  0  0  0  0  0  0  0  0  0
    9.4607    7.5646   16.0139 C   0  0  0  0  0  0  0  0  0  0  0  0
   10.4192    7.3157   15.0955 C   0  0  0  0  0  0  0  0  0  0  0  0
   10.2489    6.4227   23.0218 N   0  0  0  0  0  0  0  0  0  0  0  0
    7.2472    8.0746   23.5050 C   0  0  0  0  0  0  0  0  0  0  0  0
    9.2051    6.9101   23.4604 C   0  0  0  0  0  0  0  0  0  0  0  0
   11.9646    6.0299   21.4251 C   0  0  0  0  0  0  0  0  0  0  0  0
  1  5  1  0
  1 13  1  0
  2 20  2  0
  2 28  1  0
  2 29  1  0
  3 19  4  0
  3 25  4  0
  4 23  4  0
  4 27  1  0
  4 30  4  0
  5 17  1  0
  6  8  1  0
  6 29  1  0
  7 24  4  0
  7 26  4  0
  8 28  1  0
  9 13  2  0
 10 18  1  0
 10 21  4  0
 10 30  4  0
 11 17  2  0
 12 18  1  0
 13 15  1  0
 14 24  1  0
 15 25  1  0
 16 28  2  0
 17 20  1  0
 19 24  4  0
 20 23  1  0
 21 22  4  0
 22 23  4  0
 25 26  4  0
 27 29  2  0
M  END
$$$$

 Created by Python create_sdf_string function

 30 33  0  0  0  0  0  0  0  0999 V2000
    8.3036    9.8571   18.4133 C   0  0  0  0  0  0  0  0  0  0  0  0
    8.3694    7.6612   22.6703 C   0  0  0  0  0  0  0  0  0  0  0  0
    8.4143    6.6863   16.2273 C   0  0  0  0  0  0  0  0  0  0  0  0
   10.7581    6.5674   21.7636 C   0  0  0  0  0  0  0  0  0  0  0  0
    8.4452    8.7960   19.2958 O   0  0  0  0  0  0  0  0  0  0  0  0
    8.7122    6.7842   24.8569 C   0  0  0  0  0  0  0  0  0  0  0  0
   10.3400    6.1726   14.3081 C   0  0  0  0  0  0  0  0  0  0  0  0
    7.4297    7.5873   24.8962 C   0  0  0  0  0  0  0  0  0  0  0  0
    8.1566   10.0536   16.0516 O   0  0  0  0  0  0  0  0  0  0  0  0
   12.4989    6.2074   20.1776 C   0  0  0  0  0  0  0  0  0  0  0  0
    6.9192    9.1053   20.9073 O   0  0  0  0  0  0  0  0  0  0  0  0
   14.3979    6.0729   18.7784 C   0  0  0  0  0  0  0  0  0  0  0  0
    8.6811    9.5354   16.9998 C   0  0  0  0  0  0  0  0  0  0  0  0
    9.2512    4.2713   13.7653 O   0  0  0  0  0  0  0  0  0  0  0  0
    9.6495    8.6317   16.8332 N   0  0  0  0  0  0  0  0  0  0  0  0
    6.2934    8.6988   23.1988 O   0  0  0  0  0  0  0  0  0  0  0  0
    7.9806    8.6543   20.5437 C   0  0  0  0  0  0  0  0  0  0  0  0
   13.7270    5.7144   19.8610 O   0  0  0  0  0  0  0  0  0  0  0  0
    8.3351    5.5235   15.4478 C   0  0  0  0  0  0  0  0  0  0  0  0
    8.7700    7.8434   21.3915 C   0  0  0  0  0  0  0  0  0  0  0  0
   11.7856    6.8851   19.2401 C   0  0  0  0  0  0  0  0  0  0  0  0
   10.5281    7.4276   19.5649 C   0  0  0  0  0  0  0  0  0  0  0  0
   10.0256    7.2907   20.8484 C   0  0  0  0  0  0  0  0  0  0  0  0
    9.3113    5.3049   14.4911 C   0  0  0  0  0  0  0  0  0  0  0  0
    9.4607    7.5646   16.0139 C   0  0  0  0  0  0  0  0  0  0  0  0
   10.4192    7.3157   15.0955 C   0  0  0  0  0  0  0  0  0  0  0  0
   10.2489    6.4227   23.0218 N   0  0  0  0  0  0  0  0  0  0  0  0
    7.2472    8.0746   23.5050 C   0  0  0  0  0  0  0  0  0  0  0  0
    9.2051    6.9101   23.4604 C   0  0  0  0  0  0  0  0  0  0  0  0
   11.9646    6.0299   21.4251 C   0  0  0  0  0  0  0  0  0  0  0  0
  1  5  1  0
  1 13  1  0
  2 20  2  0
  2 28  1  0
  2 29  1  0
  3 19  4  0
  3 25  4  0
  4 23  4  0
  4 27  1  0
  4 30  4  0
  5 17  1  0
  6  8  1  0
  6 29  1  0
  7 24  4  0
  7 26  4  0
  8 28  1  0
  9 13  2  0
 10 18  1  0
 10 21  4  0
 10 30  4  0
 11 17  2  0
 12 18  1  0
 13 15  1  0
 14 24  1  0
 15 25  1  0
 16 28  2  0
 17 20  1  0
 19 24  4  0
 20 23  1  0
 21 22  4  0
 22 23  4  0
 25 26  4  0
 27 29  2  0
M  END
$$$$

 Created by Python create_sdf_string function

 30 33  0  0  0  0  0  0  0  0999 V2000
    8.3036    9.8571   18.4133 C   0  0  0  0  0  0  0  0  0  0  0  0
    8.3694    7.6612   22.6703 C   0  0  0  0  0  0  0  0  0  0  0  0
    8.4143    6.6863   16.2273 C   0  0  0  0  0  0  0  0  0  0  0  0
   10.7581    6.5674   21.7636 C   0  0  0  0  0  0  0  0  0  0  0  0
    8.4452    8.7960   19.2958 O   0  0  0  0  0  0  0  0  0  0  0  0
    8.7122    6.7842   24.8569 C   0  0  0  0  0  0  0  0  0  0  0  0
   10.3400    6.1726   14.3081 C   0  0  0  0  0  0  0  0  0  0  0  0
    7.4297    7.5873   24.8962 C   0  0  0  0  0  0  0  0  0  0  0  0
    8.1566   10.0536   16.0516 O   0  0  0  0  0  0  0  0  0  0  0  0
   12.4989    6.2074   20.1776 C   0  0  0  0  0  0  0  0  0  0  0  0
    6.9192    9.1053   20.9073 O   0  0  0  0  0  0  0  0  0  0  0  0
   14.3979    6.0729   18.7784 C   0  0  0  0  0  0  0  0  0  0  0  0
    8.6811    9.5354   16.9998 C   0  0  0  0  0  0  0  0  0  0  0  0
    9.2512    4.2713   13.7653 O   0  0  0  0  0  0  0  0  0  0  0  0
    9.6495    8.6317   16.8332 N   0  0  0  0  0  0  0  0  0  0  0  0
    6.2934    8.6988   23.1988 O   0  0  0  0  0  0  0  0  0  0  0  0
    7.9806    8.6543   20.5437 C   0  0  0  0  0  0  0  0  0  0  0  0
   13.7270    5.7144   19.8610 O   0  0  0  0  0  0  0  0  0  0  0  0
    8.3351    5.5235   15.4478 C   0  0  0  0  0  0  0  0  0  0  0  0
    8.7700    7.8434   21.3915 C   0  0  0  0  0  0  0  0  0  0  0  0
   11.7856    6.8851   19.2401 C   0  0  0  0  0  0  0  0  0  0  0  0
   10.5281    7.4276   19.5649 C   0  0  0  0  0  0  0  0  0  0  0  0
   10.0256    7.2907   20.8484 C   0  0  0  0  0  0  0  0  0  0  0  0
    9.3113    5.3049   14.4911 C   0  0  0  0  0  0  0  0  0  0  0  0
    9.4607    7.5646   16.0139 C   0  0  0  0  0  0  0  0  0  0  0  0
   10.4192    7.3157   15.0955 C   0  0  0  0  0  0  0  0  0  0  0  0
   10.2489    6.4227   23.0218 N   0  0  0  0  0  0  0  0  0  0  0  0
    7.2472    8.0746   23.5050 C   0  0  0  0  0  0  0  0  0  0  0  0
    9.2051    6.9101   23.4604 C   0  0  0  0  0  0  0  0  0  0  0  0
   11.9646    6.0299   21.4251 C   0  0  0  0  0  0  0  0  0  0  0  0
  1  5  1  0
  1 13  1  0
  2 20  2  0
  2 28  1  0
  2 29  1  0
  3 19  4  0
  3 25  4  0
  4 23  4  0
  4 27  1  0
  4 30  4  0
  5 17  1  0
  6  8  1  0
  6 29  1  0
  7 24  4  0
  7 26  4  0
  8 28  1  0
  9 13  2  0
 10 18  1  0
 10 21  4  0
 10 30  4  0
 11 17  2  0
 12 18  1  0
 13 15  1  0
 14 24  1  0
 15 25  1  0
 16 28  2  0
 17 20  1  0
 19 24  4  0
 20 23  1  0
 21 22  4  0
 22 23  4  0
 25 26  4  0
 27 29  2  0
M  END
$$$$

 Created by Python create_sdf_string function

 30 33  0  0  0  0  0  0  0  0999 V2000
    8.3036    9.8571   18.4133 C   0  0  0  0  0  0  0  0  0  0  0  0
    8.3694    7.6612   22.6703 C   0  0  0  0  0  0  0  0  0  0  0  0
    8.4143    6.6863   16.2273 C   0  0  0  0  0  0  0  0  0  0  0  0
   10.7581    6.5674   21.7636 C   0  0  0  0  0  0  0  0  0  0  0  0
    8.4452    8.7960   19.2958 O   0  0  0  0  0  0  0  0  0  0  0  0
    8.7122    6.7842   24.8569 C   0  0  0  0  0  0  0  0  0  0  0  0
   10.3400    6.1726   14.3081 C   0  0  0  0  0  0  0  0  0  0  0  0
    7.4297    7.5873   24.8962 C   0  0  0  0  0  0  0  0  0  0  0  0
    8.1566   10.0536   16.0516 O   0  0  0  0  0  0  0  0  0  0  0  0
   12.4989    6.2074   20.1776 C   0  0  0  0  0  0  0  0  0  0  0  0
    6.9192    9.1053   20.9073 O   0  0  0  0  0  0  0  0  0  0  0  0
   14.3979    6.0729   18.7784 C   0  0  0  0  0  0  0  0  0  0  0  0
    8.6811    9.5354   16.9998 C   0  0  0  0  0  0  0  0  0  0  0  0
    9.2512    4.2713   13.7653 O   0  0  0  0  0  0  0  0  0  0  0  0
    9.6495    8.6317   16.8332 N   0  0  0  0  0  0  0  0  0  0  0  0
    6.2934    8.6988   23.1988 O   0  0  0  0  0  0  0  0  0  0  0  0
    7.9806    8.6543   20.5437 C   0  0  0  0  0  0  0  0  0  0  0  0
   13.7270    5.7144   19.8610 O   0  0  0  0  0  0  0  0  0  0  0  0
    8.3351    5.5235   15.4478 C   0  0  0  0  0  0  0  0  0  0  0  0
    8.7700    7.8434   21.3915 C   0  0  0  0  0  0  0  0  0  0  0  0
   11.7856    6.8851   19.2401 C   0  0  0  0  0  0  0  0  0  0  0  0
   10.5281    7.4276   19.5649 C   0  0  0  0  0  0  0  0  0  0  0  0
   10.0256    7.2907   20.8484 C   0  0  0  0  0  0  0  0  0  0  0  0
    9.3113    5.3049   14.4911 C   0  0  0  0  0  0  0  0  0  0  0  0
    9.4607    7.5646   16.0139 C   0  0  0  0  0  0  0  0  0  0  0  0
   10.4192    7.3157   15.0955 C   0  0  0  0  0  0  0  0  0  0  0  0
   10.2489    6.4227   23.0218 N   0  0  0  0  0  0  0  0  0  0  0  0
    7.2472    8.0746   23.5050 C   0  0  0  0  0  0  0  0  0  0  0  0
    9.2051    6.9101   23.4604 C   0  0  0  0  0  0  0  0  0  0  0  0
   11.9646    6.0299   21.4251 C   0  0  0  0  0  0  0  0  0  0  0  0
  1  5  1  0
  1 13  1  0
  2 20  2  0
  2 28  1  0
  2 29  1  0
  3 19  4  0
  3 25  4  0
  4 23  4  0
  4 27  1  0
  4 30  4  0
  5 17  1  0
  6  8  1  0
  6 29  1  0
  7 24  4  0
  7 26  4  0
  8 28  1  0
  9 13  2  0
 10 18  1  0
 10 21  4  0
 10 30  4  0
 11 17  2  0
 12 18  1  0
 13 15  1  0
 14 24  1  0
 15 25  1  0
 16 28  2  0
 17 20  1  0
 19 24  4  0
 20 23  1  0
 21 22  4  0
 22 23  4  0
 25 26  4  0
 27 29  2  0
M  END
$$$$

 Created by Python create_sdf_string function

 30 33  0  0  0  0  0  0  0  0999 V2000
    8.3036    9.8571   18.4133 C   0  0  0  0  0  0  0  0  0  0  0  0
    8.3694    7.6612   22.6703 C   0  0  0  0  0  0  0  0  0  0  0  0
    8.4143    6.6863   16.2273 C   0  0  0  0  0  0  0  0  0  0  0  0
   10.7581    6.5674   21.7636 C   0  0  0  0  0  0  0  0  0  0  0  0
    8.4452    8.7960   19.2958 O   0  0  0  0  0  0  0  0  0  0  0  0
    8.7122    6.7842   24.8569 C   0  0  0  0  0  0  0  0  0  0  0  0
   10.3400    6.1726   14.3081 C   0  0  0  0  0  0  0  0  0  0  0  0
    7.4297    7.5873   24.8962 C   0  0  0  0  0  0  0  0  0  0  0  0
    8.1566   10.0536   16.0516 O   0  0  0  0  0  0  0  0  0  0  0  0
   12.4989    6.2074   20.1776 C   0  0  0  0  0  0  0  0  0  0  0  0
    6.9192    9.1053   20.9073 O   0  0  0  0  0  0  0  0  0  0  0  0
   14.3979    6.0729   18.7784 C   0  0  0  0  0  0  0  0  0  0  0  0
    8.6811    9.5354   16.9998 C   0  0  0  0  0  0  0  0  0  0  0  0
    9.2512    4.2713   13.7653 O   0  0  0  0  0  0  0  0  0  0  0  0
    9.6495    8.6317   16.8332 N   0  0  0  0  0  0  0  0  0  0  0  0
    6.2934    8.6988   23.1988 O   0  0  0  0  0  0  0  0  0  0  0  0
    7.9806    8.6543   20.5437 C   0  0  0  0  0  0  0  0  0  0  0  0
   13.7270    5.7144   19.8610 O   0  0  0  0  0  0  0  0  0  0  0  0
    8.3351    5.5235   15.4478 C   0  0  0  0  0  0  0  0  0  0  0  0
    8.7700    7.8434   21.3915 C   0  0  0  0  0  0  0  0  0  0  0  0
   11.7856    6.8851   19.2401 C   0  0  0  0  0  0  0  0  0  0  0  0
   10.5281    7.4276   19.5649 C   0  0  0  0  0  0  0  0  0  0  0  0
   10.0256    7.2907   20.8484 C   0  0  0  0  0  0  0  0  0  0  0  0
    9.3113    5.3049   14.4911 C   0  0  0  0  0  0  0  0  0  0  0  0
    9.4607    7.5646   16.0139 C   0  0  0  0  0  0  0  0  0  0  0  0
   10.4192    7.3157   15.0955 C   0  0  0  0  0  0  0  0  0  0  0  0
   10.2489    6.4227   23.0218 N   0  0  0  0  0  0  0  0  0  0  0  0
    7.2472    8.0746   23.5050 C   0  0  0  0  0  0  0  0  0  0  0  0
    9.2051    6.9101   23.4604 C   0  0  0  0  0  0  0  0  0  0  0  0
   11.9646    6.0299   21.4251 C   0  0  0  0  0  0  0  0  0  0  0  0
  1  5  1  0
  1 13  1  0
  2 20  2  0
  2 28  1  0
  2 29  1  0
  3 19  4  0
  3 25  4  0
  4 23  4  0
  4 27  1  0
  4 30  4  0
  5 17  1  0
  6  8  1  0
  6 29  1  0
  7 24  4  0
  7 26  4  0
  8 28  1  0
  9 13  2  0
 10 18  1  0
 10 21  4  0
 10 30  4  0
 11 17  2  0
 12 18  1  0
 13 15  1  0
 14 24  1  0
 15 25  1  0
 16 28  2  0
 17 20  1  0
 19 24  4  0
 20 23  1  0
 21 22  4  0
 22 23  4  0
 25 26  4  0
 27 29  2  0
M  END
$$$$

 Created by Python create_sdf_string function

 30 33  0  0  0  0  0  0  0  0999 V2000
    8.3036    9.8571   18.4133 C   0  0  0  0  0  0  0  0  0  0  0  0
    8.3694    7.6612   22.6703 C   0  0  0  0  0  0  0  0  0  0  0  0
    8.4143    6.6863   16.2273 C   0  0  0  0  0  0  0  0  0  0  0  0
   10.7581    6.5674   21.7636 C   0  0  0  0  0  0  0  0  0  0  0  0
    8.4452    8.7960   19.2958 O   0  0  0  0  0  0  0  0  0  0  0  0
    8.7122    6.7842   24.8569 C   0  0  0  0  0  0  0  0  0  0  0  0
   10.3400    6.1726   14.3081 C   0  0  0  0  0  0  0  0  0  0  0  0
    7.4297    7.5873   24.8962 C   0  0  0  0  0  0  0  0  0  0  0  0
    8.1566   10.0536   16.0516 O   0  0  0  0  0  0  0  0  0  0  0  0
   12.4989    6.2074   20.1776 C   0  0  0  0  0  0  0  0  0  0  0  0
    6.9192    9.1053   20.9073 O   0  0  0  0  0  0  0  0  0  0  0  0
   14.3979    6.0729   18.7784 C   0  0  0  0  0  0  0  0  0  0  0  0
    8.6811    9.5354   16.9998 C   0  0  0  0  0  0  0  0  0  0  0  0
    9.2512    4.2713   13.7653 O   0  0  0  0  0  0  0  0  0  0  0  0
    9.6495    8.6317   16.8332 N   0  0  0  0  0  0  0  0  0  0  0  0
    6.2934    8.6988   23.1988 O   0  0  0  0  0  0  0  0  0  0  0  0
    7.9806    8.6543   20.5437 C   0  0  0  0  0  0  0  0  0  0  0  0
   13.7270    5.7144   19.8610 O   0  0  0  0  0  0  0  0  0  0  0  0
    8.3351    5.5235   15.4478 C   0  0  0  0  0  0  0  0  0  0  0  0
    8.7700    7.8434   21.3915 C   0  0  0  0  0  0  0  0  0  0  0  0
   11.7856    6.8851   19.2401 C   0  0  0  0  0  0  0  0  0  0  0  0
   10.5281    7.4276   19.5649 C   0  0  0  0  0  0  0  0  0  0  0  0
   10.0256    7.2907   20.8484 C   0  0  0  0  0  0  0  0  0  0  0  0
    9.3113    5.3049   14.4911 C   0  0  0  0  0  0  0  0  0  0  0  0
    9.4607    7.5646   16.0139 C   0  0  0  0  0  0  0  0  0  0  0  0
   10.4192    7.3157   15.0955 C   0  0  0  0  0  0  0  0  0  0  0  0
   10.2489    6.4227   23.0218 N   0  0  0  0  0  0  0  0  0  0  0  0
    7.2472    8.0746   23.5050 C   0  0  0  0  0  0  0  0  0  0  0  0
    9.2051    6.9101   23.4604 C   0  0  0  0  0  0  0  0  0  0  0  0
   11.9646    6.0299   21.4251 C   0  0  0  0  0  0  0  0  0  0  0  0
  1  5  1  0
  1 13  1  0
  2 20  2  0
  2 28  1  0
  2 29  1  0
  3 19  4  0
  3 25  4  0
  4 23  4  0
  4 27  1  0
  4 30  4  0
  5 17  1  0
  6  8  1  0
  6 29  1  0
  7 24  4  0
  7 26  4  0
  8 28  1  0
  9 13  2  0
 10 18  1  0
 10 21  4  0
 10 30  4  0
 11 17  2  0
 12 18  1  0
 13 15  1  0
 14 24  1  0
 15 25  1  0
 16 28  2  0
 17 20  1  0
 19 24  4  0
 20 23  1  0
 21 22  4  0
 22 23  4  0
 25 26  4  0
 27 29  2  0
M  END
$$$$

 Created by Python create_sdf_string function

 30 33  0  0  0  0  0  0  0  0999 V2000
    8.3036    9.8571   18.4133 C   0  0  0  0  0  0  0  0  0  0  0  0
    8.3694    7.6612   22.6703 C   0  0  0  0  0  0  0  0  0  0  0  0
    8.4143    6.6863   16.2273 C   0  0  0  0  0  0  0  0  0  0  0  0
   10.7581    6.5674   21.7636 C   0  0  0  0  0  0  0  0  0  0  0  0
    8.4452    8.7960   19.2958 O   0  0  0  0  0  0  0  0  0  0  0  0
    8.7122    6.7842   24.8569 C   0  0  0  0  0  0  0  0  0  0  0  0
   10.3400    6.1726   14.3081 C   0  0  0  0  0  0  0  0  0  0  0  0
    7.4297    7.5873   24.8962 C   0  0  0  0  0  0  0  0  0  0  0  0
    8.1566   10.0536   16.0516 O   0  0  0  0  0  0  0  0  0  0  0  0
   12.4989    6.2074   20.1776 C   0  0  0  0  0  0  0  0  0  0  0  0
    6.9192    9.1053   20.9073 O   0  0  0  0  0  0  0  0  0  0  0  0
   14.3979    6.0729   18.7784 C   0  0  0  0  0  0  0  0  0  0  0  0
    8.6811    9.5354   16.9998 C   0  0  0  0  0  0  0  0  0  0  0  0
    9.2512    4.2713   13.7653 O   0  0  0  0  0  0  0  0  0  0  0  0
    9.6495    8.6317   16.8332 N   0  0  0  0  0  0  0  0  0  0  0  0
    6.2934    8.6988   23.1988 O   0  0  0  0  0  0  0  0  0  0  0  0
    7.9806    8.6543   20.5437 C   0  0  0  0  0  0  0  0  0  0  0  0
   13.7270    5.7144   19.8610 O   0  0  0  0  0  0  0  0  0  0  0  0
    8.3351    5.5235   15.4478 C   0  0  0  0  0  0  0  0  0  0  0  0
    8.7700    7.8434   21.3915 C   0  0  0  0  0  0  0  0  0  0  0  0
   11.7856    6.8851   19.2401 C   0  0  0  0  0  0  0  0  0  0  0  0
   10.5281    7.4276   19.5649 C   0  0  0  0  0  0  0  0  0  0  0  0
   10.0256    7.2907   20.8484 C   0  0  0  0  0  0  0  0  0  0  0  0
    9.3113    5.3049   14.4911 C   0  0  0  0  0  0  0  0  0  0  0  0
    9.4607    7.5646   16.0139 C   0  0  0  0  0  0  0  0  0  0  0  0
   10.4192    7.3157   15.0955 C   0  0  0  0  0  0  0  0  0  0  0  0
   10.2489    6.4227   23.0218 N   0  0  0  0  0  0  0  0  0  0  0  0
    7.2472    8.0746   23.5050 C   0  0  0  0  0  0  0  0  0  0  0  0
    9.2051    6.9101   23.4604 C   0  0  0  0  0  0  0  0  0  0  0  0
   11.9646    6.0299   21.4251 C   0  0  0  0  0  0  0  0  0  0  0  0
  1  5  1  0
  1 13  1  0
  2 20  2  0
  2 28  1  0
  2 29  1  0
  3 19  4  0
  3 25  4  0
  4 23  4  0
  4 27  1  0
  4 30  4  0
  5 17  1  0
  6  8  1  0
  6 29  1  0
  7 24  4  0
  7 26  4  0
  8 28  1  0
  9 13  2  0
 10 18  1  0
 10 21  4  0
 10 30  4  0
 11 17  2  0
 12 18  1  0
 13 15  1  0
 14 24  1  0
 15 25  1  0
 16 28  2  0
 17 20  1  0
 19 24  4  0
 20 23  1  0
 21 22  4  0
 22 23  4  0
 25 26  4  0
 27 29  2  0
M  END
$$$$

 Created by Python create_sdf_string function

 30 33  0  0  0  0  0  0  0  0999 V2000
    8.3036    9.8571   18.4133 C   0  0  0  0  0  0  0  0  0  0  0  0
    8.3694    7.6612   22.6703 C   0  0  0  0  0  0  0  0  0  0  0  0
    8.4143    6.6863   16.2273 C   0  0  0  0  0  0  0  0  0  0  0  0
   10.7581    6.5674   21.7636 C   0  0  0  0  0  0  0  0  0  0  0  0
    8.4452    8.7960   19.2958 O   0  0  0  0  0  0  0  0  0  0  0  0
    8.7122    6.7842   24.8569 C   0  0  0  0  0  0  0  0  0  0  0  0
   10.3400    6.1726   14.3081 C   0  0  0  0  0  0  0  0  0  0  0  0
    7.4297    7.5873   24.8962 C   0  0  0  0  0  0  0  0  0  0  0  0
    8.1566   10.0536   16.0516 O   0  0  0  0  0  0  0  0  0  0  0  0
   12.4989    6.2074   20.1776 C   0  0  0  0  0  0  0  0  0  0  0  0
    6.9192    9.1053   20.9073 O   0  0  0  0  0  0  0  0  0  0  0  0
   14.3979    6.0729   18.7784 C   0  0  0  0  0  0  0  0  0  0  0  0
    8.6811    9.5354   16.9998 C   0  0  0  0  0  0  0  0  0  0  0  0
    9.2512    4.2713   13.7653 O   0  0  0  0  0  0  0  0  0  0  0  0
    9.6495    8.6317   16.8332 N   0  0  0  0  0  0  0  0  0  0  0  0
    6.2934    8.6988   23.1988 O   0  0  0  0  0  0  0  0  0  0  0  0
    7.9806    8.6543   20.5437 C   0  0  0  0  0  0  0  0  0  0  0  0
   13.7270    5.7144   19.8610 O   0  0  0  0  0  0  0  0  0  0  0  0
    8.3351    5.5235   15.4478 C   0  0  0  0  0  0  0  0  0  0  0  0
    8.7700    7.8434   21.3915 C   0  0  0  0  0  0  0  0  0  0  0  0
   11.7856    6.8851   19.2401 C   0  0  0  0  0  0  0  0  0  0  0  0
   10.5281    7.4276   19.5649 C   0  0  0  0  0  0  0  0  0  0  0  0
   10.0256    7.2907   20.8484 C   0  0  0  0  0  0  0  0  0  0  0  0
    9.3113    5.3049   14.4911 C   0  0  0  0  0  0  0  0  0  0  0  0
    9.4607    7.5646   16.0139 C   0  0  0  0  0  0  0  0  0  0  0  0
   10.4192    7.3157   15.0955 C   0  0  0  0  0  0  0  0  0  0  0  0
   10.2489    6.4227   23.0218 N   0  0  0  0  0  0  0  0  0  0  0  0
    7.2472    8.0746   23.5050 C   0  0  0  0  0  0  0  0  0  0  0  0
    9.2051    6.9101   23.4604 C   0  0  0  0  0  0  0  0  0  0  0  0
   11.9646    6.0299   21.4251 C   0  0  0  0  0  0  0  0  0  0  0  0
  1  5  1  0
  1 13  1  0
  2 20  2  0
  2 28  1  0
  2 29  1  0
  3 19  4  0
  3 25  4  0
  4 23  4  0
  4 27  1  0
  4 30  4  0
  5 17  1  0
  6  8  1  0
  6 29  1  0
  7 24  4  0
  7 26  4  0
  8 28  1  0
  9 13  2  0
 10 18  1  0
 10 21  4  0
 10 30  4  0
 11 17  2  0
 12 18  1  0
 13 15  1  0
 14 24  1  0
 15 25  1  0
 16 28  2  0
 17 20  1  0
 19 24  4  0
 20 23  1  0
 21 22  4  0
 22 23  4  0
 25 26  4  0
 27 29  2  0
M  END
$$$$

 Created by Python create_sdf_string function

 30 33  0  0  0  0  0  0  0  0999 V2000
    8.3036    9.8571   18.4133 C   0  0  0  0  0  0  0  0  0  0  0  0
    8.3694    7.6612   22.6703 C   0  0  0  0  0  0  0  0  0  0  0  0
    8.4143    6.6863   16.2273 C   0  0  0  0  0  0  0  0  0  0  0  0
   10.7581    6.5674   21.7636 C   0  0  0  0  0  0  0  0  0  0  0  0
    8.4452    8.7960   19.2958 O   0  0  0  0  0  0  0  0  0  0  0  0
    8.7122    6.7842   24.8569 C   0  0  0  0  0  0  0  0  0  0  0  0
   10.3400    6.1726   14.3081 C   0  0  0  0  0  0  0  0  0  0  0  0
    7.4297    7.5873   24.8962 C   0  0  0  0  0  0  0  0  0  0  0  0
    8.1566   10.0536   16.0516 O   0  0  0  0  0  0  0  0  0  0  0  0
   12.4989    6.2074   20.1776 C   0  0  0  0  0  0  0  0  0  0  0  0
    6.9192    9.1053   20.9073 O   0  0  0  0  0  0  0  0  0  0  0  0
   14.3979    6.0729   18.7784 C   0  0  0  0  0  0  0  0  0  0  0  0
    8.6811    9.5354   16.9998 C   0  0  0  0  0  0  0  0  0  0  0  0
    9.2512    4.2713   13.7653 O   0  0  0  0  0  0  0  0  0  0  0  0
    9.6495    8.6317   16.8332 N   0  0  0  0  0  0  0  0  0  0  0  0
    6.2934    8.6988   23.1988 O   0  0  0  0  0  0  0  0  0  0  0  0
    7.9806    8.6543   20.5437 C   0  0  0  0  0  0  0  0  0  0  0  0
   13.7270    5.7144   19.8610 O   0  0  0  0  0  0  0  0  0  0  0  0
    8.3351    5.5235   15.4478 C   0  0  0  0  0  0  0  0  0  0  0  0
    8.7700    7.8434   21.3915 C   0  0  0  0  0  0  0  0  0  0  0  0
   11.7856    6.8851   19.2401 C   0  0  0  0  0  0  0  0  0  0  0  0
   10.5281    7.4276   19.5649 C   0  0  0  0  0  0  0  0  0  0  0  0
   10.0256    7.2907   20.8484 C   0  0  0  0  0  0  0  0  0  0  0  0
    9.3113    5.3049   14.4911 C   0  0  0  0  0  0  0  0  0  0  0  0
    9.4607    7.5646   16.0139 C   0  0  0  0  0  0  0  0  0  0  0  0
   10.4192    7.3157   15.0955 C   0  0  0  0  0  0  0  0  0  0  0  0
   10.2489    6.4227   23.0218 N   0  0  0  0  0  0  0  0  0  0  0  0
    7.2472    8.0746   23.5050 C   0  0  0  0  0  0  0  0  0  0  0  0
    9.2051    6.9101   23.4604 C   0  0  0  0  0  0  0  0  0  0  0  0
   11.9646    6.0299   21.4251 C   0  0  0  0  0  0  0  0  0  0  0  0
  1  5  1  0
  1 13  1  0
  2 20  2  0
  2 28  1  0
  2 29  1  0
  3 19  4  0
  3 25  4  0
  4 23  4  0
  4 27  1  0
  4 30  4  0
  5 17  1  0
  6  8  1  0
  6 29  1  0
  7 24  4  0
  7 26  4  0
  8 28  1  0
  9 13  2  0
 10 18  1  0
 10 21  4  0
 10 30  4  0
 11 17  2  0
 12 18  1  0
 13 15  1  0
 14 24  1  0
 15 25  1  0
 16 28  2  0
 17 20  1  0
 19 24  4  0
 20 23  1  0
 21 22  4  0
 22 23  4  0
 25 26  4  0
 27 29  2  0
M  END
$$$$

 Created by Python create_sdf_string function

 30 33  0  0  0  0  0  0  0  0999 V2000
    8.3036    9.8571   18.4133 C   0  0  0  0  0  0  0  0  0  0  0  0
    8.3694    7.6612   22.6703 C   0  0  0  0  0  0  0  0  0  0  0  0
    8.4143    6.6863   16.2273 C   0  0  0  0  0  0  0  0  0  0  0  0
   10.7581    6.5674   21.7636 C   0  0  0  0  0  0  0  0  0  0  0  0
    8.4452    8.7960   19.2958 O   0  0  0  0  0  0  0  0  0  0  0  0
    8.7122    6.7842   24.8569 C   0  0  0  0  0  0  0  0  0  0  0  0
   10.3400    6.1726   14.3081 C   0  0  0  0  0  0  0  0  0  0  0  0
    7.4297    7.5873   24.8962 C   0  0  0  0  0  0  0  0  0  0  0  0
    8.1566   10.0536   16.0516 O   0  0  0  0  0  0  0  0  0  0  0  0
   12.4989    6.2074   20.1776 C   0  0  0  0  0  0  0  0  0  0  0  0
    6.9192    9.1053   20.9073 O   0  0  0  0  0  0  0  0  0  0  0  0
   14.3979    6.0729   18.7784 C   0  0  0  0  0  0  0  0  0  0  0  0
    8.6811    9.5354   16.9998 C   0  0  0  0  0  0  0  0  0  0  0  0
    9.2512    4.2713   13.7653 O   0  0  0  0  0  0  0  0  0  0  0  0
    9.6495    8.6317   16.8332 N   0  0  0  0  0  0  0  0  0  0  0  0
    6.2934    8.6988   23.1988 O   0  0  0  0  0  0  0  0  0  0  0  0
    7.9806    8.6543   20.5437 C   0  0  0  0  0  0  0  0  0  0  0  0
   13.7270    5.7144   19.8610 O   0  0  0  0  0  0  0  0  0  0  0  0
    8.3351    5.5235   15.4478 C   0  0  0  0  0  0  0  0  0  0  0  0
    8.7700    7.8434   21.3915 C   0  0  0  0  0  0  0  0  0  0  0  0
   11.7856    6.8851   19.2401 C   0  0  0  0  0  0  0  0  0  0  0  0
   10.5281    7.4276   19.5649 C   0  0  0  0  0  0  0  0  0  0  0  0
   10.0256    7.2907   20.8484 C   0  0  0  0  0  0  0  0  0  0  0  0
    9.3113    5.3049   14.4911 C   0  0  0  0  0  0  0  0  0  0  0  0
    9.4607    7.5646   16.0139 C   0  0  0  0  0  0  0  0  0  0  0  0
   10.4192    7.3157   15.0955 C   0  0  0  0  0  0  0  0  0  0  0  0
   10.2489    6.4227   23.0218 N   0  0  0  0  0  0  0  0  0  0  0  0
    7.2472    8.0746   23.5050 C   0  0  0  0  0  0  0  0  0  0  0  0
    9.2051    6.9101   23.4604 C   0  0  0  0  0  0  0  0  0  0  0  0
   11.9646    6.0299   21.4251 C   0  0  0  0  0  0  0  0  0  0  0  0
  1  5  1  0
  1 13  1  0
  2 20  2  0
  2 28  1  0
  2 29  1  0
  3 19  4  0
  3 25  4  0
  4 23  4  0
  4 27  1  0
  4 30  4  0
  5 17  1  0
  6  8  1  0
  6 29  1  0
  7 24  4  0
  7 26  4  0
  8 28  1  0
  9 13  2  0
 10 18  1  0
 10 21  4  0
 10 30  4  0
 11 17  2  0
 12 18  1  0
 13 15  1  0
 14 24  1  0
 15 25  1  0
 16 28  2  0
 17 20  1  0
 19 24  4  0
 20 23  1  0
 21 22  4  0
 22 23  4  0
 25 26  4  0
 27 29  2  0
M  END
$$$$

 Created by Python create_sdf_string function

 30 33  0  0  0  0  0  0  0  0999 V2000
    8.3036    9.8571   18.4133 C   0  0  0  0  0  0  0  0  0  0  0  0
    8.3694    7.6612   22.6703 C   0  0  0  0  0  0  0  0  0  0  0  0
    8.4143    6.6863   16.2273 C   0  0  0  0  0  0  0  0  0  0  0  0
   10.7581    6.5674   21.7636 C   0  0  0  0  0  0  0  0  0  0  0  0
    8.4452    8.7960   19.2958 O   0  0  0  0  0  0  0  0  0  0  0  0
    8.7122    6.7842   24.8569 C   0  0  0  0  0  0  0  0  0  0  0  0
   10.3400    6.1726   14.3081 C   0  0  0  0  0  0  0  0  0  0  0  0
    7.4297    7.5873   24.8962 C   0  0  0  0  0  0  0  0  0  0  0  0
    8.1566   10.0536   16.0516 O   0  0  0  0  0  0  0  0  0  0  0  0
   12.4989    6.2074   20.1776 C   0  0  0  0  0  0  0  0  0  0  0  0
    6.9192    9.1053   20.9073 O   0  0  0  0  0  0  0  0  0  0  0  0
   14.3979    6.0729   18.7784 C   0  0  0  0  0  0  0  0  0  0  0  0
    8.6811    9.5354   16.9998 C   0  0  0  0  0  0  0  0  0  0  0  0
    9.2512    4.2713   13.7653 O   0  0  0  0  0  0  0  0  0  0  0  0
    9.6495    8.6317   16.8332 N   0  0  0  0  0  0  0  0  0  0  0  0
    6.2934    8.6988   23.1988 O   0  0  0  0  0  0  0  0  0  0  0  0
    7.9806    8.6543   20.5437 C   0  0  0  0  0  0  0  0  0  0  0  0
   13.7270    5.7144   19.8610 O   0  0  0  0  0  0  0  0  0  0  0  0
    8.3351    5.5235   15.4478 C   0  0  0  0  0  0  0  0  0  0  0  0
    8.7700    7.8434   21.3915 C   0  0  0  0  0  0  0  0  0  0  0  0
   11.7856    6.8851   19.2401 C   0  0  0  0  0  0  0  0  0  0  0  0
   10.5281    7.4276   19.5649 C   0  0  0  0  0  0  0  0  0  0  0  0
   10.0256    7.2907   20.8484 C   0  0  0  0  0  0  0  0  0  0  0  0
    9.3113    5.3049   14.4911 C   0  0  0  0  0  0  0  0  0  0  0  0
    9.4607    7.5646   16.0139 C   0  0  0  0  0  0  0  0  0  0  0  0
   10.4192    7.3157   15.0955 C   0  0  0  0  0  0  0  0  0  0  0  0
   10.2489    6.4227   23.0218 N   0  0  0  0  0  0  0  0  0  0  0  0
    7.2472    8.0746   23.5050 C   0  0  0  0  0  0  0  0  0  0  0  0
    9.2051    6.9101   23.4604 C   0  0  0  0  0  0  0  0  0  0  0  0
   11.9646    6.0299   21.4251 C   0  0  0  0  0  0  0  0  0  0  0  0
  1  5  1  0
  1 13  1  0
  2 20  2  0
  2 28  1  0
  2 29  1  0
  3 19  4  0
  3 25  4  0
  4 23  4  0
  4 27  1  0
  4 30  4  0
  5 17  1  0
  6  8  1  0
  6 29  1  0
  7 24  4  0
  7 26  4  0
  8 28  1  0
  9 13  2  0
 10 18  1  0
 10 21  4  0
 10 30  4  0
 11 17  2  0
 12 18  1  0
 13 15  1  0
 14 24  1  0
 15 25  1  0
 16 28  2  0
 17 20  1  0
 19 24  4  0
 20 23  1  0
 21 22  4  0
 22 23  4  0
 25 26  4  0
 27 29  2  0
M  END
$$$$

 Created by Python create_sdf_string function

 30 33  0  0  0  0  0  0  0  0999 V2000
    8.3036    9.8571   18.4133 C   0  0  0  0  0  0  0  0  0  0  0  0
    8.3694    7.6612   22.6703 C   0  0  0  0  0  0  0  0  0  0  0  0
    8.4143    6.6863   16.2273 C   0  0  0  0  0  0  0  0  0  0  0  0
   10.7581    6.5674   21.7636 C   0  0  0  0  0  0  0  0  0  0  0  0
    8.4452    8.7960   19.2958 O   0  0  0  0  0  0  0  0  0  0  0  0
    8.7122    6.7842   24.8569 C   0  0  0  0  0  0  0  0  0  0  0  0
   10.3400    6.1726   14.3081 C   0  0  0  0  0  0  0  0  0  0  0  0
    7.4297    7.5873   24.8962 C   0  0  0  0  0  0  0  0  0  0  0  0
    8.1566   10.0536   16.0516 O   0  0  0  0  0  0  0  0  0  0  0  0
   12.4989    6.2074   20.1776 C   0  0  0  0  0  0  0  0  0  0  0  0
    6.9192    9.1053   20.9073 O   0  0  0  0  0  0  0  0  0  0  0  0
   14.3979    6.0729   18.7784 C   0  0  0  0  0  0  0  0  0  0  0  0
    8.6811    9.5354   16.9998 C   0  0  0  0  0  0  0  0  0  0  0  0
    9.2512    4.2713   13.7653 O   0  0  0  0  0  0  0  0  0  0  0  0
    9.6495    8.6317   16.8332 N   0  0  0  0  0  0  0  0  0  0  0  0
    6.2934    8.6988   23.1988 O   0  0  0  0  0  0  0  0  0  0  0  0
    7.9806    8.6543   20.5437 C   0  0  0  0  0  0  0  0  0  0  0  0
   13.7270    5.7144   19.8610 O   0  0  0  0  0  0  0  0  0  0  0  0
    8.3351    5.5235   15.4478 C   0  0  0  0  0  0  0  0  0  0  0  0
    8.7700    7.8434   21.3915 C   0  0  0  0  0  0  0  0  0  0  0  0
   11.7856    6.8851   19.2401 C   0  0  0  0  0  0  0  0  0  0  0  0
   10.5281    7.4276   19.5649 C   0  0  0  0  0  0  0  0  0  0  0  0
   10.0256    7.2907   20.8484 C   0  0  0  0  0  0  0  0  0  0  0  0
    9.3113    5.3049   14.4911 C   0  0  0  0  0  0  0  0  0  0  0  0
    9.4607    7.5646   16.0139 C   0  0  0  0  0  0  0  0  0  0  0  0
   10.4192    7.3157   15.0955 C   0  0  0  0  0  0  0  0  0  0  0  0
   10.2489    6.4227   23.0218 N   0  0  0  0  0  0  0  0  0  0  0  0
    7.2472    8.0746   23.5050 C   0  0  0  0  0  0  0  0  0  0  0  0
    9.2051    6.9101   23.4604 C   0  0  0  0  0  0  0  0  0  0  0  0
   11.9646    6.0299   21.4251 C   0  0  0  0  0  0  0  0  0  0  0  0
  1  5  1  0
  1 13  1  0
  2 20  2  0
  2 28  1  0
  2 29  1  0
  3 19  4  0
  3 25  4  0
  4 23  4  0
  4 27  1  0
  4 30  4  0
  5 17  1  0
  6  8  1  0
  6 29  1  0
  7 24  4  0
  7 26  4  0
  8 28  1  0
  9 13  2  0
 10 18  1  0
 10 21  4  0
 10 30  4  0
 11 17  2  0
 12 18  1  0
 13 15  1  0
 14 24  1  0
 15 25  1  0
 16 28  2  0
 17 20  1  0
 19 24  4  0
 20 23  1  0
 21 22  4  0
 22 23  4  0
 25 26  4  0
 27 29  2  0
M  END
$$$$

 Created by Python create_sdf_string function

 30 33  0  0  0  0  0  0  0  0999 V2000
    8.3036    9.8571   18.4133 C   0  0  0  0  0  0  0  0  0  0  0  0
    8.3694    7.6612   22.6703 C   0  0  0  0  0  0  0  0  0  0  0  0
    8.4143    6.6863   16.2273 C   0  0  0  0  0  0  0  0  0  0  0  0
   10.7581    6.5674   21.7636 C   0  0  0  0  0  0  0  0  0  0  0  0
    8.4452    8.7960   19.2958 O   0  0  0  0  0  0  0  0  0  0  0  0
    8.7122    6.7842   24.8569 C   0  0  0  0  0  0  0  0  0  0  0  0
   10.3400    6.1726   14.3081 C   0  0  0  0  0  0  0  0  0  0  0  0
    7.4297    7.5873   24.8962 C   0  0  0  0  0  0  0  0  0  0  0  0
    8.1566   10.0536   16.0516 O   0  0  0  0  0  0  0  0  0  0  0  0
   12.4989    6.2074   20.1776 C   0  0  0  0  0  0  0  0  0  0  0  0
    6.9192    9.1053   20.9073 O   0  0  0  0  0  0  0  0  0  0  0  0
   14.3979    6.0729   18.7784 C   0  0  0  0  0  0  0  0  0  0  0  0
    8.6811    9.5354   16.9998 C   0  0  0  0  0  0  0  0  0  0  0  0
    9.2512    4.2713   13.7653 O   0  0  0  0  0  0  0  0  0  0  0  0
    9.6495    8.6317   16.8332 N   0  0  0  0  0  0  0  0  0  0  0  0
    6.2934    8.6988   23.1988 O   0  0  0  0  0  0  0  0  0  0  0  0
    7.9806    8.6543   20.5437 C   0  0  0  0  0  0  0  0  0  0  0  0
   13.7270    5.7144   19.8610 O   0  0  0  0  0  0  0  0  0  0  0  0
    8.3351    5.5235   15.4478 C   0  0  0  0  0  0  0  0  0  0  0  0
    8.7700    7.8434   21.3915 C   0  0  0  0  0  0  0  0  0  0  0  0
   11.7856    6.8851   19.2401 C   0  0  0  0  0  0  0  0  0  0  0  0
   10.5281    7.4276   19.5649 C   0  0  0  0  0  0  0  0  0  0  0  0
   10.0256    7.2907   20.8484 C   0  0  0  0  0  0  0  0  0  0  0  0
    9.3113    5.3049   14.4911 C   0  0  0  0  0  0  0  0  0  0  0  0
    9.4607    7.5646   16.0139 C   0  0  0  0  0  0  0  0  0  0  0  0
   10.4192    7.3157   15.0955 C   0  0  0  0  0  0  0  0  0  0  0  0
   10.2489    6.4227   23.0218 N   0  0  0  0  0  0  0  0  0  0  0  0
    7.2472    8.0746   23.5050 C   0  0  0  0  0  0  0  0  0  0  0  0
    9.2051    6.9101   23.4604 C   0  0  0  0  0  0  0  0  0  0  0  0
   11.9646    6.0299   21.4251 C   0  0  0  0  0  0  0  0  0  0  0  0
  1  5  1  0
  1 13  1  0
  2 20  2  0
  2 28  1  0
  2 29  1  0
  3 19  4  0
  3 25  4  0
  4 23  4  0
  4 27  1  0
  4 30  4  0
  5 17  1  0
  6  8  1  0
  6 29  1  0
  7 24  4  0
  7 26  4  0
  8 28  1  0
  9 13  2  0
 10 18  1  0
 10 21  4  0
 10 30  4  0
 11 17  2  0
 12 18  1  0
 13 15  1  0
 14 24  1  0
 15 25  1  0
 16 28  2  0
 17 20  1  0
 19 24  4  0
 20 23  1  0
 21 22  4  0
 22 23  4  0
 25 26  4  0
 27 29  2  0
M  END
$$$$

 Created by Python create_sdf_string function

 30 33  0  0  0  0  0  0  0  0999 V2000
    8.3036    9.8571   18.4133 C   0  0  0  0  0  0  0  0  0  0  0  0
    8.3694    7.6612   22.6703 C   0  0  0  0  0  0  0  0  0  0  0  0
    8.4143    6.6863   16.2273 C   0  0  0  0  0  0  0  0  0  0  0  0
   10.7581    6.5674   21.7636 C   0  0  0  0  0  0  0  0  0  0  0  0
    8.4452    8.7960   19.2958 O   0  0  0  0  0  0  0  0  0  0  0  0
    8.7122    6.7842   24.8569 C   0  0  0  0  0  0  0  0  0  0  0  0
   10.3400    6.1726   14.3081 C   0  0  0  0  0  0  0  0  0  0  0  0
    7.4297    7.5873   24.8962 C   0  0  0  0  0  0  0  0  0  0  0  0
    8.1566   10.0536   16.0516 O   0  0  0  0  0  0  0  0  0  0  0  0
   12.4989    6.2074   20.1776 C   0  0  0  0  0  0  0  0  0  0  0  0
    6.9192    9.1053   20.9073 O   0  0  0  0  0  0  0  0  0  0  0  0
   14.3979    6.0729   18.7784 C   0  0  0  0  0  0  0  0  0  0  0  0
    8.6811    9.5354   16.9998 C   0  0  0  0  0  0  0  0  0  0  0  0
    9.2512    4.2713   13.7653 O   0  0  0  0  0  0  0  0  0  0  0  0
    9.6495    8.6317   16.8332 N   0  0  0  0  0  0  0  0  0  0  0  0
    6.2934    8.6988   23.1988 O   0  0  0  0  0  0  0  0  0  0  0  0
    7.9806    8.6543   20.5437 C   0  0  0  0  0  0  0  0  0  0  0  0
   13.7270    5.7144   19.8610 O   0  0  0  0  0  0  0  0  0  0  0  0
    8.3351    5.5235   15.4478 C   0  0  0  0  0  0  0  0  0  0  0  0
    8.7700    7.8434   21.3915 C   0  0  0  0  0  0  0  0  0  0  0  0
   11.7856    6.8851   19.2401 C   0  0  0  0  0  0  0  0  0  0  0  0
   10.5281    7.4276   19.5649 C   0  0  0  0  0  0  0  0  0  0  0  0
   10.0256    7.2907   20.8484 C   0  0  0  0  0  0  0  0  0  0  0  0
    9.3113    5.3049   14.4911 C   0  0  0  0  0  0  0  0  0  0  0  0
    9.4607    7.5646   16.0139 C   0  0  0  0  0  0  0  0  0  0  0  0
   10.4192    7.3157   15.0955 C   0  0  0  0  0  0  0  0  0  0  0  0
   10.2489    6.4227   23.0218 N   0  0  0  0  0  0  0  0  0  0  0  0
    7.2472    8.0746   23.5050 C   0  0  0  0  0  0  0  0  0  0  0  0
    9.2051    6.9101   23.4604 C   0  0  0  0  0  0  0  0  0  0  0  0
   11.9646    6.0299   21.4251 C   0  0  0  0  0  0  0  0  0  0  0  0
  1  5  1  0
  1 13  1  0
  2 20  2  0
  2 28  1  0
  2 29  1  0
  3 19  4  0
  3 25  4  0
  4 23  4  0
  4 27  1  0
  4 30  4  0
  5 17  1  0
  6  8  1  0
  6 29  1  0
  7 24  4  0
  7 26  4  0
  8 28  1  0
  9 13  2  0
 10 18  1  0
 10 21  4  0
 10 30  4  0
 11 17  2  0
 12 18  1  0
 13 15  1  0
 14 24  1  0
 15 25  1  0
 16 28  2  0
 17 20  1  0
 19 24  4  0
 20 23  1  0
 21 22  4  0
 22 23  4  0
 25 26  4  0
 27 29  2  0
M  END
$$$$

 Created by Python create_sdf_string function

 30 33  0  0  0  0  0  0  0  0999 V2000
    8.3036    9.8571   18.4133 C   0  0  0  0  0  0  0  0  0  0  0  0
    8.3694    7.6612   22.6703 C   0  0  0  0  0  0  0  0  0  0  0  0
    8.4143    6.6863   16.2273 C   0  0  0  0  0  0  0  0  0  0  0  0
   10.7581    6.5674   21.7636 C   0  0  0  0  0  0  0  0  0  0  0  0
    8.4452    8.7960   19.2958 O   0  0  0  0  0  0  0  0  0  0  0  0
    8.7122    6.7842   24.8569 C   0  0  0  0  0  0  0  0  0  0  0  0
   10.3400    6.1726   14.3081 C   0  0  0  0  0  0  0  0  0  0  0  0
    7.4297    7.5873   24.8962 C   0  0  0  0  0  0  0  0  0  0  0  0
    8.1566   10.0536   16.0516 O   0  0  0  0  0  0  0  0  0  0  0  0
   12.4989    6.2074   20.1776 C   0  0  0  0  0  0  0  0  0  0  0  0
    6.9192    9.1053   20.9073 O   0  0  0  0  0  0  0  0  0  0  0  0
   14.3979    6.0729   18.7784 C   0  0  0  0  0  0  0  0  0  0  0  0
    8.6811    9.5354   16.9998 C   0  0  0  0  0  0  0  0  0  0  0  0
    9.2512    4.2713   13.7653 O   0  0  0  0  0  0  0  0  0  0  0  0
    9.6495    8.6317   16.8332 N   0  0  0  0  0  0  0  0  0  0  0  0
    6.2934    8.6988   23.1988 O   0  0  0  0  0  0  0  0  0  0  0  0
    7.9806    8.6543   20.5437 C   0  0  0  0  0  0  0  0  0  0  0  0
   13.7270    5.7144   19.8610 O   0  0  0  0  0  0  0  0  0  0  0  0
    8.3351    5.5235   15.4478 C   0  0  0  0  0  0  0  0  0  0  0  0
    8.7700    7.8434   21.3915 C   0  0  0  0  0  0  0  0  0  0  0  0
   11.7856    6.8851   19.2401 C   0  0  0  0  0  0  0  0  0  0  0  0
   10.5281    7.4276   19.5649 C   0  0  0  0  0  0  0  0  0  0  0  0
   10.0256    7.2907   20.8484 C   0  0  0  0  0  0  0  0  0  0  0  0
    9.3113    5.3049   14.4911 C   0  0  0  0  0  0  0  0  0  0  0  0
    9.4607    7.5646   16.0139 C   0  0  0  0  0  0  0  0  0  0  0  0
   10.4192    7.3157   15.0955 C   0  0  0  0  0  0  0  0  0  0  0  0
   10.2489    6.4227   23.0218 N   0  0  0  0  0  0  0  0  0  0  0  0
    7.2472    8.0746   23.5050 C   0  0  0  0  0  0  0  0  0  0  0  0
    9.2051    6.9101   23.4604 C   0  0  0  0  0  0  0  0  0  0  0  0
   11.9646    6.0299   21.4251 C   0  0  0  0  0  0  0  0  0  0  0  0
  1  5  1  0
  1 13  1  0
  2 20  2  0
  2 28  1  0
  2 29  1  0
  3 19  4  0
  3 25  4  0
  4 23  4  0
  4 27  1  0
  4 30  4  0
  5 17  1  0
  6  8  1  0
  6 29  1  0
  7 24  4  0
  7 26  4  0
  8 28  1  0
  9 13  2  0
 10 18  1  0
 10 21  4  0
 10 30  4  0
 11 17  2  0
 12 18  1  0
 13 15  1  0
 14 24  1  0
 15 25  1  0
 16 28  2  0
 17 20  1  0
 19 24  4  0
 20 23  1  0
 21 22  4  0
 22 23  4  0
 25 26  4  0
 27 29  2  0
M  END
$$$$

 Created by Python create_sdf_string function

 30 33  0  0  0  0  0  0  0  0999 V2000
    8.3036    9.8571   18.4133 C   0  0  0  0  0  0  0  0  0  0  0  0
    8.3694    7.6612   22.6703 C   0  0  0  0  0  0  0  0  0  0  0  0
    8.4143    6.6863   16.2273 C   0  0  0  0  0  0  0  0  0  0  0  0
   10.7581    6.5674   21.7636 C   0  0  0  0  0  0  0  0  0  0  0  0
    8.4452    8.7960   19.2958 O   0  0  0  0  0  0  0  0  0  0  0  0
    8.7122    6.7842   24.8569 C   0  0  0  0  0  0  0  0  0  0  0  0
   10.3400    6.1726   14.3081 C   0  0  0  0  0  0  0  0  0  0  0  0
    7.4297    7.5873   24.8962 C   0  0  0  0  0  0  0  0  0  0  0  0
    8.1566   10.0536   16.0516 O   0  0  0  0  0  0  0  0  0  0  0  0
   12.4989    6.2074   20.1776 C   0  0  0  0  0  0  0  0  0  0  0  0
    6.9192    9.1053   20.9073 O   0  0  0  0  0  0  0  0  0  0  0  0
   14.3979    6.0729   18.7784 C   0  0  0  0  0  0  0  0  0  0  0  0
    8.6811    9.5354   16.9998 C   0  0  0  0  0  0  0  0  0  0  0  0
    9.2512    4.2713   13.7653 O   0  0  0  0  0  0  0  0  0  0  0  0
    9.6495    8.6317   16.8332 N   0  0  0  0  0  0  0  0  0  0  0  0
    6.2934    8.6988   23.1988 O   0  0  0  0  0  0  0  0  0  0  0  0
    7.9806    8.6543   20.5437 C   0  0  0  0  0  0  0  0  0  0  0  0
   13.7270    5.7144   19.8610 O   0  0  0  0  0  0  0  0  0  0  0  0
    8.3351    5.5235   15.4478 C   0  0  0  0  0  0  0  0  0  0  0  0
    8.7700    7.8434   21.3915 C   0  0  0  0  0  0  0  0  0  0  0  0
   11.7856    6.8851   19.2401 C   0  0  0  0  0  0  0  0  0  0  0  0
   10.5281    7.4276   19.5649 C   0  0  0  0  0  0  0  0  0  0  0  0
   10.0256    7.2907   20.8484 C   0  0  0  0  0  0  0  0  0  0  0  0
    9.3113    5.3049   14.4911 C   0  0  0  0  0  0  0  0  0  0  0  0
    9.4607    7.5646   16.0139 C   0  0  0  0  0  0  0  0  0  0  0  0
   10.4192    7.3157   15.0955 C   0  0  0  0  0  0  0  0  0  0  0  0
   10.2489    6.4227   23.0218 N   0  0  0  0  0  0  0  0  0  0  0  0
    7.2472    8.0746   23.5050 C   0  0  0  0  0  0  0  0  0  0  0  0
    9.2051    6.9101   23.4604 C   0  0  0  0  0  0  0  0  0  0  0  0
   11.9646    6.0299   21.4251 C   0  0  0  0  0  0  0  0  0  0  0  0
  1  5  1  0
  1 13  1  0
  2 20  2  0
  2 28  1  0
  2 29  1  0
  3 19  4  0
  3 25  4  0
  4 23  4  0
  4 27  1  0
  4 30  4  0
  5 17  1  0
  6  8  1  0
  6 29  1  0
  7 24  4  0
  7 26  4  0
  8 28  1  0
  9 13  2  0
 10 18  1  0
 10 21  4  0
 10 30  4  0
 11 17  2  0
 12 18  1  0
 13 15  1  0
 14 24  1  0
 15 25  1  0
 16 28  2  0
 17 20  1  0
 19 24  4  0
 20 23  1  0
 21 22  4  0
 22 23  4  0
 25 26  4  0
 27 29  2  0
M  END
$$$$

 Created by Python create_sdf_string function

 30 33  0  0  0  0  0  0  0  0999 V2000
    8.3036    9.8571   18.4133 C   0  0  0  0  0  0  0  0  0  0  0  0
    8.3694    7.6612   22.6703 C   0  0  0  0  0  0  0  0  0  0  0  0
    8.4143    6.6863   16.2273 C   0  0  0  0  0  0  0  0  0  0  0  0
   10.7581    6.5674   21.7636 C   0  0  0  0  0  0  0  0  0  0  0  0
    8.4452    8.7960   19.2958 O   0  0  0  0  0  0  0  0  0  0  0  0
    8.7122    6.7842   24.8569 C   0  0  0  0  0  0  0  0  0  0  0  0
   10.3400    6.1726   14.3081 C   0  0  0  0  0  0  0  0  0  0  0  0
    7.4297    7.5873   24.8962 C   0  0  0  0  0  0  0  0  0  0  0  0
    8.1566   10.0536   16.0516 O   0  0  0  0  0  0  0  0  0  0  0  0
   12.4989    6.2074   20.1776 C   0  0  0  0  0  0  0  0  0  0  0  0
    6.9192    9.1053   20.9073 O   0  0  0  0  0  0  0  0  0  0  0  0
   14.3979    6.0729   18.7784 C   0  0  0  0  0  0  0  0  0  0  0  0
    8.6811    9.5354   16.9998 C   0  0  0  0  0  0  0  0  0  0  0  0
    9.2512    4.2713   13.7653 O   0  0  0  0  0  0  0  0  0  0  0  0
    9.6495    8.6317   16.8332 N   0  0  0  0  0  0  0  0  0  0  0  0
    6.2934    8.6988   23.1988 O   0  0  0  0  0  0  0  0  0  0  0  0
    7.9806    8.6543   20.5437 C   0  0  0  0  0  0  0  0  0  0  0  0
   13.7270    5.7144   19.8610 O   0  0  0  0  0  0  0  0  0  0  0  0
    8.3351    5.5235   15.4478 C   0  0  0  0  0  0  0  0  0  0  0  0
    8.7700    7.8434   21.3915 C   0  0  0  0  0  0  0  0  0  0  0  0
   11.7856    6.8851   19.2401 C   0  0  0  0  0  0  0  0  0  0  0  0
   10.5281    7.4276   19.5649 C   0  0  0  0  0  0  0  0  0  0  0  0
   10.0256    7.2907   20.8484 C   0  0  0  0  0  0  0  0  0  0  0  0
    9.3113    5.3049   14.4911 C   0  0  0  0  0  0  0  0  0  0  0  0
    9.4607    7.5646   16.0139 C   0  0  0  0  0  0  0  0  0  0  0  0
   10.4192    7.3157   15.0955 C   0  0  0  0  0  0  0  0  0  0  0  0
   10.2489    6.4227   23.0218 N   0  0  0  0  0  0  0  0  0  0  0  0
    7.2472    8.0746   23.5050 C   0  0  0  0  0  0  0  0  0  0  0  0
    9.2051    6.9101   23.4604 C   0  0  0  0  0  0  0  0  0  0  0  0
   11.9646    6.0299   21.4251 C   0  0  0  0  0  0  0  0  0  0  0  0
  1  5  1  0
  1 13  1  0
  2 20  2  0
  2 28  1  0
  2 29  1  0
  3 19  4  0
  3 25  4  0
  4 23  4  0
  4 27  1  0
  4 30  4  0
  5 17  1  0
  6  8  1  0
  6 29  1  0
  7 24  4  0
  7 26  4  0
  8 28  1  0
  9 13  2  0
 10 18  1  0
 10 21  4  0
 10 30  4  0
 11 17  2  0
 12 18  1  0
 13 15  1  0
 14 24  1  0
 15 25  1  0
 16 28  2  0
 17 20  1  0
 19 24  4  0
 20 23  1  0
 21 22  4  0
 22 23  4  0
 25 26  4  0
 27 29  2  0
M  END
$$$$

 Created by Python create_sdf_string function

 30 33  0  0  0  0  0  0  0  0999 V2000
    8.3036    9.8571   18.4133 C   0  0  0  0  0  0  0  0  0  0  0  0
    8.3694    7.6612   22.6703 C   0  0  0  0  0  0  0  0  0  0  0  0
    8.4143    6.6863   16.2273 C   0  0  0  0  0  0  0  0  0  0  0  0
   10.7581    6.5674   21.7636 C   0  0  0  0  0  0  0  0  0  0  0  0
    8.4452    8.7960   19.2958 O   0  0  0  0  0  0  0  0  0  0  0  0
    8.7122    6.7842   24.8569 C   0  0  0  0  0  0  0  0  0  0  0  0
   10.3400    6.1726   14.3081 C   0  0  0  0  0  0  0  0  0  0  0  0
    7.4297    7.5873   24.8962 C   0  0  0  0  0  0  0  0  0  0  0  0
    8.1566   10.0536   16.0516 O   0  0  0  0  0  0  0  0  0  0  0  0
   12.4989    6.2074   20.1776 C   0  0  0  0  0  0  0  0  0  0  0  0
    6.9192    9.1053   20.9073 O   0  0  0  0  0  0  0  0  0  0  0  0
   14.3979    6.0729   18.7784 C   0  0  0  0  0  0  0  0  0  0  0  0
    8.6811    9.5354   16.9998 C   0  0  0  0  0  0  0  0  0  0  0  0
    9.2512    4.2713   13.7653 O   0  0  0  0  0  0  0  0  0  0  0  0
    9.6495    8.6317   16.8332 N   0  0  0  0  0  0  0  0  0  0  0  0
    6.2934    8.6988   23.1988 O   0  0  0  0  0  0  0  0  0  0  0  0
    7.9806    8.6543   20.5437 C   0  0  0  0  0  0  0  0  0  0  0  0
   13.7270    5.7144   19.8610 O   0  0  0  0  0  0  0  0  0  0  0  0
    8.3351    5.5235   15.4478 C   0  0  0  0  0  0  0  0  0  0  0  0
    8.7700    7.8434   21.3915 C   0  0  0  0  0  0  0  0  0  0  0  0
   11.7856    6.8851   19.2401 C   0  0  0  0  0  0  0  0  0  0  0  0
   10.5281    7.4276   19.5649 C   0  0  0  0  0  0  0  0  0  0  0  0
   10.0256    7.2907   20.8484 C   0  0  0  0  0  0  0  0  0  0  0  0
    9.3113    5.3049   14.4911 C   0  0  0  0  0  0  0  0  0  0  0  0
    9.4607    7.5646   16.0139 C   0  0  0  0  0  0  0  0  0  0  0  0
   10.4192    7.3157   15.0955 C   0  0  0  0  0  0  0  0  0  0  0  0
   10.2489    6.4227   23.0218 N   0  0  0  0  0  0  0  0  0  0  0  0
    7.2472    8.0746   23.5050 C   0  0  0  0  0  0  0  0  0  0  0  0
    9.2051    6.9101   23.4604 C   0  0  0  0  0  0  0  0  0  0  0  0
   11.9646    6.0299   21.4251 C   0  0  0  0  0  0  0  0  0  0  0  0
  1  5  1  0
  1 13  1  0
  2 20  2  0
  2 28  1  0
  2 29  1  0
  3 19  4  0
  3 25  4  0
  4 23  4  0
  4 27  1  0
  4 30  4  0
  5 17  1  0
  6  8  1  0
  6 29  1  0
  7 24  4  0
  7 26  4  0
  8 28  1  0
  9 13  2  0
 10 18  1  0
 10 21  4  0
 10 30  4  0
 11 17  2  0
 12 18  1  0
 13 15  1  0
 14 24  1  0
 15 25  1  0
 16 28  2  0
 17 20  1  0
 19 24  4  0
 20 23  1  0
 21 22  4  0
 22 23  4  0
 25 26  4  0
 27 29  2  0
M  END
$$$$

 Created by Python create_sdf_string function

 30 33  0  0  0  0  0  0  0  0999 V2000
    8.3036    9.8571   18.4133 C   0  0  0  0  0  0  0  0  0  0  0  0
    8.3694    7.6612   22.6703 C   0  0  0  0  0  0  0  0  0  0  0  0
    8.4143    6.6863   16.2273 C   0  0  0  0  0  0  0  0  0  0  0  0
   10.7581    6.5674   21.7636 C   0  0  0  0  0  0  0  0  0  0  0  0
    8.4452    8.7960   19.2958 O   0  0  0  0  0  0  0  0  0  0  0  0
    8.7122    6.7842   24.8569 C   0  0  0  0  0  0  0  0  0  0  0  0
   10.3400    6.1726   14.3081 C   0  0  0  0  0  0  0  0  0  0  0  0
    7.4297    7.5873   24.8962 C   0  0  0  0  0  0  0  0  0  0  0  0
    8.1566   10.0536   16.0516 O   0  0  0  0  0  0  0  0  0  0  0  0
   12.4989    6.2074   20.1776 C   0  0  0  0  0  0  0  0  0  0  0  0
    6.9192    9.1053   20.9073 O   0  0  0  0  0  0  0  0  0  0  0  0
   14.3979    6.0729   18.7784 C   0  0  0  0  0  0  0  0  0  0  0  0
    8.6811    9.5354   16.9998 C   0  0  0  0  0  0  0  0  0  0  0  0
    9.2512    4.2713   13.7653 O   0  0  0  0  0  0  0  0  0  0  0  0
    9.6495    8.6317   16.8332 N   0  0  0  0  0  0  0  0  0  0  0  0
    6.2934    8.6988   23.1988 O   0  0  0  0  0  0  0  0  0  0  0  0
    7.9806    8.6543   20.5437 C   0  0  0  0  0  0  0  0  0  0  0  0
   13.7270    5.7144   19.8610 O   0  0  0  0  0  0  0  0  0  0  0  0
    8.3351    5.5235   15.4478 C   0  0  0  0  0  0  0  0  0  0  0  0
    8.7700    7.8434   21.3915 C   0  0  0  0  0  0  0  0  0  0  0  0
   11.7856    6.8851   19.2401 C   0  0  0  0  0  0  0  0  0  0  0  0
   10.5281    7.4276   19.5649 C   0  0  0  0  0  0  0  0  0  0  0  0
   10.0256    7.2907   20.8484 C   0  0  0  0  0  0  0  0  0  0  0  0
    9.3113    5.3049   14.4911 C   0  0  0  0  0  0  0  0  0  0  0  0
    9.4607    7.5646   16.0139 C   0  0  0  0  0  0  0  0  0  0  0  0
   10.4192    7.3157   15.0955 C   0  0  0  0  0  0  0  0  0  0  0  0
   10.2489    6.4227   23.0218 N   0  0  0  0  0  0  0  0  0  0  0  0
    7.2472    8.0746   23.5050 C   0  0  0  0  0  0  0  0  0  0  0  0
    9.2051    6.9101   23.4604 C   0  0  0  0  0  0  0  0  0  0  0  0
   11.9646    6.0299   21.4251 C   0  0  0  0  0  0  0  0  0  0  0  0
  1  5  1  0
  1 13  1  0
  2 20  2  0
  2 28  1  0
  2 29  1  0
  3 19  4  0
  3 25  4  0
  4 23  4  0
  4 27  1  0
  4 30  4  0
  5 17  1  0
  6  8  1  0
  6 29  1  0
  7 24  4  0
  7 26  4  0
  8 28  1  0
  9 13  2  0
 10 18  1  0
 10 21  4  0
 10 30  4  0
 11 17  2  0
 12 18  1  0
 13 15  1  0
 14 24  1  0
 15 25  1  0
 16 28  2  0
 17 20  1  0
 19 24  4  0
 20 23  1  0
 21 22  4  0
 22 23  4  0
 25 26  4  0
 27 29  2  0
M  END
$$$$

 Created by Python create_sdf_string function

 30 33  0  0  0  0  0  0  0  0999 V2000
    8.3036    9.8571   18.4133 C   0  0  0  0  0  0  0  0  0  0  0  0
    8.3694    7.6612   22.6703 C   0  0  0  0  0  0  0  0  0  0  0  0
    8.4143    6.6863   16.2273 C   0  0  0  0  0  0  0  0  0  0  0  0
   10.7581    6.5674   21.7636 C   0  0  0  0  0  0  0  0  0  0  0  0
    8.4452    8.7960   19.2958 O   0  0  0  0  0  0  0  0  0  0  0  0
    8.7122    6.7842   24.8569 C   0  0  0  0  0  0  0  0  0  0  0  0
   10.3400    6.1726   14.3081 C   0  0  0  0  0  0  0  0  0  0  0  0
    7.4297    7.5873   24.8962 C   0  0  0  0  0  0  0  0  0  0  0  0
    8.1566   10.0536   16.0516 O   0  0  0  0  0  0  0  0  0  0  0  0
   12.4989    6.2074   20.1776 C   0  0  0  0  0  0  0  0  0  0  0  0
    6.9192    9.1053   20.9073 O   0  0  0  0  0  0  0  0  0  0  0  0
   14.3979    6.0729   18.7784 C   0  0  0  0  0  0  0  0  0  0  0  0
    8.6811    9.5354   16.9998 C   0  0  0  0  0  0  0  0  0  0  0  0
    9.2512    4.2713   13.7653 O   0  0  0  0  0  0  0  0  0  0  0  0
    9.6495    8.6317   16.8332 N   0  0  0  0  0  0  0  0  0  0  0  0
    6.2934    8.6988   23.1988 O   0  0  0  0  0  0  0  0  0  0  0  0
    7.9806    8.6543   20.5437 C   0  0  0  0  0  0  0  0  0  0  0  0
   13.7270    5.7144   19.8610 O   0  0  0  0  0  0  0  0  0  0  0  0
    8.3351    5.5235   15.4478 C   0  0  0  0  0  0  0  0  0  0  0  0
    8.7700    7.8434   21.3915 C   0  0  0  0  0  0  0  0  0  0  0  0
   11.7856    6.8851   19.2401 C   0  0  0  0  0  0  0  0  0  0  0  0
   10.5281    7.4276   19.5649 C   0  0  0  0  0  0  0  0  0  0  0  0
   10.0256    7.2907   20.8484 C   0  0  0  0  0  0  0  0  0  0  0  0
    9.3113    5.3049   14.4911 C   0  0  0  0  0  0  0  0  0  0  0  0
    9.4607    7.5646   16.0139 C   0  0  0  0  0  0  0  0  0  0  0  0
   10.4192    7.3157   15.0955 C   0  0  0  0  0  0  0  0  0  0  0  0
   10.2489    6.4227   23.0218 N   0  0  0  0  0  0  0  0  0  0  0  0
    7.2472    8.0746   23.5050 C   0  0  0  0  0  0  0  0  0  0  0  0
    9.2051    6.9101   23.4604 C   0  0  0  0  0  0  0  0  0  0  0  0
   11.9646    6.0299   21.4251 C   0  0  0  0  0  0  0  0  0  0  0  0
  1  5  1  0
  1 13  1  0
  2 20  2  0
  2 28  1  0
  2 29  1  0
  3 19  4  0
  3 25  4  0
  4 23  4  0
  4 27  1  0
  4 30  4  0
  5 17  1  0
  6  8  1  0
  6 29  1  0
  7 24  4  0
  7 26  4  0
  8 28  1  0
  9 13  2  0
 10 18  1  0
 10 21  4  0
 10 30  4  0
 11 17  2  0
 12 18  1  0
 13 15  1  0
 14 24  1  0
 15 25  1  0
 16 28  2  0
 17 20  1  0
 19 24  4  0
 20 23  1  0
 21 22  4  0
 22 23  4  0
 25 26  4  0
 27 29  2  0
M  END
$$$$

 Created by Python create_sdf_string function

 30 33  0  0  0  0  0  0  0  0999 V2000
    8.3036    9.8571   18.4133 C   0  0  0  0  0  0  0  0  0  0  0  0
    8.3694    7.6612   22.6703 C   0  0  0  0  0  0  0  0  0  0  0  0
    8.4143    6.6863   16.2273 C   0  0  0  0  0  0  0  0  0  0  0  0
   10.7581    6.5674   21.7636 C   0  0  0  0  0  0  0  0  0  0  0  0
    8.4452    8.7960   19.2958 O   0  0  0  0  0  0  0  0  0  0  0  0
    8.7122    6.7842   24.8569 C   0  0  0  0  0  0  0  0  0  0  0  0
   10.3400    6.1726   14.3081 C   0  0  0  0  0  0  0  0  0  0  0  0
    7.4297    7.5873   24.8962 C   0  0  0  0  0  0  0  0  0  0  0  0
    8.1566   10.0536   16.0516 O   0  0  0  0  0  0  0  0  0  0  0  0
   12.4989    6.2074   20.1776 C   0  0  0  0  0  0  0  0  0  0  0  0
    6.9192    9.1053   20.9073 O   0  0  0  0  0  0  0  0  0  0  0  0
   14.3979    6.0729   18.7784 C   0  0  0  0  0  0  0  0  0  0  0  0
    8.6811    9.5354   16.9998 C   0  0  0  0  0  0  0  0  0  0  0  0
    9.2512    4.2713   13.7653 O   0  0  0  0  0  0  0  0  0  0  0  0
    9.6495    8.6317   16.8332 N   0  0  0  0  0  0  0  0  0  0  0  0
    6.2934    8.6988   23.1988 O   0  0  0  0  0  0  0  0  0  0  0  0
    7.9806    8.6543   20.5437 C   0  0  0  0  0  0  0  0  0  0  0  0
   13.7270    5.7144   19.8610 O   0  0  0  0  0  0  0  0  0  0  0  0
    8.3351    5.5235   15.4478 C   0  0  0  0  0  0  0  0  0  0  0  0
    8.7700    7.8434   21.3915 C   0  0  0  0  0  0  0  0  0  0  0  0
   11.7856    6.8851   19.2401 C   0  0  0  0  0  0  0  0  0  0  0  0
   10.5281    7.4276   19.5649 C   0  0  0  0  0  0  0  0  0  0  0  0
   10.0256    7.2907   20.8484 C   0  0  0  0  0  0  0  0  0  0  0  0
    9.3113    5.3049   14.4911 C   0  0  0  0  0  0  0  0  0  0  0  0
    9.4607    7.5646   16.0139 C   0  0  0  0  0  0  0  0  0  0  0  0
   10.4192    7.3157   15.0955 C   0  0  0  0  0  0  0  0  0  0  0  0
   10.2489    6.4227   23.0218 N   0  0  0  0  0  0  0  0  0  0  0  0
    7.2472    8.0746   23.5050 C   0  0  0  0  0  0  0  0  0  0  0  0
    9.2051    6.9101   23.4604 C   0  0  0  0  0  0  0  0  0  0  0  0
   11.9646    6.0299   21.4251 C   0  0  0  0  0  0  0  0  0  0  0  0
  1  5  1  0
  1 13  1  0
  2 20  2  0
  2 28  1  0
  2 29  1  0
  3 19  4  0
  3 25  4  0
  4 23  4  0
  4 27  1  0
  4 30  4  0
  5 17  1  0
  6  8  1  0
  6 29  1  0
  7 24  4  0
  7 26  4  0
  8 28  1  0
  9 13  2  0
 10 18  1  0
 10 21  4  0
 10 30  4  0
 11 17  2  0
 12 18  1  0
 13 15  1  0
 14 24  1  0
 15 25  1  0
 16 28  2  0
 17 20  1  0
 19 24  4  0
 20 23  1  0
 21 22  4  0
 22 23  4  0
 25 26  4  0
 27 29  2  0
M  END
$$$$

 Created by Python create_sdf_string function

 30 33  0  0  0  0  0  0  0  0999 V2000
    8.3036    9.8571   18.4133 C   0  0  0  0  0  0  0  0  0  0  0  0
    8.3694    7.6612   22.6703 C   0  0  0  0  0  0  0  0  0  0  0  0
    8.4143    6.6863   16.2273 C   0  0  0  0  0  0  0  0  0  0  0  0
   10.7581    6.5674   21.7636 C   0  0  0  0  0  0  0  0  0  0  0  0
    8.4452    8.7960   19.2958 O   0  0  0  0  0  0  0  0  0  0  0  0
    8.7122    6.7842   24.8569 C   0  0  0  0  0  0  0  0  0  0  0  0
   10.3400    6.1726   14.3081 C   0  0  0  0  0  0  0  0  0  0  0  0
    7.4297    7.5873   24.8962 C   0  0  0  0  0  0  0  0  0  0  0  0
    8.1566   10.0536   16.0516 O   0  0  0  0  0  0  0  0  0  0  0  0
   12.4989    6.2074   20.1776 C   0  0  0  0  0  0  0  0  0  0  0  0
    6.9192    9.1053   20.9073 O   0  0  0  0  0  0  0  0  0  0  0  0
   14.3979    6.0729   18.7784 C   0  0  0  0  0  0  0  0  0  0  0  0
    8.6811    9.5354   16.9998 C   0  0  0  0  0  0  0  0  0  0  0  0
    9.2512    4.2713   13.7653 O   0  0  0  0  0  0  0  0  0  0  0  0
    9.6495    8.6317   16.8332 N   0  0  0  0  0  0  0  0  0  0  0  0
    6.2934    8.6988   23.1988 O   0  0  0  0  0  0  0  0  0  0  0  0
    7.9806    8.6543   20.5437 C   0  0  0  0  0  0  0  0  0  0  0  0
   13.7270    5.7144   19.8610 O   0  0  0  0  0  0  0  0  0  0  0  0
    8.3351    5.5235   15.4478 C   0  0  0  0  0  0  0  0  0  0  0  0
    8.7700    7.8434   21.3915 C   0  0  0  0  0  0  0  0  0  0  0  0
   11.7856    6.8851   19.2401 C   0  0  0  0  0  0  0  0  0  0  0  0
   10.5281    7.4276   19.5649 C   0  0  0  0  0  0  0  0  0  0  0  0
   10.0256    7.2907   20.8484 C   0  0  0  0  0  0  0  0  0  0  0  0
    9.3113    5.3049   14.4911 C   0  0  0  0  0  0  0  0  0  0  0  0
    9.4607    7.5646   16.0139 C   0  0  0  0  0  0  0  0  0  0  0  0
   10.4192    7.3157   15.0955 C   0  0  0  0  0  0  0  0  0  0  0  0
   10.2489    6.4227   23.0218 N   0  0  0  0  0  0  0  0  0  0  0  0
    7.2472    8.0746   23.5050 C   0  0  0  0  0  0  0  0  0  0  0  0
    9.2051    6.9101   23.4604 C   0  0  0  0  0  0  0  0  0  0  0  0
   11.9646    6.0299   21.4251 C   0  0  0  0  0  0  0  0  0  0  0  0
  1  5  1  0
  1 13  1  0
  2 20  2  0
  2 28  1  0
  2 29  1  0
  3 19  4  0
  3 25  4  0
  4 23  4  0
  4 27  1  0
  4 30  4  0
  5 17  1  0
  6  8  1  0
  6 29  1  0
  7 24  4  0
  7 26  4  0
  8 28  1  0
  9 13  2  0
 10 18  1  0
 10 21  4  0
 10 30  4  0
 11 17  2  0
 12 18  1  0
 13 15  1  0
 14 24  1  0
 15 25  1  0
 16 28  2  0
 17 20  1  0
 19 24  4  0
 20 23  1  0
 21 22  4  0
 22 23  4  0
 25 26  4  0
 27 29  2  0
M  END
$$$$

 Created by Python create_sdf_string function

 30 33  0  0  0  0  0  0  0  0999 V2000
    8.3036    9.8571   18.4133 C   0  0  0  0  0  0  0  0  0  0  0  0
    8.3694    7.6612   22.6703 C   0  0  0  0  0  0  0  0  0  0  0  0
    8.4143    6.6863   16.2273 C   0  0  0  0  0  0  0  0  0  0  0  0
   10.7581    6.5674   21.7636 C   0  0  0  0  0  0  0  0  0  0  0  0
    8.4452    8.7960   19.2958 O   0  0  0  0  0  0  0  0  0  0  0  0
    8.7122    6.7842   24.8569 C   0  0  0  0  0  0  0  0  0  0  0  0
   10.3400    6.1726   14.3081 C   0  0  0  0  0  0  0  0  0  0  0  0
    7.4297    7.5873   24.8962 C   0  0  0  0  0  0  0  0  0  0  0  0
    8.1566   10.0536   16.0516 O   0  0  0  0  0  0  0  0  0  0  0  0
   12.4989    6.2074   20.1776 C   0  0  0  0  0  0  0  0  0  0  0  0
    6.9192    9.1053   20.9073 O   0  0  0  0  0  0  0  0  0  0  0  0
   14.3979    6.0729   18.7784 C   0  0  0  0  0  0  0  0  0  0  0  0
    8.6811    9.5354   16.9998 C   0  0  0  0  0  0  0  0  0  0  0  0
    9.2512    4.2713   13.7653 O   0  0  0  0  0  0  0  0  0  0  0  0
    9.6495    8.6317   16.8332 N   0  0  0  0  0  0  0  0  0  0  0  0
    6.2934    8.6988   23.1988 O   0  0  0  0  0  0  0  0  0  0  0  0
    7.9806    8.6543   20.5437 C   0  0  0  0  0  0  0  0  0  0  0  0
   13.7270    5.7144   19.8610 O   0  0  0  0  0  0  0  0  0  0  0  0
    8.3351    5.5235   15.4478 C   0  0  0  0  0  0  0  0  0  0  0  0
    8.7700    7.8434   21.3915 C   0  0  0  0  0  0  0  0  0  0  0  0
   11.7856    6.8851   19.2401 C   0  0  0  0  0  0  0  0  0  0  0  0
   10.5281    7.4276   19.5649 C   0  0  0  0  0  0  0  0  0  0  0  0
   10.0256    7.2907   20.8484 C   0  0  0  0  0  0  0  0  0  0  0  0
    9.3113    5.3049   14.4911 C   0  0  0  0  0  0  0  0  0  0  0  0
    9.4607    7.5646   16.0139 C   0  0  0  0  0  0  0  0  0  0  0  0
   10.4192    7.3157   15.0955 C   0  0  0  0  0  0  0  0  0  0  0  0
   10.2489    6.4227   23.0218 N   0  0  0  0  0  0  0  0  0  0  0  0
    7.2472    8.0746   23.5050 C   0  0  0  0  0  0  0  0  0  0  0  0
    9.2051    6.9101   23.4604 C   0  0  0  0  0  0  0  0  0  0  0  0
   11.9646    6.0299   21.4251 C   0  0  0  0  0  0  0  0  0  0  0  0
  1  5  1  0
  1 13  1  0
  2 20  2  0
  2 28  1  0
  2 29  1  0
  3 19  4  0
  3 25  4  0
  4 23  4  0
  4 27  1  0
  4 30  4  0
  5 17  1  0
  6  8  1  0
  6 29  1  0
  7 24  4  0
  7 26  4  0
  8 28  1  0
  9 13  2  0
 10 18  1  0
 10 21  4  0
 10 30  4  0
 11 17  2  0
 12 18  1  0
 13 15  1  0
 14 24  1  0
 15 25  1  0
 16 28  2  0
 17 20  1  0
 19 24  4  0
 20 23  1  0
 21 22  4  0
 22 23  4  0
 25 26  4  0
 27 29  2  0
M  END
$$$$

 Created by Python create_sdf_string function

 30 33  0  0  0  0  0  0  0  0999 V2000
    8.3036    9.8571   18.4133 C   0  0  0  0  0  0  0  0  0  0  0  0
    8.3694    7.6612   22.6703 C   0  0  0  0  0  0  0  0  0  0  0  0
    8.4143    6.6863   16.2273 C   0  0  0  0  0  0  0  0  0  0  0  0
   10.7581    6.5674   21.7636 C   0  0  0  0  0  0  0  0  0  0  0  0
    8.4452    8.7960   19.2958 O   0  0  0  0  0  0  0  0  0  0  0  0
    8.7122    6.7842   24.8569 C   0  0  0  0  0  0  0  0  0  0  0  0
   10.3400    6.1726   14.3081 C   0  0  0  0  0  0  0  0  0  0  0  0
    7.4297    7.5873   24.8962 C   0  0  0  0  0  0  0  0  0  0  0  0
    8.1566   10.0536   16.0516 O   0  0  0  0  0  0  0  0  0  0  0  0
   12.4989    6.2074   20.1776 C   0  0  0  0  0  0  0  0  0  0  0  0
    6.9192    9.1053   20.9073 O   0  0  0  0  0  0  0  0  0  0  0  0
   14.3979    6.0729   18.7784 C   0  0  0  0  0  0  0  0  0  0  0  0
    8.6811    9.5354   16.9998 C   0  0  0  0  0  0  0  0  0  0  0  0
    9.2512    4.2713   13.7653 O   0  0  0  0  0  0  0  0  0  0  0  0
    9.6495    8.6317   16.8332 N   0  0  0  0  0  0  0  0  0  0  0  0
    6.2934    8.6988   23.1988 O   0  0  0  0  0  0  0  0  0  0  0  0
    7.9806    8.6543   20.5437 C   0  0  0  0  0  0  0  0  0  0  0  0
   13.7270    5.7144   19.8610 O   0  0  0  0  0  0  0  0  0  0  0  0
    8.3351    5.5235   15.4478 C   0  0  0  0  0  0  0  0  0  0  0  0
    8.7700    7.8434   21.3915 C   0  0  0  0  0  0  0  0  0  0  0  0
   11.7856    6.8851   19.2401 C   0  0  0  0  0  0  0  0  0  0  0  0
   10.5281    7.4276   19.5649 C   0  0  0  0  0  0  0  0  0  0  0  0
   10.0256    7.2907   20.8484 C   0  0  0  0  0  0  0  0  0  0  0  0
    9.3113    5.3049   14.4911 C   0  0  0  0  0  0  0  0  0  0  0  0
    9.4607    7.5646   16.0139 C   0  0  0  0  0  0  0  0  0  0  0  0
   10.4192    7.3157   15.0955 C   0  0  0  0  0  0  0  0  0  0  0  0
   10.2489    6.4227   23.0218 N   0  0  0  0  0  0  0  0  0  0  0  0
    7.2472    8.0746   23.5050 C   0  0  0  0  0  0  0  0  0  0  0  0
    9.2051    6.9101   23.4604 C   0  0  0  0  0  0  0  0  0  0  0  0
   11.9646    6.0299   21.4251 C   0  0  0  0  0  0  0  0  0  0  0  0
  1  5  1  0
  1 13  1  0
  2 20  2  0
  2 28  1  0
  2 29  1  0
  3 19  4  0
  3 25  4  0
  4 23  4  0
  4 27  1  0
  4 30  4  0
  5 17  1  0
  6  8  1  0
  6 29  1  0
  7 24  4  0
  7 26  4  0
  8 28  1  0
  9 13  2  0
 10 18  1  0
 10 21  4  0
 10 30  4  0
 11 17  2  0
 12 18  1  0
 13 15  1  0
 14 24  1  0
 15 25  1  0
 16 28  2  0
 17 20  1  0
 19 24  4  0
 20 23  1  0
 21 22  4  0
 22 23  4  0
 25 26  4  0
 27 29  2  0
M  END
$$$$

 Created by Python create_sdf_string function

 30 33  0  0  0  0  0  0  0  0999 V2000
    8.3036    9.8571   18.4133 C   0  0  0  0  0  0  0  0  0  0  0  0
    8.3694    7.6612   22.6703 C   0  0  0  0  0  0  0  0  0  0  0  0
    8.4143    6.6863   16.2273 C   0  0  0  0  0  0  0  0  0  0  0  0
   10.7581    6.5674   21.7636 C   0  0  0  0  0  0  0  0  0  0  0  0
    8.4452    8.7960   19.2958 O   0  0  0  0  0  0  0  0  0  0  0  0
    8.7122    6.7842   24.8569 C   0  0  0  0  0  0  0  0  0  0  0  0
   10.3400    6.1726   14.3081 C   0  0  0  0  0  0  0  0  0  0  0  0
    7.4297    7.5873   24.8962 C   0  0  0  0  0  0  0  0  0  0  0  0
    8.1566   10.0536   16.0516 O   0  0  0  0  0  0  0  0  0  0  0  0
   12.4989    6.2074   20.1776 C   0  0  0  0  0  0  0  0  0  0  0  0
    6.9192    9.1053   20.9073 O   0  0  0  0  0  0  0  0  0  0  0  0
   14.3979    6.0729   18.7784 C   0  0  0  0  0  0  0  0  0  0  0  0
    8.6811    9.5354   16.9998 C   0  0  0  0  0  0  0  0  0  0  0  0
    9.2512    4.2713   13.7653 O   0  0  0  0  0  0  0  0  0  0  0  0
    9.6495    8.6317   16.8332 N   0  0  0  0  0  0  0  0  0  0  0  0
    6.2934    8.6988   23.1988 O   0  0  0  0  0  0  0  0  0  0  0  0
    7.9806    8.6543   20.5437 C   0  0  0  0  0  0  0  0  0  0  0  0
   13.7270    5.7144   19.8610 O   0  0  0  0  0  0  0  0  0  0  0  0
    8.3351    5.5235   15.4478 C   0  0  0  0  0  0  0  0  0  0  0  0
    8.7700    7.8434   21.3915 C   0  0  0  0  0  0  0  0  0  0  0  0
   11.7856    6.8851   19.2401 C   0  0  0  0  0  0  0  0  0  0  0  0
   10.5281    7.4276   19.5649 C   0  0  0  0  0  0  0  0  0  0  0  0
   10.0256    7.2907   20.8484 C   0  0  0  0  0  0  0  0  0  0  0  0
    9.3113    5.3049   14.4911 C   0  0  0  0  0  0  0  0  0  0  0  0
    9.4607    7.5646   16.0139 C   0  0  0  0  0  0  0  0  0  0  0  0
   10.4192    7.3157   15.0955 C   0  0  0  0  0  0  0  0  0  0  0  0
   10.2489    6.4227   23.0218 N   0  0  0  0  0  0  0  0  0  0  0  0
    7.2472    8.0746   23.5050 C   0  0  0  0  0  0  0  0  0  0  0  0
    9.2051    6.9101   23.4604 C   0  0  0  0  0  0  0  0  0  0  0  0
   11.9646    6.0299   21.4251 C   0  0  0  0  0  0  0  0  0  0  0  0
  1  5  1  0
  1 13  1  0
  2 20  2  0
  2 28  1  0
  2 29  1  0
  3 19  4  0
  3 25  4  0
  4 23  4  0
  4 27  1  0
  4 30  4  0
  5 17  1  0
  6  8  1  0
  6 29  1  0
  7 24  4  0
  7 26  4  0
  8 28  1  0
  9 13  2  0
 10 18  1  0
 10 21  4  0
 10 30  4  0
 11 17  2  0
 12 18  1  0
 13 15  1  0
 14 24  1  0
 15 25  1  0
 16 28  2  0
 17 20  1  0
 19 24  4  0
 20 23  1  0
 21 22  4  0
 22 23  4  0
 25 26  4  0
 27 29  2  0
M  END
$$$$

 Created by Python create_sdf_string function

 30 33  0  0  0  0  0  0  0  0999 V2000
    8.3036    9.8571   18.4133 C   0  0  0  0  0  0  0  0  0  0  0  0
    8.3694    7.6612   22.6703 C   0  0  0  0  0  0  0  0  0  0  0  0
    8.4143    6.6863   16.2273 C   0  0  0  0  0  0  0  0  0  0  0  0
   10.7581    6.5674   21.7636 C   0  0  0  0  0  0  0  0  0  0  0  0
    8.4452    8.7960   19.2958 O   0  0  0  0  0  0  0  0  0  0  0  0
    8.7122    6.7842   24.8569 C   0  0  0  0  0  0  0  0  0  0  0  0
   10.3400    6.1726   14.3081 C   0  0  0  0  0  0  0  0  0  0  0  0
    7.4297    7.5873   24.8962 C   0  0  0  0  0  0  0  0  0  0  0  0
    8.1566   10.0536   16.0516 O   0  0  0  0  0  0  0  0  0  0  0  0
   12.4989    6.2074   20.1776 C   0  0  0  0  0  0  0  0  0  0  0  0
    6.9192    9.1053   20.9073 O   0  0  0  0  0  0  0  0  0  0  0  0
   14.3979    6.0729   18.7784 C   0  0  0  0  0  0  0  0  0  0  0  0
    8.6811    9.5354   16.9998 C   0  0  0  0  0  0  0  0  0  0  0  0
    9.2512    4.2713   13.7653 O   0  0  0  0  0  0  0  0  0  0  0  0
    9.6495    8.6317   16.8332 N   0  0  0  0  0  0  0  0  0  0  0  0
    6.2934    8.6988   23.1988 O   0  0  0  0  0  0  0  0  0  0  0  0
    7.9806    8.6543   20.5437 C   0  0  0  0  0  0  0  0  0  0  0  0
   13.7270    5.7144   19.8610 O   0  0  0  0  0  0  0  0  0  0  0  0
    8.3351    5.5235   15.4478 C   0  0  0  0  0  0  0  0  0  0  0  0
    8.7700    7.8434   21.3915 C   0  0  0  0  0  0  0  0  0  0  0  0
   11.7856    6.8851   19.2401 C   0  0  0  0  0  0  0  0  0  0  0  0
   10.5281    7.4276   19.5649 C   0  0  0  0  0  0  0  0  0  0  0  0
   10.0256    7.2907   20.8484 C   0  0  0  0  0  0  0  0  0  0  0  0
    9.3113    5.3049   14.4911 C   0  0  0  0  0  0  0  0  0  0  0  0
    9.4607    7.5646   16.0139 C   0  0  0  0  0  0  0  0  0  0  0  0
   10.4192    7.3157   15.0955 C   0  0  0  0  0  0  0  0  0  0  0  0
   10.2489    6.4227   23.0218 N   0  0  0  0  0  0  0  0  0  0  0  0
    7.2472    8.0746   23.5050 C   0  0  0  0  0  0  0  0  0  0  0  0
    9.2051    6.9101   23.4604 C   0  0  0  0  0  0  0  0  0  0  0  0
   11.9646    6.0299   21.4251 C   0  0  0  0  0  0  0  0  0  0  0  0
  1  5  1  0
  1 13  1  0
  2 20  2  0
  2 28  1  0
  2 29  1  0
  3 19  4  0
  3 25  4  0
  4 23  4  0
  4 27  1  0
  4 30  4  0
  5 17  1  0
  6  8  1  0
  6 29  1  0
  7 24  4  0
  7 26  4  0
  8 28  1  0
  9 13  2  0
 10 18  1  0
 10 21  4  0
 10 30  4  0
 11 17  2  0
 12 18  1  0
 13 15  1  0
 14 24  1  0
 15 25  1  0
 16 28  2  0
 17 20  1  0
 19 24  4  0
 20 23  1  0
 21 22  4  0
 22 23  4  0
 25 26  4  0
 27 29  2  0
M  END
$$$$

 Created by Python create_sdf_string function

 30 33  0  0  0  0  0  0  0  0999 V2000
    8.3036    9.8571   18.4133 C   0  0  0  0  0  0  0  0  0  0  0  0
    8.3694    7.6612   22.6703 C   0  0  0  0  0  0  0  0  0  0  0  0
    8.4143    6.6863   16.2273 C   0  0  0  0  0  0  0  0  0  0  0  0
   10.7581    6.5674   21.7636 C   0  0  0  0  0  0  0  0  0  0  0  0
    8.4452    8.7960   19.2958 O   0  0  0  0  0  0  0  0  0  0  0  0
    8.7122    6.7842   24.8569 C   0  0  0  0  0  0  0  0  0  0  0  0
   10.3400    6.1726   14.3081 C   0  0  0  0  0  0  0  0  0  0  0  0
    7.4297    7.5873   24.8962 C   0  0  0  0  0  0  0  0  0  0  0  0
    8.1566   10.0536   16.0516 O   0  0  0  0  0  0  0  0  0  0  0  0
   12.4989    6.2074   20.1776 C   0  0  0  0  0  0  0  0  0  0  0  0
    6.9192    9.1053   20.9073 O   0  0  0  0  0  0  0  0  0  0  0  0
   14.3979    6.0729   18.7784 C   0  0  0  0  0  0  0  0  0  0  0  0
    8.6811    9.5354   16.9998 C   0  0  0  0  0  0  0  0  0  0  0  0
    9.2512    4.2713   13.7653 O   0  0  0  0  0  0  0  0  0  0  0  0
    9.6495    8.6317   16.8332 N   0  0  0  0  0  0  0  0  0  0  0  0
    6.2934    8.6988   23.1988 O   0  0  0  0  0  0  0  0  0  0  0  0
    7.9806    8.6543   20.5437 C   0  0  0  0  0  0  0  0  0  0  0  0
   13.7270    5.7144   19.8610 O   0  0  0  0  0  0  0  0  0  0  0  0
    8.3351    5.5235   15.4478 C   0  0  0  0  0  0  0  0  0  0  0  0
    8.7700    7.8434   21.3915 C   0  0  0  0  0  0  0  0  0  0  0  0
   11.7856    6.8851   19.2401 C   0  0  0  0  0  0  0  0  0  0  0  0
   10.5281    7.4276   19.5649 C   0  0  0  0  0  0  0  0  0  0  0  0
   10.0256    7.2907   20.8484 C   0  0  0  0  0  0  0  0  0  0  0  0
    9.3113    5.3049   14.4911 C   0  0  0  0  0  0  0  0  0  0  0  0
    9.4607    7.5646   16.0139 C   0  0  0  0  0  0  0  0  0  0  0  0
   10.4192    7.3157   15.0955 C   0  0  0  0  0  0  0  0  0  0  0  0
   10.2489    6.4227   23.0218 N   0  0  0  0  0  0  0  0  0  0  0  0
    7.2472    8.0746   23.5050 C   0  0  0  0  0  0  0  0  0  0  0  0
    9.2051    6.9101   23.4604 C   0  0  0  0  0  0  0  0  0  0  0  0
   11.9646    6.0299   21.4251 C   0  0  0  0  0  0  0  0  0  0  0  0
  1  5  1  0
  1 13  1  0
  2 20  2  0
  2 28  1  0
  2 29  1  0
  3 19  4  0
  3 25  4  0
  4 23  4  0
  4 27  1  0
  4 30  4  0
  5 17  1  0
  6  8  1  0
  6 29  1  0
  7 24  4  0
  7 26  4  0
  8 28  1  0
  9 13  2  0
 10 18  1  0
 10 21  4  0
 10 30  4  0
 11 17  2  0
 12 18  1  0
 13 15  1  0
 14 24  1  0
 15 25  1  0
 16 28  2  0
 17 20  1  0
 19 24  4  0
 20 23  1  0
 21 22  4  0
 22 23  4  0
 25 26  4  0
 27 29  2  0
M  END
$$$$

 Created by Python create_sdf_string function

 30 33  0  0  0  0  0  0  0  0999 V2000
    8.3036    9.8571   18.4133 C   0  0  0  0  0  0  0  0  0  0  0  0
    8.3694    7.6612   22.6703 C   0  0  0  0  0  0  0  0  0  0  0  0
    8.4143    6.6863   16.2273 C   0  0  0  0  0  0  0  0  0  0  0  0
   10.7581    6.5674   21.7636 C   0  0  0  0  0  0  0  0  0  0  0  0
    8.4452    8.7960   19.2958 O   0  0  0  0  0  0  0  0  0  0  0  0
    8.7122    6.7842   24.8569 C   0  0  0  0  0  0  0  0  0  0  0  0
   10.3400    6.1726   14.3081 C   0  0  0  0  0  0  0  0  0  0  0  0
    7.4297    7.5873   24.8962 C   0  0  0  0  0  0  0  0  0  0  0  0
    8.1566   10.0536   16.0516 O   0  0  0  0  0  0  0  0  0  0  0  0
   12.4989    6.2074   20.1776 C   0  0  0  0  0  0  0  0  0  0  0  0
    6.9192    9.1053   20.9073 O   0  0  0  0  0  0  0  0  0  0  0  0
   14.3979    6.0729   18.7784 C   0  0  0  0  0  0  0  0  0  0  0  0
    8.6811    9.5354   16.9998 C   0  0  0  0  0  0  0  0  0  0  0  0
    9.2512    4.2713   13.7653 O   0  0  0  0  0  0  0  0  0  0  0  0
    9.6495    8.6317   16.8332 N   0  0  0  0  0  0  0  0  0  0  0  0
    6.2934    8.6988   23.1988 O   0  0  0  0  0  0  0  0  0  0  0  0
    7.9806    8.6543   20.5437 C   0  0  0  0  0  0  0  0  0  0  0  0
   13.7270    5.7144   19.8610 O   0  0  0  0  0  0  0  0  0  0  0  0
    8.3351    5.5235   15.4478 C   0  0  0  0  0  0  0  0  0  0  0  0
    8.7700    7.8434   21.3915 C   0  0  0  0  0  0  0  0  0  0  0  0
   11.7856    6.8851   19.2401 C   0  0  0  0  0  0  0  0  0  0  0  0
   10.5281    7.4276   19.5649 C   0  0  0  0  0  0  0  0  0  0  0  0
   10.0256    7.2907   20.8484 C   0  0  0  0  0  0  0  0  0  0  0  0
    9.3113    5.3049   14.4911 C   0  0  0  0  0  0  0  0  0  0  0  0
    9.4607    7.5646   16.0139 C   0  0  0  0  0  0  0  0  0  0  0  0
   10.4192    7.3157   15.0955 C   0  0  0  0  0  0  0  0  0  0  0  0
   10.2489    6.4227   23.0218 N   0  0  0  0  0  0  0  0  0  0  0  0
    7.2472    8.0746   23.5050 C   0  0  0  0  0  0  0  0  0  0  0  0
    9.2051    6.9101   23.4604 C   0  0  0  0  0  0  0  0  0  0  0  0
   11.9646    6.0299   21.4251 C   0  0  0  0  0  0  0  0  0  0  0  0
  1  5  1  0
  1 13  1  0
  2 20  2  0
  2 28  1  0
  2 29  1  0
  3 19  4  0
  3 25  4  0
  4 23  4  0
  4 27  1  0
  4 30  4  0
  5 17  1  0
  6  8  1  0
  6 29  1  0
  7 24  4  0
  7 26  4  0
  8 28  1  0
  9 13  2  0
 10 18  1  0
 10 21  4  0
 10 30  4  0
 11 17  2  0
 12 18  1  0
 13 15  1  0
 14 24  1  0
 15 25  1  0
 16 28  2  0
 17 20  1  0
 19 24  4  0
 20 23  1  0
 21 22  4  0
 22 23  4  0
 25 26  4  0
 27 29  2  0
M  END
$$$$

 Created by Python create_sdf_string function

 30 33  0  0  0  0  0  0  0  0999 V2000
    8.3036    9.8571   18.4133 C   0  0  0  0  0  0  0  0  0  0  0  0
    8.3694    7.6612   22.6703 C   0  0  0  0  0  0  0  0  0  0  0  0
    8.4143    6.6863   16.2273 C   0  0  0  0  0  0  0  0  0  0  0  0
   10.7581    6.5674   21.7636 C   0  0  0  0  0  0  0  0  0  0  0  0
    8.4452    8.7960   19.2958 O   0  0  0  0  0  0  0  0  0  0  0  0
    8.7122    6.7842   24.8569 C   0  0  0  0  0  0  0  0  0  0  0  0
   10.3400    6.1726   14.3081 C   0  0  0  0  0  0  0  0  0  0  0  0
    7.4297    7.5873   24.8962 C   0  0  0  0  0  0  0  0  0  0  0  0
    8.1566   10.0536   16.0516 O   0  0  0  0  0  0  0  0  0  0  0  0
   12.4989    6.2074   20.1776 C   0  0  0  0  0  0  0  0  0  0  0  0
    6.9192    9.1053   20.9073 O   0  0  0  0  0  0  0  0  0  0  0  0
   14.3979    6.0729   18.7784 C   0  0  0  0  0  0  0  0  0  0  0  0
    8.6811    9.5354   16.9998 C   0  0  0  0  0  0  0  0  0  0  0  0
    9.2512    4.2713   13.7653 O   0  0  0  0  0  0  0  0  0  0  0  0
    9.6495    8.6317   16.8332 N   0  0  0  0  0  0  0  0  0  0  0  0
    6.2934    8.6988   23.1988 O   0  0  0  0  0  0  0  0  0  0  0  0
    7.9806    8.6543   20.5437 C   0  0  0  0  0  0  0  0  0  0  0  0
   13.7270    5.7144   19.8610 O   0  0  0  0  0  0  0  0  0  0  0  0
    8.3351    5.5235   15.4478 C   0  0  0  0  0  0  0  0  0  0  0  0
    8.7700    7.8434   21.3915 C   0  0  0  0  0  0  0  0  0  0  0  0
   11.7856    6.8851   19.2401 C   0  0  0  0  0  0  0  0  0  0  0  0
   10.5281    7.4276   19.5649 C   0  0  0  0  0  0  0  0  0  0  0  0
   10.0256    7.2907   20.8484 C   0  0  0  0  0  0  0  0  0  0  0  0
    9.3113    5.3049   14.4911 C   0  0  0  0  0  0  0  0  0  0  0  0
    9.4607    7.5646   16.0139 C   0  0  0  0  0  0  0  0  0  0  0  0
   10.4192    7.3157   15.0955 C   0  0  0  0  0  0  0  0  0  0  0  0
   10.2489    6.4227   23.0218 N   0  0  0  0  0  0  0  0  0  0  0  0
    7.2472    8.0746   23.5050 C   0  0  0  0  0  0  0  0  0  0  0  0
    9.2051    6.9101   23.4604 C   0  0  0  0  0  0  0  0  0  0  0  0
   11.9646    6.0299   21.4251 C   0  0  0  0  0  0  0  0  0  0  0  0
  1  5  1  0
  1 13  1  0
  2 20  2  0
  2 28  1  0
  2 29  1  0
  3 19  4  0
  3 25  4  0
  4 23  4  0
  4 27  1  0
  4 30  4  0
  5 17  1  0
  6  8  1  0
  6 29  1  0
  7 24  4  0
  7 26  4  0
  8 28  1  0
  9 13  2  0
 10 18  1  0
 10 21  4  0
 10 30  4  0
 11 17  2  0
 12 18  1  0
 13 15  1  0
 14 24  1  0
 15 25  1  0
 16 28  2  0
 17 20  1  0
 19 24  4  0
 20 23  1  0
 21 22  4  0
 22 23  4  0
 25 26  4  0
 27 29  2  0
M  END
$$$$

 Created by Python create_sdf_string function

 30 33  0  0  0  0  0  0  0  0999 V2000
    8.3036    9.8571   18.4133 C   0  0  0  0  0  0  0  0  0  0  0  0
    8.3694    7.6612   22.6703 C   0  0  0  0  0  0  0  0  0  0  0  0
    8.4143    6.6863   16.2273 C   0  0  0  0  0  0  0  0  0  0  0  0
   10.7581    6.5674   21.7636 C   0  0  0  0  0  0  0  0  0  0  0  0
    8.4452    8.7960   19.2958 O   0  0  0  0  0  0  0  0  0  0  0  0
    8.7122    6.7842   24.8569 C   0  0  0  0  0  0  0  0  0  0  0  0
   10.3400    6.1726   14.3081 C   0  0  0  0  0  0  0  0  0  0  0  0
    7.4297    7.5873   24.8962 C   0  0  0  0  0  0  0  0  0  0  0  0
    8.1566   10.0536   16.0516 O   0  0  0  0  0  0  0  0  0  0  0  0
   12.4989    6.2074   20.1776 C   0  0  0  0  0  0  0  0  0  0  0  0
    6.9192    9.1053   20.9073 O   0  0  0  0  0  0  0  0  0  0  0  0
   14.3979    6.0729   18.7784 C   0  0  0  0  0  0  0  0  0  0  0  0
    8.6811    9.5354   16.9998 C   0  0  0  0  0  0  0  0  0  0  0  0
    9.2512    4.2713   13.7653 O   0  0  0  0  0  0  0  0  0  0  0  0
    9.6495    8.6317   16.8332 N   0  0  0  0  0  0  0  0  0  0  0  0
    6.2934    8.6988   23.1988 O   0  0  0  0  0  0  0  0  0  0  0  0
    7.9806    8.6543   20.5437 C   0  0  0  0  0  0  0  0  0  0  0  0
   13.7270    5.7144   19.8610 O   0  0  0  0  0  0  0  0  0  0  0  0
    8.3351    5.5235   15.4478 C   0  0  0  0  0  0  0  0  0  0  0  0
    8.7700    7.8434   21.3915 C   0  0  0  0  0  0  0  0  0  0  0  0
   11.7856    6.8851   19.2401 C   0  0  0  0  0  0  0  0  0  0  0  0
   10.5281    7.4276   19.5649 C   0  0  0  0  0  0  0  0  0  0  0  0
   10.0256    7.2907   20.8484 C   0  0  0  0  0  0  0  0  0  0  0  0
    9.3113    5.3049   14.4911 C   0  0  0  0  0  0  0  0  0  0  0  0
    9.4607    7.5646   16.0139 C   0  0  0  0  0  0  0  0  0  0  0  0
   10.4192    7.3157   15.0955 C   0  0  0  0  0  0  0  0  0  0  0  0
   10.2489    6.4227   23.0218 N   0  0  0  0  0  0  0  0  0  0  0  0
    7.2472    8.0746   23.5050 C   0  0  0  0  0  0  0  0  0  0  0  0
    9.2051    6.9101   23.4604 C   0  0  0  0  0  0  0  0  0  0  0  0
   11.9646    6.0299   21.4251 C   0  0  0  0  0  0  0  0  0  0  0  0
  1  5  1  0
  1 13  1  0
  2 20  2  0
  2 28  1  0
  2 29  1  0
  3 19  4  0
  3 25  4  0
  4 23  4  0
  4 27  1  0
  4 30  4  0
  5 17  1  0
  6  8  1  0
  6 29  1  0
  7 24  4  0
  7 26  4  0
  8 28  1  0
  9 13  2  0
 10 18  1  0
 10 21  4  0
 10 30  4  0
 11 17  2  0
 12 18  1  0
 13 15  1  0
 14 24  1  0
 15 25  1  0
 16 28  2  0
 17 20  1  0
 19 24  4  0
 20 23  1  0
 21 22  4  0
 22 23  4  0
 25 26  4  0
 27 29  2  0
M  END
$$$$

 Created by Python create_sdf_string function

 30 33  0  0  0  0  0  0  0  0999 V2000
    8.3036    9.8571   18.4133 C   0  0  0  0  0  0  0  0  0  0  0  0
    8.3694    7.6612   22.6703 C   0  0  0  0  0  0  0  0  0  0  0  0
    8.4143    6.6863   16.2273 C   0  0  0  0  0  0  0  0  0  0  0  0
   10.7581    6.5674   21.7636 C   0  0  0  0  0  0  0  0  0  0  0  0
    8.4452    8.7960   19.2958 O   0  0  0  0  0  0  0  0  0  0  0  0
    8.7122    6.7842   24.8569 C   0  0  0  0  0  0  0  0  0  0  0  0
   10.3400    6.1726   14.3081 C   0  0  0  0  0  0  0  0  0  0  0  0
    7.4297    7.5873   24.8962 C   0  0  0  0  0  0  0  0  0  0  0  0
    8.1566   10.0536   16.0516 O   0  0  0  0  0  0  0  0  0  0  0  0
   12.4989    6.2074   20.1776 C   0  0  0  0  0  0  0  0  0  0  0  0
    6.9192    9.1053   20.9073 O   0  0  0  0  0  0  0  0  0  0  0  0
   14.3979    6.0729   18.7784 C   0  0  0  0  0  0  0  0  0  0  0  0
    8.6811    9.5354   16.9998 C   0  0  0  0  0  0  0  0  0  0  0  0
    9.2512    4.2713   13.7653 O   0  0  0  0  0  0  0  0  0  0  0  0
    9.6495    8.6317   16.8332 N   0  0  0  0  0  0  0  0  0  0  0  0
    6.2934    8.6988   23.1988 O   0  0  0  0  0  0  0  0  0  0  0  0
    7.9806    8.6543   20.5437 C   0  0  0  0  0  0  0  0  0  0  0  0
   13.7270    5.7144   19.8610 O   0  0  0  0  0  0  0  0  0  0  0  0
    8.3351    5.5235   15.4478 C   0  0  0  0  0  0  0  0  0  0  0  0
    8.7700    7.8434   21.3915 C   0  0  0  0  0  0  0  0  0  0  0  0
   11.7856    6.8851   19.2401 C   0  0  0  0  0  0  0  0  0  0  0  0
   10.5281    7.4276   19.5649 C   0  0  0  0  0  0  0  0  0  0  0  0
   10.0256    7.2907   20.8484 C   0  0  0  0  0  0  0  0  0  0  0  0
    9.3113    5.3049   14.4911 C   0  0  0  0  0  0  0  0  0  0  0  0
    9.4607    7.5646   16.0139 C   0  0  0  0  0  0  0  0  0  0  0  0
   10.4192    7.3157   15.0955 C   0  0  0  0  0  0  0  0  0  0  0  0
   10.2489    6.4227   23.0218 N   0  0  0  0  0  0  0  0  0  0  0  0
    7.2472    8.0746   23.5050 C   0  0  0  0  0  0  0  0  0  0  0  0
    9.2051    6.9101   23.4604 C   0  0  0  0  0  0  0  0  0  0  0  0
   11.9646    6.0299   21.4251 C   0  0  0  0  0  0  0  0  0  0  0  0
  1  5  1  0
  1 13  1  0
  2 20  2  0
  2 28  1  0
  2 29  1  0
  3 19  4  0
  3 25  4  0
  4 23  4  0
  4 27  1  0
  4 30  4  0
  5 17  1  0
  6  8  1  0
  6 29  1  0
  7 24  4  0
  7 26  4  0
  8 28  1  0
  9 13  2  0
 10 18  1  0
 10 21  4  0
 10 30  4  0
 11 17  2  0
 12 18  1  0
 13 15  1  0
 14 24  1  0
 15 25  1  0
 16 28  2  0
 17 20  1  0
 19 24  4  0
 20 23  1  0
 21 22  4  0
 22 23  4  0
 25 26  4  0
 27 29  2  0
M  END
$$$$

 Created by Python create_sdf_string function

 30 33  0  0  0  0  0  0  0  0999 V2000
    8.3036    9.8571   18.4133 C   0  0  0  0  0  0  0  0  0  0  0  0
    8.3694    7.6612   22.6703 C   0  0  0  0  0  0  0  0  0  0  0  0
    8.4143    6.6863   16.2273 C   0  0  0  0  0  0  0  0  0  0  0  0
   10.7581    6.5674   21.7636 C   0  0  0  0  0  0  0  0  0  0  0  0
    8.4452    8.7960   19.2958 O   0  0  0  0  0  0  0  0  0  0  0  0
    8.7122    6.7842   24.8569 C   0  0  0  0  0  0  0  0  0  0  0  0
   10.3400    6.1726   14.3081 C   0  0  0  0  0  0  0  0  0  0  0  0
    7.4297    7.5873   24.8962 C   0  0  0  0  0  0  0  0  0  0  0  0
    8.1566   10.0536   16.0516 O   0  0  0  0  0  0  0  0  0  0  0  0
   12.4989    6.2074   20.1776 C   0  0  0  0  0  0  0  0  0  0  0  0
    6.9192    9.1053   20.9073 O   0  0  0  0  0  0  0  0  0  0  0  0
   14.3979    6.0729   18.7784 C   0  0  0  0  0  0  0  0  0  0  0  0
    8.6811    9.5354   16.9998 C   0  0  0  0  0  0  0  0  0  0  0  0
    9.2512    4.2713   13.7653 O   0  0  0  0  0  0  0  0  0  0  0  0
    9.6495    8.6317   16.8332 N   0  0  0  0  0  0  0  0  0  0  0  0
    6.2934    8.6988   23.1988 O   0  0  0  0  0  0  0  0  0  0  0  0
    7.9806    8.6543   20.5437 C   0  0  0  0  0  0  0  0  0  0  0  0
   13.7270    5.7144   19.8610 O   0  0  0  0  0  0  0  0  0  0  0  0
    8.3351    5.5235   15.4478 C   0  0  0  0  0  0  0  0  0  0  0  0
    8.7700    7.8434   21.3915 C   0  0  0  0  0  0  0  0  0  0  0  0
   11.7856    6.8851   19.2401 C   0  0  0  0  0  0  0  0  0  0  0  0
   10.5281    7.4276   19.5649 C   0  0  0  0  0  0  0  0  0  0  0  0
   10.0256    7.2907   20.8484 C   0  0  0  0  0  0  0  0  0  0  0  0
    9.3113    5.3049   14.4911 C   0  0  0  0  0  0  0  0  0  0  0  0
    9.4607    7.5646   16.0139 C   0  0  0  0  0  0  0  0  0  0  0  0
   10.4192    7.3157   15.0955 C   0  0  0  0  0  0  0  0  0  0  0  0
   10.2489    6.4227   23.0218 N   0  0  0  0  0  0  0  0  0  0  0  0
    7.2472    8.0746   23.5050 C   0  0  0  0  0  0  0  0  0  0  0  0
    9.2051    6.9101   23.4604 C   0  0  0  0  0  0  0  0  0  0  0  0
   11.9646    6.0299   21.4251 C   0  0  0  0  0  0  0  0  0  0  0  0
  1  5  1  0
  1 13  1  0
  2 20  2  0
  2 28  1  0
  2 29  1  0
  3 19  4  0
  3 25  4  0
  4 23  4  0
  4 27  1  0
  4 30  4  0
  5 17  1  0
  6  8  1  0
  6 29  1  0
  7 24  4  0
  7 26  4  0
  8 28  1  0
  9 13  2  0
 10 18  1  0
 10 21  4  0
 10 30  4  0
 11 17  2  0
 12 18  1  0
 13 15  1  0
 14 24  1  0
 15 25  1  0
 16 28  2  0
 17 20  1  0
 19 24  4  0
 20 23  1  0
 21 22  4  0
 22 23  4  0
 25 26  4  0
 27 29  2  0
M  END
$$$$

 Created by Python create_sdf_string function

 30 33  0  0  0  0  0  0  0  0999 V2000
    8.3036    9.8571   18.4133 C   0  0  0  0  0  0  0  0  0  0  0  0
    8.3694    7.6612   22.6703 C   0  0  0  0  0  0  0  0  0  0  0  0
    8.4143    6.6863   16.2273 C   0  0  0  0  0  0  0  0  0  0  0  0
   10.7581    6.5674   21.7636 C   0  0  0  0  0  0  0  0  0  0  0  0
    8.4452    8.7960   19.2958 O   0  0  0  0  0  0  0  0  0  0  0  0
    8.7122    6.7842   24.8569 C   0  0  0  0  0  0  0  0  0  0  0  0
   10.3400    6.1726   14.3081 C   0  0  0  0  0  0  0  0  0  0  0  0
    7.4297    7.5873   24.8962 C   0  0  0  0  0  0  0  0  0  0  0  0
    8.1566   10.0536   16.0516 O   0  0  0  0  0  0  0  0  0  0  0  0
   12.4989    6.2074   20.1776 C   0  0  0  0  0  0  0  0  0  0  0  0
    6.9192    9.1053   20.9073 O   0  0  0  0  0  0  0  0  0  0  0  0
   14.3979    6.0729   18.7784 C   0  0  0  0  0  0  0  0  0  0  0  0
    8.6811    9.5354   16.9998 C   0  0  0  0  0  0  0  0  0  0  0  0
    9.2512    4.2713   13.7653 O   0  0  0  0  0  0  0  0  0  0  0  0
    9.6495    8.6317   16.8332 N   0  0  0  0  0  0  0  0  0  0  0  0
    6.2934    8.6988   23.1988 O   0  0  0  0  0  0  0  0  0  0  0  0
    7.9806    8.6543   20.5437 C   0  0  0  0  0  0  0  0  0  0  0  0
   13.7270    5.7144   19.8610 O   0  0  0  0  0  0  0  0  0  0  0  0
    8.3351    5.5235   15.4478 C   0  0  0  0  0  0  0  0  0  0  0  0
    8.7700    7.8434   21.3915 C   0  0  0  0  0  0  0  0  0  0  0  0
   11.7856    6.8851   19.2401 C   0  0  0  0  0  0  0  0  0  0  0  0
   10.5281    7.4276   19.5649 C   0  0  0  0  0  0  0  0  0  0  0  0
   10.0256    7.2907   20.8484 C   0  0  0  0  0  0  0  0  0  0  0  0
    9.3113    5.3049   14.4911 C   0  0  0  0  0  0  0  0  0  0  0  0
    9.4607    7.5646   16.0139 C   0  0  0  0  0  0  0  0  0  0  0  0
   10.4192    7.3157   15.0955 C   0  0  0  0  0  0  0  0  0  0  0  0
   10.2489    6.4227   23.0218 N   0  0  0  0  0  0  0  0  0  0  0  0
    7.2472    8.0746   23.5050 C   0  0  0  0  0  0  0  0  0  0  0  0
    9.2051    6.9101   23.4604 C   0  0  0  0  0  0  0  0  0  0  0  0
   11.9646    6.0299   21.4251 C   0  0  0  0  0  0  0  0  0  0  0  0
  1  5  1  0
  1 13  1  0
  2 20  2  0
  2 28  1  0
  2 29  1  0
  3 19  4  0
  3 25  4  0
  4 23  4  0
  4 27  1  0
  4 30  4  0
  5 17  1  0
  6  8  1  0
  6 29  1  0
  7 24  4  0
  7 26  4  0
  8 28  1  0
  9 13  2  0
 10 18  1  0
 10 21  4  0
 10 30  4  0
 11 17  2  0
 12 18  1  0
 13 15  1  0
 14 24  1  0
 15 25  1  0
 16 28  2  0
 17 20  1  0
 19 24  4  0
 20 23  1  0
 21 22  4  0
 22 23  4  0
 25 26  4  0
 27 29  2  0
M  END
$$$$

 Created by Python create_sdf_string function

 30 33  0  0  0  0  0  0  0  0999 V2000
    8.3036    9.8571   18.4133 C   0  0  0  0  0  0  0  0  0  0  0  0
    8.3694    7.6612   22.6703 C   0  0  0  0  0  0  0  0  0  0  0  0
    8.4143    6.6863   16.2273 C   0  0  0  0  0  0  0  0  0  0  0  0
   10.7581    6.5674   21.7636 C   0  0  0  0  0  0  0  0  0  0  0  0
    8.4452    8.7960   19.2958 O   0  0  0  0  0  0  0  0  0  0  0  0
    8.7122    6.7842   24.8569 C   0  0  0  0  0  0  0  0  0  0  0  0
   10.3400    6.1726   14.3081 C   0  0  0  0  0  0  0  0  0  0  0  0
    7.4297    7.5873   24.8962 C   0  0  0  0  0  0  0  0  0  0  0  0
    8.1566   10.0536   16.0516 O   0  0  0  0  0  0  0  0  0  0  0  0
   12.4989    6.2074   20.1776 C   0  0  0  0  0  0  0  0  0  0  0  0
    6.9192    9.1053   20.9073 O   0  0  0  0  0  0  0  0  0  0  0  0
   14.3979    6.0729   18.7784 C   0  0  0  0  0  0  0  0  0  0  0  0
    8.6811    9.5354   16.9998 C   0  0  0  0  0  0  0  0  0  0  0  0
    9.2512    4.2713   13.7653 O   0  0  0  0  0  0  0  0  0  0  0  0
    9.6495    8.6317   16.8332 N   0  0  0  0  0  0  0  0  0  0  0  0
    6.2934    8.6988   23.1988 O   0  0  0  0  0  0  0  0  0  0  0  0
    7.9806    8.6543   20.5437 C   0  0  0  0  0  0  0  0  0  0  0  0
   13.7270    5.7144   19.8610 O   0  0  0  0  0  0  0  0  0  0  0  0
    8.3351    5.5235   15.4478 C   0  0  0  0  0  0  0  0  0  0  0  0
    8.7700    7.8434   21.3915 C   0  0  0  0  0  0  0  0  0  0  0  0
   11.7856    6.8851   19.2401 C   0  0  0  0  0  0  0  0  0  0  0  0
   10.5281    7.4276   19.5649 C   0  0  0  0  0  0  0  0  0  0  0  0
   10.0256    7.2907   20.8484 C   0  0  0  0  0  0  0  0  0  0  0  0
    9.3113    5.3049   14.4911 C   0  0  0  0  0  0  0  0  0  0  0  0
    9.4607    7.5646   16.0139 C   0  0  0  0  0  0  0  0  0  0  0  0
   10.4192    7.3157   15.0955 C   0  0  0  0  0  0  0  0  0  0  0  0
   10.2489    6.4227   23.0218 N   0  0  0  0  0  0  0  0  0  0  0  0
    7.2472    8.0746   23.5050 C   0  0  0  0  0  0  0  0  0  0  0  0
    9.2051    6.9101   23.4604 C   0  0  0  0  0  0  0  0  0  0  0  0
   11.9646    6.0299   21.4251 C   0  0  0  0  0  0  0  0  0  0  0  0
  1  5  1  0
  1 13  1  0
  2 20  2  0
  2 28  1  0
  2 29  1  0
  3 19  4  0
  3 25  4  0
  4 23  4  0
  4 27  1  0
  4 30  4  0
  5 17  1  0
  6  8  1  0
  6 29  1  0
  7 24  4  0
  7 26  4  0
  8 28  1  0
  9 13  2  0
 10 18  1  0
 10 21  4  0
 10 30  4  0
 11 17  2  0
 12 18  1  0
 13 15  1  0
 14 24  1  0
 15 25  1  0
 16 28  2  0
 17 20  1  0
 19 24  4  0
 20 23  1  0
 21 22  4  0
 22 23  4  0
 25 26  4  0
 27 29  2  0
M  END
$$$$

 Created by Python create_sdf_string function

 30 33  0  0  0  0  0  0  0  0999 V2000
    8.3036    9.8571   18.4133 C   0  0  0  0  0  0  0  0  0  0  0  0
    8.3694    7.6612   22.6703 C   0  0  0  0  0  0  0  0  0  0  0  0
    8.4143    6.6863   16.2273 C   0  0  0  0  0  0  0  0  0  0  0  0
   10.7581    6.5674   21.7636 C   0  0  0  0  0  0  0  0  0  0  0  0
    8.4452    8.7960   19.2958 O   0  0  0  0  0  0  0  0  0  0  0  0
    8.7122    6.7842   24.8569 C   0  0  0  0  0  0  0  0  0  0  0  0
   10.3400    6.1726   14.3081 C   0  0  0  0  0  0  0  0  0  0  0  0
    7.4297    7.5873   24.8962 C   0  0  0  0  0  0  0  0  0  0  0  0
    8.1566   10.0536   16.0516 O   0  0  0  0  0  0  0  0  0  0  0  0
   12.4989    6.2074   20.1776 C   0  0  0  0  0  0  0  0  0  0  0  0
    6.9192    9.1053   20.9073 O   0  0  0  0  0  0  0  0  0  0  0  0
   14.3979    6.0729   18.7784 C   0  0  0  0  0  0  0  0  0  0  0  0
    8.6811    9.5354   16.9998 C   0  0  0  0  0  0  0  0  0  0  0  0
    9.2512    4.2713   13.7653 O   0  0  0  0  0  0  0  0  0  0  0  0
    9.6495    8.6317   16.8332 N   0  0  0  0  0  0  0  0  0  0  0  0
    6.2934    8.6988   23.1988 O   0  0  0  0  0  0  0  0  0  0  0  0
    7.9806    8.6543   20.5437 C   0  0  0  0  0  0  0  0  0  0  0  0
   13.7270    5.7144   19.8610 O   0  0  0  0  0  0  0  0  0  0  0  0
    8.3351    5.5235   15.4478 C   0  0  0  0  0  0  0  0  0  0  0  0
    8.7700    7.8434   21.3915 C   0  0  0  0  0  0  0  0  0  0  0  0
   11.7856    6.8851   19.2401 C   0  0  0  0  0  0  0  0  0  0  0  0
   10.5281    7.4276   19.5649 C   0  0  0  0  0  0  0  0  0  0  0  0
   10.0256    7.2907   20.8484 C   0  0  0  0  0  0  0  0  0  0  0  0
    9.3113    5.3049   14.4911 C   0  0  0  0  0  0  0  0  0  0  0  0
    9.4607    7.5646   16.0139 C   0  0  0  0  0  0  0  0  0  0  0  0
   10.4192    7.3157   15.0955 C   0  0  0  0  0  0  0  0  0  0  0  0
   10.2489    6.4227   23.0218 N   0  0  0  0  0  0  0  0  0  0  0  0
    7.2472    8.0746   23.5050 C   0  0  0  0  0  0  0  0  0  0  0  0
    9.2051    6.9101   23.4604 C   0  0  0  0  0  0  0  0  0  0  0  0
   11.9646    6.0299   21.4251 C   0  0  0  0  0  0  0  0  0  0  0  0
  1  5  1  0
  1 13  1  0
  2 20  2  0
  2 28  1  0
  2 29  1  0
  3 19  4  0
  3 25  4  0
  4 23  4  0
  4 27  1  0
  4 30  4  0
  5 17  1  0
  6  8  1  0
  6 29  1  0
  7 24  4  0
  7 26  4  0
  8 28  1  0
  9 13  2  0
 10 18  1  0
 10 21  4  0
 10 30  4  0
 11 17  2  0
 12 18  1  0
 13 15  1  0
 14 24  1  0
 15 25  1  0
 16 28  2  0
 17 20  1  0
 19 24  4  0
 20 23  1  0
 21 22  4  0
 22 23  4  0
 25 26  4  0
 27 29  2  0
M  END
$$$$

 Created by Python create_sdf_string function

 30 33  0  0  0  0  0  0  0  0999 V2000
    8.3036    9.8571   18.4133 C   0  0  0  0  0  0  0  0  0  0  0  0
    8.3694    7.6612   22.6703 C   0  0  0  0  0  0  0  0  0  0  0  0
    8.4143    6.6863   16.2273 C   0  0  0  0  0  0  0  0  0  0  0  0
   10.7581    6.5674   21.7636 C   0  0  0  0  0  0  0  0  0  0  0  0
    8.4452    8.7960   19.2958 O   0  0  0  0  0  0  0  0  0  0  0  0
    8.7122    6.7842   24.8569 C   0  0  0  0  0  0  0  0  0  0  0  0
   10.3400    6.1726   14.3081 C   0  0  0  0  0  0  0  0  0  0  0  0
    7.4297    7.5873   24.8962 C   0  0  0  0  0  0  0  0  0  0  0  0
    8.1566   10.0536   16.0516 O   0  0  0  0  0  0  0  0  0  0  0  0
   12.4989    6.2074   20.1776 C   0  0  0  0  0  0  0  0  0  0  0  0
    6.9192    9.1053   20.9073 O   0  0  0  0  0  0  0  0  0  0  0  0
   14.3979    6.0729   18.7784 C   0  0  0  0  0  0  0  0  0  0  0  0
    8.6811    9.5354   16.9998 C   0  0  0  0  0  0  0  0  0  0  0  0
    9.2512    4.2713   13.7653 O   0  0  0  0  0  0  0  0  0  0  0  0
    9.6495    8.6317   16.8332 N   0  0  0  0  0  0  0  0  0  0  0  0
    6.2934    8.6988   23.1988 O   0  0  0  0  0  0  0  0  0  0  0  0
    7.9806    8.6543   20.5437 C   0  0  0  0  0  0  0  0  0  0  0  0
   13.7270    5.7144   19.8610 O   0  0  0  0  0  0  0  0  0  0  0  0
    8.3351    5.5235   15.4478 C   0  0  0  0  0  0  0  0  0  0  0  0
    8.7700    7.8434   21.3915 C   0  0  0  0  0  0  0  0  0  0  0  0
   11.7856    6.8851   19.2401 C   0  0  0  0  0  0  0  0  0  0  0  0
   10.5281    7.4276   19.5649 C   0  0  0  0  0  0  0  0  0  0  0  0
   10.0256    7.2907   20.8484 C   0  0  0  0  0  0  0  0  0  0  0  0
    9.3113    5.3049   14.4911 C   0  0  0  0  0  0  0  0  0  0  0  0
    9.4607    7.5646   16.0139 C   0  0  0  0  0  0  0  0  0  0  0  0
   10.4192    7.3157   15.0955 C   0  0  0  0  0  0  0  0  0  0  0  0
   10.2489    6.4227   23.0218 N   0  0  0  0  0  0  0  0  0  0  0  0
    7.2472    8.0746   23.5050 C   0  0  0  0  0  0  0  0  0  0  0  0
    9.2051    6.9101   23.4604 C   0  0  0  0  0  0  0  0  0  0  0  0
   11.9646    6.0299   21.4251 C   0  0  0  0  0  0  0  0  0  0  0  0
  1  5  1  0
  1 13  1  0
  2 20  2  0
  2 28  1  0
  2 29  1  0
  3 19  4  0
  3 25  4  0
  4 23  4  0
  4 27  1  0
  4 30  4  0
  5 17  1  0
  6  8  1  0
  6 29  1  0
  7 24  4  0
  7 26  4  0
  8 28  1  0
  9 13  2  0
 10 18  1  0
 10 21  4  0
 10 30  4  0
 11 17  2  0
 12 18  1  0
 13 15  1  0
 14 24  1  0
 15 25  1  0
 16 28  2  0
 17 20  1  0
 19 24  4  0
 20 23  1  0
 21 22  4  0
 22 23  4  0
 25 26  4  0
 27 29  2  0
M  END
$$$$

 Created by Python create_sdf_string function

 30 33  0  0  0  0  0  0  0  0999 V2000
    8.3036    9.8571   18.4133 C   0  0  0  0  0  0  0  0  0  0  0  0
    8.3694    7.6612   22.6703 C   0  0  0  0  0  0  0  0  0  0  0  0
    8.4143    6.6863   16.2273 C   0  0  0  0  0  0  0  0  0  0  0  0
   10.7581    6.5674   21.7636 C   0  0  0  0  0  0  0  0  0  0  0  0
    8.4452    8.7960   19.2958 O   0  0  0  0  0  0  0  0  0  0  0  0
    8.7122    6.7842   24.8569 C   0  0  0  0  0  0  0  0  0  0  0  0
   10.3400    6.1726   14.3081 C   0  0  0  0  0  0  0  0  0  0  0  0
    7.4297    7.5873   24.8962 C   0  0  0  0  0  0  0  0  0  0  0  0
    8.1566   10.0536   16.0516 O   0  0  0  0  0  0  0  0  0  0  0  0
   12.4989    6.2074   20.1776 C   0  0  0  0  0  0  0  0  0  0  0  0
    6.9192    9.1053   20.9073 O   0  0  0  0  0  0  0  0  0  0  0  0
   14.3979    6.0729   18.7784 C   0  0  0  0  0  0  0  0  0  0  0  0
    8.6811    9.5354   16.9998 C   0  0  0  0  0  0  0  0  0  0  0  0
    9.2512    4.2713   13.7653 O   0  0  0  0  0  0  0  0  0  0  0  0
    9.6495    8.6317   16.8332 N   0  0  0  0  0  0  0  0  0  0  0  0
    6.2934    8.6988   23.1988 O   0  0  0  0  0  0  0  0  0  0  0  0
    7.9806    8.6543   20.5437 C   0  0  0  0  0  0  0  0  0  0  0  0
   13.7270    5.7144   19.8610 O   0  0  0  0  0  0  0  0  0  0  0  0
    8.3351    5.5235   15.4478 C   0  0  0  0  0  0  0  0  0  0  0  0
    8.7700    7.8434   21.3915 C   0  0  0  0  0  0  0  0  0  0  0  0
   11.7856    6.8851   19.2401 C   0  0  0  0  0  0  0  0  0  0  0  0
   10.5281    7.4276   19.5649 C   0  0  0  0  0  0  0  0  0  0  0  0
   10.0256    7.2907   20.8484 C   0  0  0  0  0  0  0  0  0  0  0  0
    9.3113    5.3049   14.4911 C   0  0  0  0  0  0  0  0  0  0  0  0
    9.4607    7.5646   16.0139 C   0  0  0  0  0  0  0  0  0  0  0  0
   10.4192    7.3157   15.0955 C   0  0  0  0  0  0  0  0  0  0  0  0
   10.2489    6.4227   23.0218 N   0  0  0  0  0  0  0  0  0  0  0  0
    7.2472    8.0746   23.5050 C   0  0  0  0  0  0  0  0  0  0  0  0
    9.2051    6.9101   23.4604 C   0  0  0  0  0  0  0  0  0  0  0  0
   11.9646    6.0299   21.4251 C   0  0  0  0  0  0  0  0  0  0  0  0
  1  5  1  0
  1 13  1  0
  2 20  2  0
  2 28  1  0
  2 29  1  0
  3 19  4  0
  3 25  4  0
  4 23  4  0
  4 27  1  0
  4 30  4  0
  5 17  1  0
  6  8  1  0
  6 29  1  0
  7 24  4  0
  7 26  4  0
  8 28  1  0
  9 13  2  0
 10 18  1  0
 10 21  4  0
 10 30  4  0
 11 17  2  0
 12 18  1  0
 13 15  1  0
 14 24  1  0
 15 25  1  0
 16 28  2  0
 17 20  1  0
 19 24  4  0
 20 23  1  0
 21 22  4  0
 22 23  4  0
 25 26  4  0
 27 29  2  0
M  END
$$$$

 Created by Python create_sdf_string function

 30 33  0  0  0  0  0  0  0  0999 V2000
    8.3036    9.8571   18.4133 C   0  0  0  0  0  0  0  0  0  0  0  0
    8.3694    7.6612   22.6703 C   0  0  0  0  0  0  0  0  0  0  0  0
    8.4143    6.6863   16.2273 C   0  0  0  0  0  0  0  0  0  0  0  0
   10.7581    6.5674   21.7636 C   0  0  0  0  0  0  0  0  0  0  0  0
    8.4452    8.7960   19.2958 O   0  0  0  0  0  0  0  0  0  0  0  0
    8.7122    6.7842   24.8569 C   0  0  0  0  0  0  0  0  0  0  0  0
   10.3400    6.1726   14.3081 C   0  0  0  0  0  0  0  0  0  0  0  0
    7.4297    7.5873   24.8962 C   0  0  0  0  0  0  0  0  0  0  0  0
    8.1566   10.0536   16.0516 O   0  0  0  0  0  0  0  0  0  0  0  0
   12.4989    6.2074   20.1776 C   0  0  0  0  0  0  0  0  0  0  0  0
    6.9192    9.1053   20.9073 O   0  0  0  0  0  0  0  0  0  0  0  0
   14.3979    6.0729   18.7784 C   0  0  0  0  0  0  0  0  0  0  0  0
    8.6811    9.5354   16.9998 C   0  0  0  0  0  0  0  0  0  0  0  0
    9.2512    4.2713   13.7653 O   0  0  0  0  0  0  0  0  0  0  0  0
    9.6495    8.6317   16.8332 N   0  0  0  0  0  0  0  0  0  0  0  0
    6.2934    8.6988   23.1988 O   0  0  0  0  0  0  0  0  0  0  0  0
    7.9806    8.6543   20.5437 C   0  0  0  0  0  0  0  0  0  0  0  0
   13.7270    5.7144   19.8610 O   0  0  0  0  0  0  0  0  0  0  0  0
    8.3351    5.5235   15.4478 C   0  0  0  0  0  0  0  0  0  0  0  0
    8.7700    7.8434   21.3915 C   0  0  0  0  0  0  0  0  0  0  0  0
   11.7856    6.8851   19.2401 C   0  0  0  0  0  0  0  0  0  0  0  0
   10.5281    7.4276   19.5649 C   0  0  0  0  0  0  0  0  0  0  0  0
   10.0256    7.2907   20.8484 C   0  0  0  0  0  0  0  0  0  0  0  0
    9.3113    5.3049   14.4911 C   0  0  0  0  0  0  0  0  0  0  0  0
    9.4607    7.5646   16.0139 C   0  0  0  0  0  0  0  0  0  0  0  0
   10.4192    7.3157   15.0955 C   0  0  0  0  0  0  0  0  0  0  0  0
   10.2489    6.4227   23.0218 N   0  0  0  0  0  0  0  0  0  0  0  0
    7.2472    8.0746   23.5050 C   0  0  0  0  0  0  0  0  0  0  0  0
    9.2051    6.9101   23.4604 C   0  0  0  0  0  0  0  0  0  0  0  0
   11.9646    6.0299   21.4251 C   0  0  0  0  0  0  0  0  0  0  0  0
  1  5  1  0
  1 13  1  0
  2 20  2  0
  2 28  1  0
  2 29  1  0
  3 19  4  0
  3 25  4  0
  4 23  4  0
  4 27  1  0
  4 30  4  0
  5 17  1  0
  6  8  1  0
  6 29  1  0
  7 24  4  0
  7 26  4  0
  8 28  1  0
  9 13  2  0
 10 18  1  0
 10 21  4  0
 10 30  4  0
 11 17  2  0
 12 18  1  0
 13 15  1  0
 14 24  1  0
 15 25  1  0
 16 28  2  0
 17 20  1  0
 19 24  4  0
 20 23  1  0
 21 22  4  0
 22 23  4  0
 25 26  4  0
 27 29  2  0
M  END
$$$$

 Created by Python create_sdf_string function

 30 33  0  0  0  0  0  0  0  0999 V2000
    8.3036    9.8571   18.4133 C   0  0  0  0  0  0  0  0  0  0  0  0
    8.3694    7.6612   22.6703 C   0  0  0  0  0  0  0  0  0  0  0  0
    8.4143    6.6863   16.2273 C   0  0  0  0  0  0  0  0  0  0  0  0
   10.7581    6.5674   21.7636 C   0  0  0  0  0  0  0  0  0  0  0  0
    8.4452    8.7960   19.2958 O   0  0  0  0  0  0  0  0  0  0  0  0
    8.7122    6.7842   24.8569 C   0  0  0  0  0  0  0  0  0  0  0  0
   10.3400    6.1726   14.3081 C   0  0  0  0  0  0  0  0  0  0  0  0
    7.4297    7.5873   24.8962 C   0  0  0  0  0  0  0  0  0  0  0  0
    8.1566   10.0536   16.0516 O   0  0  0  0  0  0  0  0  0  0  0  0
   12.4989    6.2074   20.1776 C   0  0  0  0  0  0  0  0  0  0  0  0
    6.9192    9.1053   20.9073 O   0  0  0  0  0  0  0  0  0  0  0  0
   14.3979    6.0729   18.7784 C   0  0  0  0  0  0  0  0  0  0  0  0
    8.6811    9.5354   16.9998 C   0  0  0  0  0  0  0  0  0  0  0  0
    9.2512    4.2713   13.7653 O   0  0  0  0  0  0  0  0  0  0  0  0
    9.6495    8.6317   16.8332 N   0  0  0  0  0  0  0  0  0  0  0  0
    6.2934    8.6988   23.1988 O   0  0  0  0  0  0  0  0  0  0  0  0
    7.9806    8.6543   20.5437 C   0  0  0  0  0  0  0  0  0  0  0  0
   13.7270    5.7144   19.8610 O   0  0  0  0  0  0  0  0  0  0  0  0
    8.3351    5.5235   15.4478 C   0  0  0  0  0  0  0  0  0  0  0  0
    8.7700    7.8434   21.3915 C   0  0  0  0  0  0  0  0  0  0  0  0
   11.7856    6.8851   19.2401 C   0  0  0  0  0  0  0  0  0  0  0  0
   10.5281    7.4276   19.5649 C   0  0  0  0  0  0  0  0  0  0  0  0
   10.0256    7.2907   20.8484 C   0  0  0  0  0  0  0  0  0  0  0  0
    9.3113    5.3049   14.4911 C   0  0  0  0  0  0  0  0  0  0  0  0
    9.4607    7.5646   16.0139 C   0  0  0  0  0  0  0  0  0  0  0  0
   10.4192    7.3157   15.0955 C   0  0  0  0  0  0  0  0  0  0  0  0
   10.2489    6.4227   23.0218 N   0  0  0  0  0  0  0  0  0  0  0  0
    7.2472    8.0746   23.5050 C   0  0  0  0  0  0  0  0  0  0  0  0
    9.2051    6.9101   23.4604 C   0  0  0  0  0  0  0  0  0  0  0  0
   11.9646    6.0299   21.4251 C   0  0  0  0  0  0  0  0  0  0  0  0
  1  5  1  0
  1 13  1  0
  2 20  2  0
  2 28  1  0
  2 29  1  0
  3 19  4  0
  3 25  4  0
  4 23  4  0
  4 27  1  0
  4 30  4  0
  5 17  1  0
  6  8  1  0
  6 29  1  0
  7 24  4  0
  7 26  4  0
  8 28  1  0
  9 13  2  0
 10 18  1  0
 10 21  4  0
 10 30  4  0
 11 17  2  0
 12 18  1  0
 13 15  1  0
 14 24  1  0
 15 25  1  0
 16 28  2  0
 17 20  1  0
 19 24  4  0
 20 23  1  0
 21 22  4  0
 22 23  4  0
 25 26  4  0
 27 29  2  0
M  END
$$$$

 Created by Python create_sdf_string function

 30 33  0  0  0  0  0  0  0  0999 V2000
    8.3036    9.8571   18.4133 C   0  0  0  0  0  0  0  0  0  0  0  0
    8.3694    7.6612   22.6703 C   0  0  0  0  0  0  0  0  0  0  0  0
    8.4143    6.6863   16.2273 C   0  0  0  0  0  0  0  0  0  0  0  0
   10.7581    6.5674   21.7636 C   0  0  0  0  0  0  0  0  0  0  0  0
    8.4452    8.7960   19.2958 O   0  0  0  0  0  0  0  0  0  0  0  0
    8.7122    6.7842   24.8569 C   0  0  0  0  0  0  0  0  0  0  0  0
   10.3400    6.1726   14.3081 C   0  0  0  0  0  0  0  0  0  0  0  0
    7.4297    7.5873   24.8962 C   0  0  0  0  0  0  0  0  0  0  0  0
    8.1566   10.0536   16.0516 O   0  0  0  0  0  0  0  0  0  0  0  0
   12.4989    6.2074   20.1776 C   0  0  0  0  0  0  0  0  0  0  0  0
    6.9192    9.1053   20.9073 O   0  0  0  0  0  0  0  0  0  0  0  0
   14.3979    6.0729   18.7784 C   0  0  0  0  0  0  0  0  0  0  0  0
    8.6811    9.5354   16.9998 C   0  0  0  0  0  0  0  0  0  0  0  0
    9.2512    4.2713   13.7653 O   0  0  0  0  0  0  0  0  0  0  0  0
    9.6495    8.6317   16.8332 N   0  0  0  0  0  0  0  0  0  0  0  0
    6.2934    8.6988   23.1988 O   0  0  0  0  0  0  0  0  0  0  0  0
    7.9806    8.6543   20.5437 C   0  0  0  0  0  0  0  0  0  0  0  0
   13.7270    5.7144   19.8610 O   0  0  0  0  0  0  0  0  0  0  0  0
    8.3351    5.5235   15.4478 C   0  0  0  0  0  0  0  0  0  0  0  0
    8.7700    7.8434   21.3915 C   0  0  0  0  0  0  0  0  0  0  0  0
   11.7856    6.8851   19.2401 C   0  0  0  0  0  0  0  0  0  0  0  0
   10.5281    7.4276   19.5649 C   0  0  0  0  0  0  0  0  0  0  0  0
   10.0256    7.2907   20.8484 C   0  0  0  0  0  0  0  0  0  0  0  0
    9.3113    5.3049   14.4911 C   0  0  0  0  0  0  0  0  0  0  0  0
    9.4607    7.5646   16.0139 C   0  0  0  0  0  0  0  0  0  0  0  0
   10.4192    7.3157   15.0955 C   0  0  0  0  0  0  0  0  0  0  0  0
   10.2489    6.4227   23.0218 N   0  0  0  0  0  0  0  0  0  0  0  0
    7.2472    8.0746   23.5050 C   0  0  0  0  0  0  0  0  0  0  0  0
    9.2051    6.9101   23.4604 C   0  0  0  0  0  0  0  0  0  0  0  0
   11.9646    6.0299   21.4251 C   0  0  0  0  0  0  0  0  0  0  0  0
  1  5  1  0
  1 13  1  0
  2 20  2  0
  2 28  1  0
  2 29  1  0
  3 19  4  0
  3 25  4  0
  4 23  4  0
  4 27  1  0
  4 30  4  0
  5 17  1  0
  6  8  1  0
  6 29  1  0
  7 24  4  0
  7 26  4  0
  8 28  1  0
  9 13  2  0
 10 18  1  0
 10 21  4  0
 10 30  4  0
 11 17  2  0
 12 18  1  0
 13 15  1  0
 14 24  1  0
 15 25  1  0
 16 28  2  0
 17 20  1  0
 19 24  4  0
 20 23  1  0
 21 22  4  0
 22 23  4  0
 25 26  4  0
 27 29  2  0
M  END
$$$$

 Created by Python create_sdf_string function

 30 33  0  0  0  0  0  0  0  0999 V2000
    8.3036    9.8571   18.4133 C   0  0  0  0  0  0  0  0  0  0  0  0
    8.3694    7.6612   22.6703 C   0  0  0  0  0  0  0  0  0  0  0  0
    8.4143    6.6863   16.2273 C   0  0  0  0  0  0  0  0  0  0  0  0
   10.7581    6.5674   21.7636 C   0  0  0  0  0  0  0  0  0  0  0  0
    8.4452    8.7960   19.2958 O   0  0  0  0  0  0  0  0  0  0  0  0
    8.7122    6.7842   24.8569 C   0  0  0  0  0  0  0  0  0  0  0  0
   10.3400    6.1726   14.3081 C   0  0  0  0  0  0  0  0  0  0  0  0
    7.4297    7.5873   24.8962 C   0  0  0  0  0  0  0  0  0  0  0  0
    8.1566   10.0536   16.0516 O   0  0  0  0  0  0  0  0  0  0  0  0
   12.4989    6.2074   20.1776 C   0  0  0  0  0  0  0  0  0  0  0  0
    6.9192    9.1053   20.9073 O   0  0  0  0  0  0  0  0  0  0  0  0
   14.3979    6.0729   18.7784 C   0  0  0  0  0  0  0  0  0  0  0  0
    8.6811    9.5354   16.9998 C   0  0  0  0  0  0  0  0  0  0  0  0
    9.2512    4.2713   13.7653 O   0  0  0  0  0  0  0  0  0  0  0  0
    9.6495    8.6317   16.8332 N   0  0  0  0  0  0  0  0  0  0  0  0
    6.2934    8.6988   23.1988 O   0  0  0  0  0  0  0  0  0  0  0  0
    7.9806    8.6543   20.5437 C   0  0  0  0  0  0  0  0  0  0  0  0
   13.7270    5.7144   19.8610 O   0  0  0  0  0  0  0  0  0  0  0  0
    8.3351    5.5235   15.4478 C   0  0  0  0  0  0  0  0  0  0  0  0
    8.7700    7.8434   21.3915 C   0  0  0  0  0  0  0  0  0  0  0  0
   11.7856    6.8851   19.2401 C   0  0  0  0  0  0  0  0  0  0  0  0
   10.5281    7.4276   19.5649 C   0  0  0  0  0  0  0  0  0  0  0  0
   10.0256    7.2907   20.8484 C   0  0  0  0  0  0  0  0  0  0  0  0
    9.3113    5.3049   14.4911 C   0  0  0  0  0  0  0  0  0  0  0  0
    9.4607    7.5646   16.0139 C   0  0  0  0  0  0  0  0  0  0  0  0
   10.4192    7.3157   15.0955 C   0  0  0  0  0  0  0  0  0  0  0  0
   10.2489    6.4227   23.0218 N   0  0  0  0  0  0  0  0  0  0  0  0
    7.2472    8.0746   23.5050 C   0  0  0  0  0  0  0  0  0  0  0  0
    9.2051    6.9101   23.4604 C   0  0  0  0  0  0  0  0  0  0  0  0
   11.9646    6.0299   21.4251 C   0  0  0  0  0  0  0  0  0  0  0  0
  1  5  1  0
  1 13  1  0
  2 20  2  0
  2 28  1  0
  2 29  1  0
  3 19  4  0
  3 25  4  0
  4 23  4  0
  4 27  1  0
  4 30  4  0
  5 17  1  0
  6  8  1  0
  6 29  1  0
  7 24  4  0
  7 26  4  0
  8 28  1  0
  9 13  2  0
 10 18  1  0
 10 21  4  0
 10 30  4  0
 11 17  2  0
 12 18  1  0
 13 15  1  0
 14 24  1  0
 15 25  1  0
 16 28  2  0
 17 20  1  0
 19 24  4  0
 20 23  1  0
 21 22  4  0
 22 23  4  0
 25 26  4  0
 27 29  2  0
M  END
$$$$

 Created by Python create_sdf_string function

 30 33  0  0  0  0  0  0  0  0999 V2000
    8.3036    9.8571   18.4133 C   0  0  0  0  0  0  0  0  0  0  0  0
    8.3694    7.6612   22.6703 C   0  0  0  0  0  0  0  0  0  0  0  0
    8.4143    6.6863   16.2273 C   0  0  0  0  0  0  0  0  0  0  0  0
   10.7581    6.5674   21.7636 C   0  0  0  0  0  0  0  0  0  0  0  0
    8.4452    8.7960   19.2958 O   0  0  0  0  0  0  0  0  0  0  0  0
    8.7122    6.7842   24.8569 C   0  0  0  0  0  0  0  0  0  0  0  0
   10.3400    6.1726   14.3081 C   0  0  0  0  0  0  0  0  0  0  0  0
    7.4297    7.5873   24.8962 C   0  0  0  0  0  0  0  0  0  0  0  0
    8.1566   10.0536   16.0516 O   0  0  0  0  0  0  0  0  0  0  0  0
   12.4989    6.2074   20.1776 C   0  0  0  0  0  0  0  0  0  0  0  0
    6.9192    9.1053   20.9073 O   0  0  0  0  0  0  0  0  0  0  0  0
   14.3979    6.0729   18.7784 C   0  0  0  0  0  0  0  0  0  0  0  0
    8.6811    9.5354   16.9998 C   0  0  0  0  0  0  0  0  0  0  0  0
    9.2512    4.2713   13.7653 O   0  0  0  0  0  0  0  0  0  0  0  0
    9.6495    8.6317   16.8332 N   0  0  0  0  0  0  0  0  0  0  0  0
    6.2934    8.6988   23.1988 O   0  0  0  0  0  0  0  0  0  0  0  0
    7.9806    8.6543   20.5437 C   0  0  0  0  0  0  0  0  0  0  0  0
   13.7270    5.7144   19.8610 O   0  0  0  0  0  0  0  0  0  0  0  0
    8.3351    5.5235   15.4478 C   0  0  0  0  0  0  0  0  0  0  0  0
    8.7700    7.8434   21.3915 C   0  0  0  0  0  0  0  0  0  0  0  0
   11.7856    6.8851   19.2401 C   0  0  0  0  0  0  0  0  0  0  0  0
   10.5281    7.4276   19.5649 C   0  0  0  0  0  0  0  0  0  0  0  0
   10.0256    7.2907   20.8484 C   0  0  0  0  0  0  0  0  0  0  0  0
    9.3113    5.3049   14.4911 C   0  0  0  0  0  0  0  0  0  0  0  0
    9.4607    7.5646   16.0139 C   0  0  0  0  0  0  0  0  0  0  0  0
   10.4192    7.3157   15.0955 C   0  0  0  0  0  0  0  0  0  0  0  0
   10.2489    6.4227   23.0218 N   0  0  0  0  0  0  0  0  0  0  0  0
    7.2472    8.0746   23.5050 C   0  0  0  0  0  0  0  0  0  0  0  0
    9.2051    6.9101   23.4604 C   0  0  0  0  0  0  0  0  0  0  0  0
   11.9646    6.0299   21.4251 C   0  0  0  0  0  0  0  0  0  0  0  0
  1  5  1  0
  1 13  1  0
  2 20  2  0
  2 28  1  0
  2 29  1  0
  3 19  4  0
  3 25  4  0
  4 23  4  0
  4 27  1  0
  4 30  4  0
  5 17  1  0
  6  8  1  0
  6 29  1  0
  7 24  4  0
  7 26  4  0
  8 28  1  0
  9 13  2  0
 10 18  1  0
 10 21  4  0
 10 30  4  0
 11 17  2  0
 12 18  1  0
 13 15  1  0
 14 24  1  0
 15 25  1  0
 16 28  2  0
 17 20  1  0
 19 24  4  0
 20 23  1  0
 21 22  4  0
 22 23  4  0
 25 26  4  0
 27 29  2  0
M  END
$$$$

 Created by Python create_sdf_string function

 30 33  0  0  0  0  0  0  0  0999 V2000
    8.3036    9.8571   18.4133 C   0  0  0  0  0  0  0  0  0  0  0  0
    8.3694    7.6612   22.6703 C   0  0  0  0  0  0  0  0  0  0  0  0
    8.4143    6.6863   16.2273 C   0  0  0  0  0  0  0  0  0  0  0  0
   10.7581    6.5674   21.7636 C   0  0  0  0  0  0  0  0  0  0  0  0
    8.4452    8.7960   19.2958 O   0  0  0  0  0  0  0  0  0  0  0  0
    8.7122    6.7842   24.8569 C   0  0  0  0  0  0  0  0  0  0  0  0
   10.3400    6.1726   14.3081 C   0  0  0  0  0  0  0  0  0  0  0  0
    7.4297    7.5873   24.8962 C   0  0  0  0  0  0  0  0  0  0  0  0
    8.1566   10.0536   16.0516 O   0  0  0  0  0  0  0  0  0  0  0  0
   12.4989    6.2074   20.1776 C   0  0  0  0  0  0  0  0  0  0  0  0
    6.9192    9.1053   20.9073 O   0  0  0  0  0  0  0  0  0  0  0  0
   14.3979    6.0729   18.7784 C   0  0  0  0  0  0  0  0  0  0  0  0
    8.6811    9.5354   16.9998 C   0  0  0  0  0  0  0  0  0  0  0  0
    9.2512    4.2713   13.7653 O   0  0  0  0  0  0  0  0  0  0  0  0
    9.6495    8.6317   16.8332 N   0  0  0  0  0  0  0  0  0  0  0  0
    6.2934    8.6988   23.1988 O   0  0  0  0  0  0  0  0  0  0  0  0
    7.9806    8.6543   20.5437 C   0  0  0  0  0  0  0  0  0  0  0  0
   13.7270    5.7144   19.8610 O   0  0  0  0  0  0  0  0  0  0  0  0
    8.3351    5.5235   15.4478 C   0  0  0  0  0  0  0  0  0  0  0  0
    8.7700    7.8434   21.3915 C   0  0  0  0  0  0  0  0  0  0  0  0
   11.7856    6.8851   19.2401 C   0  0  0  0  0  0  0  0  0  0  0  0
   10.5281    7.4276   19.5649 C   0  0  0  0  0  0  0  0  0  0  0  0
   10.0256    7.2907   20.8484 C   0  0  0  0  0  0  0  0  0  0  0  0
    9.3113    5.3049   14.4911 C   0  0  0  0  0  0  0  0  0  0  0  0
    9.4607    7.5646   16.0139 C   0  0  0  0  0  0  0  0  0  0  0  0
   10.4192    7.3157   15.0955 C   0  0  0  0  0  0  0  0  0  0  0  0
   10.2489    6.4227   23.0218 N   0  0  0  0  0  0  0  0  0  0  0  0
    7.2472    8.0746   23.5050 C   0  0  0  0  0  0  0  0  0  0  0  0
    9.2051    6.9101   23.4604 C   0  0  0  0  0  0  0  0  0  0  0  0
   11.9646    6.0299   21.4251 C   0  0  0  0  0  0  0  0  0  0  0  0
  1  5  1  0
  1 13  1  0
  2 20  2  0
  2 28  1  0
  2 29  1  0
  3 19  4  0
  3 25  4  0
  4 23  4  0
  4 27  1  0
  4 30  4  0
  5 17  1  0
  6  8  1  0
  6 29  1  0
  7 24  4  0
  7 26  4  0
  8 28  1  0
  9 13  2  0
 10 18  1  0
 10 21  4  0
 10 30  4  0
 11 17  2  0
 12 18  1  0
 13 15  1  0
 14 24  1  0
 15 25  1  0
 16 28  2  0
 17 20  1  0
 19 24  4  0
 20 23  1  0
 21 22  4  0
 22 23  4  0
 25 26  4  0
 27 29  2  0
M  END
$$$$

 Created by Python create_sdf_string function

 30 33  0  0  0  0  0  0  0  0999 V2000
    8.3036    9.8571   18.4133 C   0  0  0  0  0  0  0  0  0  0  0  0
    8.3694    7.6612   22.6703 C   0  0  0  0  0  0  0  0  0  0  0  0
    8.4143    6.6863   16.2273 C   0  0  0  0  0  0  0  0  0  0  0  0
   10.7581    6.5674   21.7636 C   0  0  0  0  0  0  0  0  0  0  0  0
    8.4452    8.7960   19.2958 O   0  0  0  0  0  0  0  0  0  0  0  0
    8.7122    6.7842   24.8569 C   0  0  0  0  0  0  0  0  0  0  0  0
   10.3400    6.1726   14.3081 C   0  0  0  0  0  0  0  0  0  0  0  0
    7.4297    7.5873   24.8962 C   0  0  0  0  0  0  0  0  0  0  0  0
    8.1566   10.0536   16.0516 O   0  0  0  0  0  0  0  0  0  0  0  0
   12.4989    6.2074   20.1776 C   0  0  0  0  0  0  0  0  0  0  0  0
    6.9192    9.1053   20.9073 O   0  0  0  0  0  0  0  0  0  0  0  0
   14.3979    6.0729   18.7784 C   0  0  0  0  0  0  0  0  0  0  0  0
    8.6811    9.5354   16.9998 C   0  0  0  0  0  0  0  0  0  0  0  0
    9.2512    4.2713   13.7653 O   0  0  0  0  0  0  0  0  0  0  0  0
    9.6495    8.6317   16.8332 N   0  0  0  0  0  0  0  0  0  0  0  0
    6.2934    8.6988   23.1988 O   0  0  0  0  0  0  0  0  0  0  0  0
    7.9806    8.6543   20.5437 C   0  0  0  0  0  0  0  0  0  0  0  0
   13.7270    5.7144   19.8610 O   0  0  0  0  0  0  0  0  0  0  0  0
    8.3351    5.5235   15.4478 C   0  0  0  0  0  0  0  0  0  0  0  0
    8.7700    7.8434   21.3915 C   0  0  0  0  0  0  0  0  0  0  0  0
   11.7856    6.8851   19.2401 C   0  0  0  0  0  0  0  0  0  0  0  0
   10.5281    7.4276   19.5649 C   0  0  0  0  0  0  0  0  0  0  0  0
   10.0256    7.2907   20.8484 C   0  0  0  0  0  0  0  0  0  0  0  0
    9.3113    5.3049   14.4911 C   0  0  0  0  0  0  0  0  0  0  0  0
    9.4607    7.5646   16.0139 C   0  0  0  0  0  0  0  0  0  0  0  0
   10.4192    7.3157   15.0955 C   0  0  0  0  0  0  0  0  0  0  0  0
   10.2489    6.4227   23.0218 N   0  0  0  0  0  0  0  0  0  0  0  0
    7.2472    8.0746   23.5050 C   0  0  0  0  0  0  0  0  0  0  0  0
    9.2051    6.9101   23.4604 C   0  0  0  0  0  0  0  0  0  0  0  0
   11.9646    6.0299   21.4251 C   0  0  0  0  0  0  0  0  0  0  0  0
  1  5  1  0
  1 13  1  0
  2 20  2  0
  2 28  1  0
  2 29  1  0
  3 19  4  0
  3 25  4  0
  4 23  4  0
  4 27  1  0
  4 30  4  0
  5 17  1  0
  6  8  1  0
  6 29  1  0
  7 24  4  0
  7 26  4  0
  8 28  1  0
  9 13  2  0
 10 18  1  0
 10 21  4  0
 10 30  4  0
 11 17  2  0
 12 18  1  0
 13 15  1  0
 14 24  1  0
 15 25  1  0
 16 28  2  0
 17 20  1  0
 19 24  4  0
 20 23  1  0
 21 22  4  0
 22 23  4  0
 25 26  4  0
 27 29  2  0
M  END
$$$$

 Created by Python create_sdf_string function

 30 33  0  0  0  0  0  0  0  0999 V2000
    8.3036    9.8571   18.4133 C   0  0  0  0  0  0  0  0  0  0  0  0
    8.3694    7.6612   22.6703 C   0  0  0  0  0  0  0  0  0  0  0  0
    8.4143    6.6863   16.2273 C   0  0  0  0  0  0  0  0  0  0  0  0
   10.7581    6.5674   21.7636 C   0  0  0  0  0  0  0  0  0  0  0  0
    8.4452    8.7960   19.2958 O   0  0  0  0  0  0  0  0  0  0  0  0
    8.7122    6.7842   24.8569 C   0  0  0  0  0  0  0  0  0  0  0  0
   10.3400    6.1726   14.3081 C   0  0  0  0  0  0  0  0  0  0  0  0
    7.4297    7.5873   24.8962 C   0  0  0  0  0  0  0  0  0  0  0  0
    8.1566   10.0536   16.0516 O   0  0  0  0  0  0  0  0  0  0  0  0
   12.4989    6.2074   20.1776 C   0  0  0  0  0  0  0  0  0  0  0  0
    6.9192    9.1053   20.9073 O   0  0  0  0  0  0  0  0  0  0  0  0
   14.3979    6.0729   18.7784 C   0  0  0  0  0  0  0  0  0  0  0  0
    8.6811    9.5354   16.9998 C   0  0  0  0  0  0  0  0  0  0  0  0
    9.2512    4.2713   13.7653 O   0  0  0  0  0  0  0  0  0  0  0  0
    9.6495    8.6317   16.8332 N   0  0  0  0  0  0  0  0  0  0  0  0
    6.2934    8.6988   23.1988 O   0  0  0  0  0  0  0  0  0  0  0  0
    7.9806    8.6543   20.5437 C   0  0  0  0  0  0  0  0  0  0  0  0
   13.7270    5.7144   19.8610 O   0  0  0  0  0  0  0  0  0  0  0  0
    8.3351    5.5235   15.4478 C   0  0  0  0  0  0  0  0  0  0  0  0
    8.7700    7.8434   21.3915 C   0  0  0  0  0  0  0  0  0  0  0  0
   11.7856    6.8851   19.2401 C   0  0  0  0  0  0  0  0  0  0  0  0
   10.5281    7.4276   19.5649 C   0  0  0  0  0  0  0  0  0  0  0  0
   10.0256    7.2907   20.8484 C   0  0  0  0  0  0  0  0  0  0  0  0
    9.3113    5.3049   14.4911 C   0  0  0  0  0  0  0  0  0  0  0  0
    9.4607    7.5646   16.0139 C   0  0  0  0  0  0  0  0  0  0  0  0
   10.4192    7.3157   15.0955 C   0  0  0  0  0  0  0  0  0  0  0  0
   10.2489    6.4227   23.0218 N   0  0  0  0  0  0  0  0  0  0  0  0
    7.2472    8.0746   23.5050 C   0  0  0  0  0  0  0  0  0  0  0  0
    9.2051    6.9101   23.4604 C   0  0  0  0  0  0  0  0  0  0  0  0
   11.9646    6.0299   21.4251 C   0  0  0  0  0  0  0  0  0  0  0  0
  1  5  1  0
  1 13  1  0
  2 20  2  0
  2 28  1  0
  2 29  1  0
  3 19  4  0
  3 25  4  0
  4 23  4  0
  4 27  1  0
  4 30  4  0
  5 17  1  0
  6  8  1  0
  6 29  1  0
  7 24  4  0
  7 26  4  0
  8 28  1  0
  9 13  2  0
 10 18  1  0
 10 21  4  0
 10 30  4  0
 11 17  2  0
 12 18  1  0
 13 15  1  0
 14 24  1  0
 15 25  1  0
 16 28  2  0
 17 20  1  0
 19 24  4  0
 20 23  1  0
 21 22  4  0
 22 23  4  0
 25 26  4  0
 27 29  2  0
M  END
$$$$

 Created by Python create_sdf_string function

 30 33  0  0  0  0  0  0  0  0999 V2000
    8.3036    9.8571   18.4133 C   0  0  0  0  0  0  0  0  0  0  0  0
    8.3694    7.6612   22.6703 C   0  0  0  0  0  0  0  0  0  0  0  0
    8.4143    6.6863   16.2273 C   0  0  0  0  0  0  0  0  0  0  0  0
   10.7581    6.5674   21.7636 C   0  0  0  0  0  0  0  0  0  0  0  0
    8.4452    8.7960   19.2958 O   0  0  0  0  0  0  0  0  0  0  0  0
    8.7122    6.7842   24.8569 C   0  0  0  0  0  0  0  0  0  0  0  0
   10.3400    6.1726   14.3081 C   0  0  0  0  0  0  0  0  0  0  0  0
    7.4297    7.5873   24.8962 C   0  0  0  0  0  0  0  0  0  0  0  0
    8.1566   10.0536   16.0516 O   0  0  0  0  0  0  0  0  0  0  0  0
   12.4989    6.2074   20.1776 C   0  0  0  0  0  0  0  0  0  0  0  0
    6.9192    9.1053   20.9073 O   0  0  0  0  0  0  0  0  0  0  0  0
   14.3979    6.0729   18.7784 C   0  0  0  0  0  0  0  0  0  0  0  0
    8.6811    9.5354   16.9998 C   0  0  0  0  0  0  0  0  0  0  0  0
    9.2512    4.2713   13.7653 O   0  0  0  0  0  0  0  0  0  0  0  0
    9.6495    8.6317   16.8332 N   0  0  0  0  0  0  0  0  0  0  0  0
    6.2934    8.6988   23.1988 O   0  0  0  0  0  0  0  0  0  0  0  0
    7.9806    8.6543   20.5437 C   0  0  0  0  0  0  0  0  0  0  0  0
   13.7270    5.7144   19.8610 O   0  0  0  0  0  0  0  0  0  0  0  0
    8.3351    5.5235   15.4478 C   0  0  0  0  0  0  0  0  0  0  0  0
    8.7700    7.8434   21.3915 C   0  0  0  0  0  0  0  0  0  0  0  0
   11.7856    6.8851   19.2401 C   0  0  0  0  0  0  0  0  0  0  0  0
   10.5281    7.4276   19.5649 C   0  0  0  0  0  0  0  0  0  0  0  0
   10.0256    7.2907   20.8484 C   0  0  0  0  0  0  0  0  0  0  0  0
    9.3113    5.3049   14.4911 C   0  0  0  0  0  0  0  0  0  0  0  0
    9.4607    7.5646   16.0139 C   0  0  0  0  0  0  0  0  0  0  0  0
   10.4192    7.3157   15.0955 C   0  0  0  0  0  0  0  0  0  0  0  0
   10.2489    6.4227   23.0218 N   0  0  0  0  0  0  0  0  0  0  0  0
    7.2472    8.0746   23.5050 C   0  0  0  0  0  0  0  0  0  0  0  0
    9.2051    6.9101   23.4604 C   0  0  0  0  0  0  0  0  0  0  0  0
   11.9646    6.0299   21.4251 C   0  0  0  0  0  0  0  0  0  0  0  0
  1  5  1  0
  1 13  1  0
  2 20  2  0
  2 28  1  0
  2 29  1  0
  3 19  4  0
  3 25  4  0
  4 23  4  0
  4 27  1  0
  4 30  4  0
  5 17  1  0
  6  8  1  0
  6 29  1  0
  7 24  4  0
  7 26  4  0
  8 28  1  0
  9 13  2  0
 10 18  1  0
 10 21  4  0
 10 30  4  0
 11 17  2  0
 12 18  1  0
 13 15  1  0
 14 24  1  0
 15 25  1  0
 16 28  2  0
 17 20  1  0
 19 24  4  0
 20 23  1  0
 21 22  4  0
 22 23  4  0
 25 26  4  0
 27 29  2  0
M  END
$$$$

 Created by Python create_sdf_string function

 30 33  0  0  0  0  0  0  0  0999 V2000
    8.3036    9.8571   18.4133 C   0  0  0  0  0  0  0  0  0  0  0  0
    8.3694    7.6612   22.6703 C   0  0  0  0  0  0  0  0  0  0  0  0
    8.4143    6.6863   16.2273 C   0  0  0  0  0  0  0  0  0  0  0  0
   10.7581    6.5674   21.7636 C   0  0  0  0  0  0  0  0  0  0  0  0
    8.4452    8.7960   19.2958 O   0  0  0  0  0  0  0  0  0  0  0  0
    8.7122    6.7842   24.8569 C   0  0  0  0  0  0  0  0  0  0  0  0
   10.3400    6.1726   14.3081 C   0  0  0  0  0  0  0  0  0  0  0  0
    7.4297    7.5873   24.8962 C   0  0  0  0  0  0  0  0  0  0  0  0
    8.1566   10.0536   16.0516 O   0  0  0  0  0  0  0  0  0  0  0  0
   12.4989    6.2074   20.1776 C   0  0  0  0  0  0  0  0  0  0  0  0
    6.9192    9.1053   20.9073 O   0  0  0  0  0  0  0  0  0  0  0  0
   14.3979    6.0729   18.7784 C   0  0  0  0  0  0  0  0  0  0  0  0
    8.6811    9.5354   16.9998 C   0  0  0  0  0  0  0  0  0  0  0  0
    9.2512    4.2713   13.7653 O   0  0  0  0  0  0  0  0  0  0  0  0
    9.6495    8.6317   16.8332 N   0  0  0  0  0  0  0  0  0  0  0  0
    6.2934    8.6988   23.1988 O   0  0  0  0  0  0  0  0  0  0  0  0
    7.9806    8.6543   20.5437 C   0  0  0  0  0  0  0  0  0  0  0  0
   13.7270    5.7144   19.8610 O   0  0  0  0  0  0  0  0  0  0  0  0
    8.3351    5.5235   15.4478 C   0  0  0  0  0  0  0  0  0  0  0  0
    8.7700    7.8434   21.3915 C   0  0  0  0  0  0  0  0  0  0  0  0
   11.7856    6.8851   19.2401 C   0  0  0  0  0  0  0  0  0  0  0  0
   10.5281    7.4276   19.5649 C   0  0  0  0  0  0  0  0  0  0  0  0
   10.0256    7.2907   20.8484 C   0  0  0  0  0  0  0  0  0  0  0  0
    9.3113    5.3049   14.4911 C   0  0  0  0  0  0  0  0  0  0  0  0
    9.4607    7.5646   16.0139 C   0  0  0  0  0  0  0  0  0  0  0  0
   10.4192    7.3157   15.0955 C   0  0  0  0  0  0  0  0  0  0  0  0
   10.2489    6.4227   23.0218 N   0  0  0  0  0  0  0  0  0  0  0  0
    7.2472    8.0746   23.5050 C   0  0  0  0  0  0  0  0  0  0  0  0
    9.2051    6.9101   23.4604 C   0  0  0  0  0  0  0  0  0  0  0  0
   11.9646    6.0299   21.4251 C   0  0  0  0  0  0  0  0  0  0  0  0
  1  5  1  0
  1 13  1  0
  2 20  2  0
  2 28  1  0
  2 29  1  0
  3 19  4  0
  3 25  4  0
  4 23  4  0
  4 27  1  0
  4 30  4  0
  5 17  1  0
  6  8  1  0
  6 29  1  0
  7 24  4  0
  7 26  4  0
  8 28  1  0
  9 13  2  0
 10 18  1  0
 10 21  4  0
 10 30  4  0
 11 17  2  0
 12 18  1  0
 13 15  1  0
 14 24  1  0
 15 25  1  0
 16 28  2  0
 17 20  1  0
 19 24  4  0
 20 23  1  0
 21 22  4  0
 22 23  4  0
 25 26  4  0
 27 29  2  0
M  END
$$$$

 Created by Python create_sdf_string function

 30 33  0  0  0  0  0  0  0  0999 V2000
    8.3036    9.8571   18.4133 C   0  0  0  0  0  0  0  0  0  0  0  0
    8.3694    7.6612   22.6703 C   0  0  0  0  0  0  0  0  0  0  0  0
    8.4143    6.6863   16.2273 C   0  0  0  0  0  0  0  0  0  0  0  0
   10.7581    6.5674   21.7636 C   0  0  0  0  0  0  0  0  0  0  0  0
    8.4452    8.7960   19.2958 O   0  0  0  0  0  0  0  0  0  0  0  0
    8.7122    6.7842   24.8569 C   0  0  0  0  0  0  0  0  0  0  0  0
   10.3400    6.1726   14.3081 C   0  0  0  0  0  0  0  0  0  0  0  0
    7.4297    7.5873   24.8962 C   0  0  0  0  0  0  0  0  0  0  0  0
    8.1566   10.0536   16.0516 O   0  0  0  0  0  0  0  0  0  0  0  0
   12.4989    6.2074   20.1776 C   0  0  0  0  0  0  0  0  0  0  0  0
    6.9192    9.1053   20.9073 O   0  0  0  0  0  0  0  0  0  0  0  0
   14.3979    6.0729   18.7784 C   0  0  0  0  0  0  0  0  0  0  0  0
    8.6811    9.5354   16.9998 C   0  0  0  0  0  0  0  0  0  0  0  0
    9.2512    4.2713   13.7653 O   0  0  0  0  0  0  0  0  0  0  0  0
    9.6495    8.6317   16.8332 N   0  0  0  0  0  0  0  0  0  0  0  0
    6.2934    8.6988   23.1988 O   0  0  0  0  0  0  0  0  0  0  0  0
    7.9806    8.6543   20.5437 C   0  0  0  0  0  0  0  0  0  0  0  0
   13.7270    5.7144   19.8610 O   0  0  0  0  0  0  0  0  0  0  0  0
    8.3351    5.5235   15.4478 C   0  0  0  0  0  0  0  0  0  0  0  0
    8.7700    7.8434   21.3915 C   0  0  0  0  0  0  0  0  0  0  0  0
   11.7856    6.8851   19.2401 C   0  0  0  0  0  0  0  0  0  0  0  0
   10.5281    7.4276   19.5649 C   0  0  0  0  0  0  0  0  0  0  0  0
   10.0256    7.2907   20.8484 C   0  0  0  0  0  0  0  0  0  0  0  0
    9.3113    5.3049   14.4911 C   0  0  0  0  0  0  0  0  0  0  0  0
    9.4607    7.5646   16.0139 C   0  0  0  0  0  0  0  0  0  0  0  0
   10.4192    7.3157   15.0955 C   0  0  0  0  0  0  0  0  0  0  0  0
   10.2489    6.4227   23.0218 N   0  0  0  0  0  0  0  0  0  0  0  0
    7.2472    8.0746   23.5050 C   0  0  0  0  0  0  0  0  0  0  0  0
    9.2051    6.9101   23.4604 C   0  0  0  0  0  0  0  0  0  0  0  0
   11.9646    6.0299   21.4251 C   0  0  0  0  0  0  0  0  0  0  0  0
  1  5  1  0
  1 13  1  0
  2 20  2  0
  2 28  1  0
  2 29  1  0
  3 19  4  0
  3 25  4  0
  4 23  4  0
  4 27  1  0
  4 30  4  0
  5 17  1  0
  6  8  1  0
  6 29  1  0
  7 24  4  0
  7 26  4  0
  8 28  1  0
  9 13  2  0
 10 18  1  0
 10 21  4  0
 10 30  4  0
 11 17  2  0
 12 18  1  0
 13 15  1  0
 14 24  1  0
 15 25  1  0
 16 28  2  0
 17 20  1  0
 19 24  4  0
 20 23  1  0
 21 22  4  0
 22 23  4  0
 25 26  4  0
 27 29  2  0
M  END
$$$$

 Created by Python create_sdf_string function

 30 33  0  0  0  0  0  0  0  0999 V2000
    8.3036    9.8571   18.4133 C   0  0  0  0  0  0  0  0  0  0  0  0
    8.3694    7.6612   22.6703 C   0  0  0  0  0  0  0  0  0  0  0  0
    8.4143    6.6863   16.2273 C   0  0  0  0  0  0  0  0  0  0  0  0
   10.7581    6.5674   21.7636 C   0  0  0  0  0  0  0  0  0  0  0  0
    8.4452    8.7960   19.2958 O   0  0  0  0  0  0  0  0  0  0  0  0
    8.7122    6.7842   24.8569 C   0  0  0  0  0  0  0  0  0  0  0  0
   10.3400    6.1726   14.3081 C   0  0  0  0  0  0  0  0  0  0  0  0
    7.4297    7.5873   24.8962 C   0  0  0  0  0  0  0  0  0  0  0  0
    8.1566   10.0536   16.0516 O   0  0  0  0  0  0  0  0  0  0  0  0
   12.4989    6.2074   20.1776 C   0  0  0  0  0  0  0  0  0  0  0  0
    6.9192    9.1053   20.9073 O   0  0  0  0  0  0  0  0  0  0  0  0
   14.3979    6.0729   18.7784 C   0  0  0  0  0  0  0  0  0  0  0  0
    8.6811    9.5354   16.9998 C   0  0  0  0  0  0  0  0  0  0  0  0
    9.2512    4.2713   13.7653 O   0  0  0  0  0  0  0  0  0  0  0  0
    9.6495    8.6317   16.8332 N   0  0  0  0  0  0  0  0  0  0  0  0
    6.2934    8.6988   23.1988 O   0  0  0  0  0  0  0  0  0  0  0  0
    7.9806    8.6543   20.5437 C   0  0  0  0  0  0  0  0  0  0  0  0
   13.7270    5.7144   19.8610 O   0  0  0  0  0  0  0  0  0  0  0  0
    8.3351    5.5235   15.4478 C   0  0  0  0  0  0  0  0  0  0  0  0
    8.7700    7.8434   21.3915 C   0  0  0  0  0  0  0  0  0  0  0  0
   11.7856    6.8851   19.2401 C   0  0  0  0  0  0  0  0  0  0  0  0
   10.5281    7.4276   19.5649 C   0  0  0  0  0  0  0  0  0  0  0  0
   10.0256    7.2907   20.8484 C   0  0  0  0  0  0  0  0  0  0  0  0
    9.3113    5.3049   14.4911 C   0  0  0  0  0  0  0  0  0  0  0  0
    9.4607    7.5646   16.0139 C   0  0  0  0  0  0  0  0  0  0  0  0
   10.4192    7.3157   15.0955 C   0  0  0  0  0  0  0  0  0  0  0  0
   10.2489    6.4227   23.0218 N   0  0  0  0  0  0  0  0  0  0  0  0
    7.2472    8.0746   23.5050 C   0  0  0  0  0  0  0  0  0  0  0  0
    9.2051    6.9101   23.4604 C   0  0  0  0  0  0  0  0  0  0  0  0
   11.9646    6.0299   21.4251 C   0  0  0  0  0  0  0  0  0  0  0  0
  1  5  1  0
  1 13  1  0
  2 20  2  0
  2 28  1  0
  2 29  1  0
  3 19  4  0
  3 25  4  0
  4 23  4  0
  4 27  1  0
  4 30  4  0
  5 17  1  0
  6  8  1  0
  6 29  1  0
  7 24  4  0
  7 26  4  0
  8 28  1  0
  9 13  2  0
 10 18  1  0
 10 21  4  0
 10 30  4  0
 11 17  2  0
 12 18  1  0
 13 15  1  0
 14 24  1  0
 15 25  1  0
 16 28  2  0
 17 20  1  0
 19 24  4  0
 20 23  1  0
 21 22  4  0
 22 23  4  0
 25 26  4  0
 27 29  2  0
M  END
$$$$

 Created by Python create_sdf_string function

 30 33  0  0  0  0  0  0  0  0999 V2000
    8.3036    9.8571   18.4133 C   0  0  0  0  0  0  0  0  0  0  0  0
    8.3694    7.6612   22.6703 C   0  0  0  0  0  0  0  0  0  0  0  0
    8.4143    6.6863   16.2273 C   0  0  0  0  0  0  0  0  0  0  0  0
   10.7581    6.5674   21.7636 C   0  0  0  0  0  0  0  0  0  0  0  0
    8.4452    8.7960   19.2958 O   0  0  0  0  0  0  0  0  0  0  0  0
    8.7122    6.7842   24.8569 C   0  0  0  0  0  0  0  0  0  0  0  0
   10.3400    6.1726   14.3081 C   0  0  0  0  0  0  0  0  0  0  0  0
    7.4297    7.5873   24.8962 C   0  0  0  0  0  0  0  0  0  0  0  0
    8.1566   10.0536   16.0516 O   0  0  0  0  0  0  0  0  0  0  0  0
   12.4989    6.2074   20.1776 C   0  0  0  0  0  0  0  0  0  0  0  0
    6.9192    9.1053   20.9073 O   0  0  0  0  0  0  0  0  0  0  0  0
   14.3979    6.0729   18.7784 C   0  0  0  0  0  0  0  0  0  0  0  0
    8.6811    9.5354   16.9998 C   0  0  0  0  0  0  0  0  0  0  0  0
    9.2512    4.2713   13.7653 O   0  0  0  0  0  0  0  0  0  0  0  0
    9.6495    8.6317   16.8332 N   0  0  0  0  0  0  0  0  0  0  0  0
    6.2934    8.6988   23.1988 O   0  0  0  0  0  0  0  0  0  0  0  0
    7.9806    8.6543   20.5437 C   0  0  0  0  0  0  0  0  0  0  0  0
   13.7270    5.7144   19.8610 O   0  0  0  0  0  0  0  0  0  0  0  0
    8.3351    5.5235   15.4478 C   0  0  0  0  0  0  0  0  0  0  0  0
    8.7700    7.8434   21.3915 C   0  0  0  0  0  0  0  0  0  0  0  0
   11.7856    6.8851   19.2401 C   0  0  0  0  0  0  0  0  0  0  0  0
   10.5281    7.4276   19.5649 C   0  0  0  0  0  0  0  0  0  0  0  0
   10.0256    7.2907   20.8484 C   0  0  0  0  0  0  0  0  0  0  0  0
    9.3113    5.3049   14.4911 C   0  0  0  0  0  0  0  0  0  0  0  0
    9.4607    7.5646   16.0139 C   0  0  0  0  0  0  0  0  0  0  0  0
   10.4192    7.3157   15.0955 C   0  0  0  0  0  0  0  0  0  0  0  0
   10.2489    6.4227   23.0218 N   0  0  0  0  0  0  0  0  0  0  0  0
    7.2472    8.0746   23.5050 C   0  0  0  0  0  0  0  0  0  0  0  0
    9.2051    6.9101   23.4604 C   0  0  0  0  0  0  0  0  0  0  0  0
   11.9646    6.0299   21.4251 C   0  0  0  0  0  0  0  0  0  0  0  0
  1  5  1  0
  1 13  1  0
  2 20  2  0
  2 28  1  0
  2 29  1  0
  3 19  4  0
  3 25  4  0
  4 23  4  0
  4 27  1  0
  4 30  4  0
  5 17  1  0
  6  8  1  0
  6 29  1  0
  7 24  4  0
  7 26  4  0
  8 28  1  0
  9 13  2  0
 10 18  1  0
 10 21  4  0
 10 30  4  0
 11 17  2  0
 12 18  1  0
 13 15  1  0
 14 24  1  0
 15 25  1  0
 16 28  2  0
 17 20  1  0
 19 24  4  0
 20 23  1  0
 21 22  4  0
 22 23  4  0
 25 26  4  0
 27 29  2  0
M  END
$$$$

 Created by Python create_sdf_string function

 30 33  0  0  0  0  0  0  0  0999 V2000
    8.3036    9.8571   18.4133 C   0  0  0  0  0  0  0  0  0  0  0  0
    8.3694    7.6612   22.6703 C   0  0  0  0  0  0  0  0  0  0  0  0
    8.4143    6.6863   16.2273 C   0  0  0  0  0  0  0  0  0  0  0  0
   10.7581    6.5674   21.7636 C   0  0  0  0  0  0  0  0  0  0  0  0
    8.4452    8.7960   19.2958 O   0  0  0  0  0  0  0  0  0  0  0  0
    8.7122    6.7842   24.8569 C   0  0  0  0  0  0  0  0  0  0  0  0
   10.3400    6.1726   14.3081 C   0  0  0  0  0  0  0  0  0  0  0  0
    7.4297    7.5873   24.8962 C   0  0  0  0  0  0  0  0  0  0  0  0
    8.1566   10.0536   16.0516 O   0  0  0  0  0  0  0  0  0  0  0  0
   12.4989    6.2074   20.1776 C   0  0  0  0  0  0  0  0  0  0  0  0
    6.9192    9.1053   20.9073 O   0  0  0  0  0  0  0  0  0  0  0  0
   14.3979    6.0729   18.7784 C   0  0  0  0  0  0  0  0  0  0  0  0
    8.6811    9.5354   16.9998 C   0  0  0  0  0  0  0  0  0  0  0  0
    9.2512    4.2713   13.7653 O   0  0  0  0  0  0  0  0  0  0  0  0
    9.6495    8.6317   16.8332 N   0  0  0  0  0  0  0  0  0  0  0  0
    6.2934    8.6988   23.1988 O   0  0  0  0  0  0  0  0  0  0  0  0
    7.9806    8.6543   20.5437 C   0  0  0  0  0  0  0  0  0  0  0  0
   13.7270    5.7144   19.8610 O   0  0  0  0  0  0  0  0  0  0  0  0
    8.3351    5.5235   15.4478 C   0  0  0  0  0  0  0  0  0  0  0  0
    8.7700    7.8434   21.3915 C   0  0  0  0  0  0  0  0  0  0  0  0
   11.7856    6.8851   19.2401 C   0  0  0  0  0  0  0  0  0  0  0  0
   10.5281    7.4276   19.5649 C   0  0  0  0  0  0  0  0  0  0  0  0
   10.0256    7.2907   20.8484 C   0  0  0  0  0  0  0  0  0  0  0  0
    9.3113    5.3049   14.4911 C   0  0  0  0  0  0  0  0  0  0  0  0
    9.4607    7.5646   16.0139 C   0  0  0  0  0  0  0  0  0  0  0  0
   10.4192    7.3157   15.0955 C   0  0  0  0  0  0  0  0  0  0  0  0
   10.2489    6.4227   23.0218 N   0  0  0  0  0  0  0  0  0  0  0  0
    7.2472    8.0746   23.5050 C   0  0  0  0  0  0  0  0  0  0  0  0
    9.2051    6.9101   23.4604 C   0  0  0  0  0  0  0  0  0  0  0  0
   11.9646    6.0299   21.4251 C   0  0  0  0  0  0  0  0  0  0  0  0
  1  5  1  0
  1 13  1  0
  2 20  2  0
  2 28  1  0
  2 29  1  0
  3 19  4  0
  3 25  4  0
  4 23  4  0
  4 27  1  0
  4 30  4  0
  5 17  1  0
  6  8  1  0
  6 29  1  0
  7 24  4  0
  7 26  4  0
  8 28  1  0
  9 13  2  0
 10 18  1  0
 10 21  4  0
 10 30  4  0
 11 17  2  0
 12 18  1  0
 13 15  1  0
 14 24  1  0
 15 25  1  0
 16 28  2  0
 17 20  1  0
 19 24  4  0
 20 23  1  0
 21 22  4  0
 22 23  4  0
 25 26  4  0
 27 29  2  0
M  END
$$$$

 Created by Python create_sdf_string function

 30 33  0  0  0  0  0  0  0  0999 V2000
    8.3036    9.8571   18.4133 C   0  0  0  0  0  0  0  0  0  0  0  0
    8.3694    7.6612   22.6703 C   0  0  0  0  0  0  0  0  0  0  0  0
    8.4143    6.6863   16.2273 C   0  0  0  0  0  0  0  0  0  0  0  0
   10.7581    6.5674   21.7636 C   0  0  0  0  0  0  0  0  0  0  0  0
    8.4452    8.7960   19.2958 O   0  0  0  0  0  0  0  0  0  0  0  0
    8.7122    6.7842   24.8569 C   0  0  0  0  0  0  0  0  0  0  0  0
   10.3400    6.1726   14.3081 C   0  0  0  0  0  0  0  0  0  0  0  0
    7.4297    7.5873   24.8962 C   0  0  0  0  0  0  0  0  0  0  0  0
    8.1566   10.0536   16.0516 O   0  0  0  0  0  0  0  0  0  0  0  0
   12.4989    6.2074   20.1776 C   0  0  0  0  0  0  0  0  0  0  0  0
    6.9192    9.1053   20.9073 O   0  0  0  0  0  0  0  0  0  0  0  0
   14.3979    6.0729   18.7784 C   0  0  0  0  0  0  0  0  0  0  0  0
    8.6811    9.5354   16.9998 C   0  0  0  0  0  0  0  0  0  0  0  0
    9.2512    4.2713   13.7653 O   0  0  0  0  0  0  0  0  0  0  0  0
    9.6495    8.6317   16.8332 N   0  0  0  0  0  0  0  0  0  0  0  0
    6.2934    8.6988   23.1988 O   0  0  0  0  0  0  0  0  0  0  0  0
    7.9806    8.6543   20.5437 C   0  0  0  0  0  0  0  0  0  0  0  0
   13.7270    5.7144   19.8610 O   0  0  0  0  0  0  0  0  0  0  0  0
    8.3351    5.5235   15.4478 C   0  0  0  0  0  0  0  0  0  0  0  0
    8.7700    7.8434   21.3915 C   0  0  0  0  0  0  0  0  0  0  0  0
   11.7856    6.8851   19.2401 C   0  0  0  0  0  0  0  0  0  0  0  0
   10.5281    7.4276   19.5649 C   0  0  0  0  0  0  0  0  0  0  0  0
   10.0256    7.2907   20.8484 C   0  0  0  0  0  0  0  0  0  0  0  0
    9.3113    5.3049   14.4911 C   0  0  0  0  0  0  0  0  0  0  0  0
    9.4607    7.5646   16.0139 C   0  0  0  0  0  0  0  0  0  0  0  0
   10.4192    7.3157   15.0955 C   0  0  0  0  0  0  0  0  0  0  0  0
   10.2489    6.4227   23.0218 N   0  0  0  0  0  0  0  0  0  0  0  0
    7.2472    8.0746   23.5050 C   0  0  0  0  0  0  0  0  0  0  0  0
    9.2051    6.9101   23.4604 C   0  0  0  0  0  0  0  0  0  0  0  0
   11.9646    6.0299   21.4251 C   0  0  0  0  0  0  0  0  0  0  0  0
  1  5  1  0
  1 13  1  0
  2 20  2  0
  2 28  1  0
  2 29  1  0
  3 19  4  0
  3 25  4  0
  4 23  4  0
  4 27  1  0
  4 30  4  0
  5 17  1  0
  6  8  1  0
  6 29  1  0
  7 24  4  0
  7 26  4  0
  8 28  1  0
  9 13  2  0
 10 18  1  0
 10 21  4  0
 10 30  4  0
 11 17  2  0
 12 18  1  0
 13 15  1  0
 14 24  1  0
 15 25  1  0
 16 28  2  0
 17 20  1  0
 19 24  4  0
 20 23  1  0
 21 22  4  0
 22 23  4  0
 25 26  4  0
 27 29  2  0
M  END
$$$$

 Created by Python create_sdf_string function

 30 33  0  0  0  0  0  0  0  0999 V2000
    8.3036    9.8571   18.4133 C   0  0  0  0  0  0  0  0  0  0  0  0
    8.3694    7.6612   22.6703 C   0  0  0  0  0  0  0  0  0  0  0  0
    8.4143    6.6863   16.2273 C   0  0  0  0  0  0  0  0  0  0  0  0
   10.7581    6.5674   21.7636 C   0  0  0  0  0  0  0  0  0  0  0  0
    8.4452    8.7960   19.2958 O   0  0  0  0  0  0  0  0  0  0  0  0
    8.7122    6.7842   24.8569 C   0  0  0  0  0  0  0  0  0  0  0  0
   10.3400    6.1726   14.3081 C   0  0  0  0  0  0  0  0  0  0  0  0
    7.4297    7.5873   24.8962 C   0  0  0  0  0  0  0  0  0  0  0  0
    8.1566   10.0536   16.0516 O   0  0  0  0  0  0  0  0  0  0  0  0
   12.4989    6.2074   20.1776 C   0  0  0  0  0  0  0  0  0  0  0  0
    6.9192    9.1053   20.9073 O   0  0  0  0  0  0  0  0  0  0  0  0
   14.3979    6.0729   18.7784 C   0  0  0  0  0  0  0  0  0  0  0  0
    8.6811    9.5354   16.9998 C   0  0  0  0  0  0  0  0  0  0  0  0
    9.2512    4.2713   13.7653 O   0  0  0  0  0  0  0  0  0  0  0  0
    9.6495    8.6317   16.8332 N   0  0  0  0  0  0  0  0  0  0  0  0
    6.2934    8.6988   23.1988 O   0  0  0  0  0  0  0  0  0  0  0  0
    7.9806    8.6543   20.5437 C   0  0  0  0  0  0  0  0  0  0  0  0
   13.7270    5.7144   19.8610 O   0  0  0  0  0  0  0  0  0  0  0  0
    8.3351    5.5235   15.4478 C   0  0  0  0  0  0  0  0  0  0  0  0
    8.7700    7.8434   21.3915 C   0  0  0  0  0  0  0  0  0  0  0  0
   11.7856    6.8851   19.2401 C   0  0  0  0  0  0  0  0  0  0  0  0
   10.5281    7.4276   19.5649 C   0  0  0  0  0  0  0  0  0  0  0  0
   10.0256    7.2907   20.8484 C   0  0  0  0  0  0  0  0  0  0  0  0
    9.3113    5.3049   14.4911 C   0  0  0  0  0  0  0  0  0  0  0  0
    9.4607    7.5646   16.0139 C   0  0  0  0  0  0  0  0  0  0  0  0
   10.4192    7.3157   15.0955 C   0  0  0  0  0  0  0  0  0  0  0  0
   10.2489    6.4227   23.0218 N   0  0  0  0  0  0  0  0  0  0  0  0
    7.2472    8.0746   23.5050 C   0  0  0  0  0  0  0  0  0  0  0  0
    9.2051    6.9101   23.4604 C   0  0  0  0  0  0  0  0  0  0  0  0
   11.9646    6.0299   21.4251 C   0  0  0  0  0  0  0  0  0  0  0  0
  1  5  1  0
  1 13  1  0
  2 20  2  0
  2 28  1  0
  2 29  1  0
  3 19  4  0
  3 25  4  0
  4 23  4  0
  4 27  1  0
  4 30  4  0
  5 17  1  0
  6  8  1  0
  6 29  1  0
  7 24  4  0
  7 26  4  0
  8 28  1  0
  9 13  2  0
 10 18  1  0
 10 21  4  0
 10 30  4  0
 11 17  2  0
 12 18  1  0
 13 15  1  0
 14 24  1  0
 15 25  1  0
 16 28  2  0
 17 20  1  0
 19 24  4  0
 20 23  1  0
 21 22  4  0
 22 23  4  0
 25 26  4  0
 27 29  2  0
M  END
$$$$

 Created by Python create_sdf_string function

 30 33  0  0  0  0  0  0  0  0999 V2000
    8.3036    9.8571   18.4133 C   0  0  0  0  0  0  0  0  0  0  0  0
    8.3694    7.6612   22.6703 C   0  0  0  0  0  0  0  0  0  0  0  0
    8.4143    6.6863   16.2273 C   0  0  0  0  0  0  0  0  0  0  0  0
   10.7581    6.5674   21.7636 C   0  0  0  0  0  0  0  0  0  0  0  0
    8.4452    8.7960   19.2958 O   0  0  0  0  0  0  0  0  0  0  0  0
    8.7122    6.7842   24.8569 C   0  0  0  0  0  0  0  0  0  0  0  0
   10.3400    6.1726   14.3081 C   0  0  0  0  0  0  0  0  0  0  0  0
    7.4297    7.5873   24.8962 C   0  0  0  0  0  0  0  0  0  0  0  0
    8.1566   10.0536   16.0516 O   0  0  0  0  0  0  0  0  0  0  0  0
   12.4989    6.2074   20.1776 C   0  0  0  0  0  0  0  0  0  0  0  0
    6.9192    9.1053   20.9073 O   0  0  0  0  0  0  0  0  0  0  0  0
   14.3979    6.0729   18.7784 C   0  0  0  0  0  0  0  0  0  0  0  0
    8.6811    9.5354   16.9998 C   0  0  0  0  0  0  0  0  0  0  0  0
    9.2512    4.2713   13.7653 O   0  0  0  0  0  0  0  0  0  0  0  0
    9.6495    8.6317   16.8332 N   0  0  0  0  0  0  0  0  0  0  0  0
    6.2934    8.6988   23.1988 O   0  0  0  0  0  0  0  0  0  0  0  0
    7.9806    8.6543   20.5437 C   0  0  0  0  0  0  0  0  0  0  0  0
   13.7270    5.7144   19.8610 O   0  0  0  0  0  0  0  0  0  0  0  0
    8.3351    5.5235   15.4478 C   0  0  0  0  0  0  0  0  0  0  0  0
    8.7700    7.8434   21.3915 C   0  0  0  0  0  0  0  0  0  0  0  0
   11.7856    6.8851   19.2401 C   0  0  0  0  0  0  0  0  0  0  0  0
   10.5281    7.4276   19.5649 C   0  0  0  0  0  0  0  0  0  0  0  0
   10.0256    7.2907   20.8484 C   0  0  0  0  0  0  0  0  0  0  0  0
    9.3113    5.3049   14.4911 C   0  0  0  0  0  0  0  0  0  0  0  0
    9.4607    7.5646   16.0139 C   0  0  0  0  0  0  0  0  0  0  0  0
   10.4192    7.3157   15.0955 C   0  0  0  0  0  0  0  0  0  0  0  0
   10.2489    6.4227   23.0218 N   0  0  0  0  0  0  0  0  0  0  0  0
    7.2472    8.0746   23.5050 C   0  0  0  0  0  0  0  0  0  0  0  0
    9.2051    6.9101   23.4604 C   0  0  0  0  0  0  0  0  0  0  0  0
   11.9646    6.0299   21.4251 C   0  0  0  0  0  0  0  0  0  0  0  0
  1  5  1  0
  1 13  1  0
  2 20  2  0
  2 28  1  0
  2 29  1  0
  3 19  4  0
  3 25  4  0
  4 23  4  0
  4 27  1  0
  4 30  4  0
  5 17  1  0
  6  8  1  0
  6 29  1  0
  7 24  4  0
  7 26  4  0
  8 28  1  0
  9 13  2  0
 10 18  1  0
 10 21  4  0
 10 30  4  0
 11 17  2  0
 12 18  1  0
 13 15  1  0
 14 24  1  0
 15 25  1  0
 16 28  2  0
 17 20  1  0
 19 24  4  0
 20 23  1  0
 21 22  4  0
 22 23  4  0
 25 26  4  0
 27 29  2  0
M  END
$$$$

 Created by Python create_sdf_string function

 30 33  0  0  0  0  0  0  0  0999 V2000
    8.3036    9.8571   18.4133 C   0  0  0  0  0  0  0  0  0  0  0  0
    8.3694    7.6612   22.6703 C   0  0  0  0  0  0  0  0  0  0  0  0
    8.4143    6.6863   16.2273 C   0  0  0  0  0  0  0  0  0  0  0  0
   10.7581    6.5674   21.7636 C   0  0  0  0  0  0  0  0  0  0  0  0
    8.4452    8.7960   19.2958 O   0  0  0  0  0  0  0  0  0  0  0  0
    8.7122    6.7842   24.8569 C   0  0  0  0  0  0  0  0  0  0  0  0
   10.3400    6.1726   14.3081 C   0  0  0  0  0  0  0  0  0  0  0  0
    7.4297    7.5873   24.8962 C   0  0  0  0  0  0  0  0  0  0  0  0
    8.1566   10.0536   16.0516 O   0  0  0  0  0  0  0  0  0  0  0  0
   12.4989    6.2074   20.1776 C   0  0  0  0  0  0  0  0  0  0  0  0
    6.9192    9.1053   20.9073 O   0  0  0  0  0  0  0  0  0  0  0  0
   14.3979    6.0729   18.7784 C   0  0  0  0  0  0  0  0  0  0  0  0
    8.6811    9.5354   16.9998 C   0  0  0  0  0  0  0  0  0  0  0  0
    9.2512    4.2713   13.7653 O   0  0  0  0  0  0  0  0  0  0  0  0
    9.6495    8.6317   16.8332 N   0  0  0  0  0  0  0  0  0  0  0  0
    6.2934    8.6988   23.1988 O   0  0  0  0  0  0  0  0  0  0  0  0
    7.9806    8.6543   20.5437 C   0  0  0  0  0  0  0  0  0  0  0  0
   13.7270    5.7144   19.8610 O   0  0  0  0  0  0  0  0  0  0  0  0
    8.3351    5.5235   15.4478 C   0  0  0  0  0  0  0  0  0  0  0  0
    8.7700    7.8434   21.3915 C   0  0  0  0  0  0  0  0  0  0  0  0
   11.7856    6.8851   19.2401 C   0  0  0  0  0  0  0  0  0  0  0  0
   10.5281    7.4276   19.5649 C   0  0  0  0  0  0  0  0  0  0  0  0
   10.0256    7.2907   20.8484 C   0  0  0  0  0  0  0  0  0  0  0  0
    9.3113    5.3049   14.4911 C   0  0  0  0  0  0  0  0  0  0  0  0
    9.4607    7.5646   16.0139 C   0  0  0  0  0  0  0  0  0  0  0  0
   10.4192    7.3157   15.0955 C   0  0  0  0  0  0  0  0  0  0  0  0
   10.2489    6.4227   23.0218 N   0  0  0  0  0  0  0  0  0  0  0  0
    7.2472    8.0746   23.5050 C   0  0  0  0  0  0  0  0  0  0  0  0
    9.2051    6.9101   23.4604 C   0  0  0  0  0  0  0  0  0  0  0  0
   11.9646    6.0299   21.4251 C   0  0  0  0  0  0  0  0  0  0  0  0
  1  5  1  0
  1 13  1  0
  2 20  2  0
  2 28  1  0
  2 29  1  0
  3 19  4  0
  3 25  4  0
  4 23  4  0
  4 27  1  0
  4 30  4  0
  5 17  1  0
  6  8  1  0
  6 29  1  0
  7 24  4  0
  7 26  4  0
  8 28  1  0
  9 13  2  0
 10 18  1  0
 10 21  4  0
 10 30  4  0
 11 17  2  0
 12 18  1  0
 13 15  1  0
 14 24  1  0
 15 25  1  0
 16 28  2  0
 17 20  1  0
 19 24  4  0
 20 23  1  0
 21 22  4  0
 22 23  4  0
 25 26  4  0
 27 29  2  0
M  END
$$$$

 Created by Python create_sdf_string function

 30 33  0  0  0  0  0  0  0  0999 V2000
    8.3036    9.8571   18.4133 C   0  0  0  0  0  0  0  0  0  0  0  0
    8.3694    7.6612   22.6703 C   0  0  0  0  0  0  0  0  0  0  0  0
    8.4143    6.6863   16.2273 C   0  0  0  0  0  0  0  0  0  0  0  0
   10.7581    6.5674   21.7636 C   0  0  0  0  0  0  0  0  0  0  0  0
    8.4452    8.7960   19.2958 O   0  0  0  0  0  0  0  0  0  0  0  0
    8.7122    6.7842   24.8569 C   0  0  0  0  0  0  0  0  0  0  0  0
   10.3400    6.1726   14.3081 C   0  0  0  0  0  0  0  0  0  0  0  0
    7.4297    7.5873   24.8962 C   0  0  0  0  0  0  0  0  0  0  0  0
    8.1566   10.0536   16.0516 O   0  0  0  0  0  0  0  0  0  0  0  0
   12.4989    6.2074   20.1776 C   0  0  0  0  0  0  0  0  0  0  0  0
    6.9192    9.1053   20.9073 O   0  0  0  0  0  0  0  0  0  0  0  0
   14.3979    6.0729   18.7784 C   0  0  0  0  0  0  0  0  0  0  0  0
    8.6811    9.5354   16.9998 C   0  0  0  0  0  0  0  0  0  0  0  0
    9.2512    4.2713   13.7653 O   0  0  0  0  0  0  0  0  0  0  0  0
    9.6495    8.6317   16.8332 N   0  0  0  0  0  0  0  0  0  0  0  0
    6.2934    8.6988   23.1988 O   0  0  0  0  0  0  0  0  0  0  0  0
    7.9806    8.6543   20.5437 C   0  0  0  0  0  0  0  0  0  0  0  0
   13.7270    5.7144   19.8610 O   0  0  0  0  0  0  0  0  0  0  0  0
    8.3351    5.5235   15.4478 C   0  0  0  0  0  0  0  0  0  0  0  0
    8.7700    7.8434   21.3915 C   0  0  0  0  0  0  0  0  0  0  0  0
   11.7856    6.8851   19.2401 C   0  0  0  0  0  0  0  0  0  0  0  0
   10.5281    7.4276   19.5649 C   0  0  0  0  0  0  0  0  0  0  0  0
   10.0256    7.2907   20.8484 C   0  0  0  0  0  0  0  0  0  0  0  0
    9.3113    5.3049   14.4911 C   0  0  0  0  0  0  0  0  0  0  0  0
    9.4607    7.5646   16.0139 C   0  0  0  0  0  0  0  0  0  0  0  0
   10.4192    7.3157   15.0955 C   0  0  0  0  0  0  0  0  0  0  0  0
   10.2489    6.4227   23.0218 N   0  0  0  0  0  0  0  0  0  0  0  0
    7.2472    8.0746   23.5050 C   0  0  0  0  0  0  0  0  0  0  0  0
    9.2051    6.9101   23.4604 C   0  0  0  0  0  0  0  0  0  0  0  0
   11.9646    6.0299   21.4251 C   0  0  0  0  0  0  0  0  0  0  0  0
  1  5  1  0
  1 13  1  0
  2 20  2  0
  2 28  1  0
  2 29  1  0
  3 19  4  0
  3 25  4  0
  4 23  4  0
  4 27  1  0
  4 30  4  0
  5 17  1  0
  6  8  1  0
  6 29  1  0
  7 24  4  0
  7 26  4  0
  8 28  1  0
  9 13  2  0
 10 18  1  0
 10 21  4  0
 10 30  4  0
 11 17  2  0
 12 18  1  0
 13 15  1  0
 14 24  1  0
 15 25  1  0
 16 28  2  0
 17 20  1  0
 19 24  4  0
 20 23  1  0
 21 22  4  0
 22 23  4  0
 25 26  4  0
 27 29  2  0
M  END
$$$$

 Created by Python create_sdf_string function

 30 33  0  0  0  0  0  0  0  0999 V2000
    8.3036    9.8571   18.4133 C   0  0  0  0  0  0  0  0  0  0  0  0
    8.3694    7.6612   22.6703 C   0  0  0  0  0  0  0  0  0  0  0  0
    8.4143    6.6863   16.2273 C   0  0  0  0  0  0  0  0  0  0  0  0
   10.7581    6.5674   21.7636 C   0  0  0  0  0  0  0  0  0  0  0  0
    8.4452    8.7960   19.2958 O   0  0  0  0  0  0  0  0  0  0  0  0
    8.7122    6.7842   24.8569 C   0  0  0  0  0  0  0  0  0  0  0  0
   10.3400    6.1726   14.3081 C   0  0  0  0  0  0  0  0  0  0  0  0
    7.4297    7.5873   24.8962 C   0  0  0  0  0  0  0  0  0  0  0  0
    8.1566   10.0536   16.0516 O   0  0  0  0  0  0  0  0  0  0  0  0
   12.4989    6.2074   20.1776 C   0  0  0  0  0  0  0  0  0  0  0  0
    6.9192    9.1053   20.9073 O   0  0  0  0  0  0  0  0  0  0  0  0
   14.3979    6.0729   18.7784 C   0  0  0  0  0  0  0  0  0  0  0  0
    8.6811    9.5354   16.9998 C   0  0  0  0  0  0  0  0  0  0  0  0
    9.2512    4.2713   13.7653 O   0  0  0  0  0  0  0  0  0  0  0  0
    9.6495    8.6317   16.8332 N   0  0  0  0  0  0  0  0  0  0  0  0
    6.2934    8.6988   23.1988 O   0  0  0  0  0  0  0  0  0  0  0  0
    7.9806    8.6543   20.5437 C   0  0  0  0  0  0  0  0  0  0  0  0
   13.7270    5.7144   19.8610 O   0  0  0  0  0  0  0  0  0  0  0  0
    8.3351    5.5235   15.4478 C   0  0  0  0  0  0  0  0  0  0  0  0
    8.7700    7.8434   21.3915 C   0  0  0  0  0  0  0  0  0  0  0  0
   11.7856    6.8851   19.2401 C   0  0  0  0  0  0  0  0  0  0  0  0
   10.5281    7.4276   19.5649 C   0  0  0  0  0  0  0  0  0  0  0  0
   10.0256    7.2907   20.8484 C   0  0  0  0  0  0  0  0  0  0  0  0
    9.3113    5.3049   14.4911 C   0  0  0  0  0  0  0  0  0  0  0  0
    9.4607    7.5646   16.0139 C   0  0  0  0  0  0  0  0  0  0  0  0
   10.4192    7.3157   15.0955 C   0  0  0  0  0  0  0  0  0  0  0  0
   10.2489    6.4227   23.0218 N   0  0  0  0  0  0  0  0  0  0  0  0
    7.2472    8.0746   23.5050 C   0  0  0  0  0  0  0  0  0  0  0  0
    9.2051    6.9101   23.4604 C   0  0  0  0  0  0  0  0  0  0  0  0
   11.9646    6.0299   21.4251 C   0  0  0  0  0  0  0  0  0  0  0  0
  1  5  1  0
  1 13  1  0
  2 20  2  0
  2 28  1  0
  2 29  1  0
  3 19  4  0
  3 25  4  0
  4 23  4  0
  4 27  1  0
  4 30  4  0
  5 17  1  0
  6  8  1  0
  6 29  1  0
  7 24  4  0
  7 26  4  0
  8 28  1  0
  9 13  2  0
 10 18  1  0
 10 21  4  0
 10 30  4  0
 11 17  2  0
 12 18  1  0
 13 15  1  0
 14 24  1  0
 15 25  1  0
 16 28  2  0
 17 20  1  0
 19 24  4  0
 20 23  1  0
 21 22  4  0
 22 23  4  0
 25 26  4  0
 27 29  2  0
M  END
$$$$

 Created by Python create_sdf_string function

 30 33  0  0  0  0  0  0  0  0999 V2000
    8.3036    9.8571   18.4133 C   0  0  0  0  0  0  0  0  0  0  0  0
    8.3694    7.6612   22.6703 C   0  0  0  0  0  0  0  0  0  0  0  0
    8.4143    6.6863   16.2273 C   0  0  0  0  0  0  0  0  0  0  0  0
   10.7581    6.5674   21.7636 C   0  0  0  0  0  0  0  0  0  0  0  0
    8.4452    8.7960   19.2958 O   0  0  0  0  0  0  0  0  0  0  0  0
    8.7122    6.7842   24.8569 C   0  0  0  0  0  0  0  0  0  0  0  0
   10.3400    6.1726   14.3081 C   0  0  0  0  0  0  0  0  0  0  0  0
    7.4297    7.5873   24.8962 C   0  0  0  0  0  0  0  0  0  0  0  0
    8.1566   10.0536   16.0516 O   0  0  0  0  0  0  0  0  0  0  0  0
   12.4989    6.2074   20.1776 C   0  0  0  0  0  0  0  0  0  0  0  0
    6.9192    9.1053   20.9073 O   0  0  0  0  0  0  0  0  0  0  0  0
   14.3979    6.0729   18.7784 C   0  0  0  0  0  0  0  0  0  0  0  0
    8.6811    9.5354   16.9998 C   0  0  0  0  0  0  0  0  0  0  0  0
    9.2512    4.2713   13.7653 O   0  0  0  0  0  0  0  0  0  0  0  0
    9.6495    8.6317   16.8332 N   0  0  0  0  0  0  0  0  0  0  0  0
    6.2934    8.6988   23.1988 O   0  0  0  0  0  0  0  0  0  0  0  0
    7.9806    8.6543   20.5437 C   0  0  0  0  0  0  0  0  0  0  0  0
   13.7270    5.7144   19.8610 O   0  0  0  0  0  0  0  0  0  0  0  0
    8.3351    5.5235   15.4478 C   0  0  0  0  0  0  0  0  0  0  0  0
    8.7700    7.8434   21.3915 C   0  0  0  0  0  0  0  0  0  0  0  0
   11.7856    6.8851   19.2401 C   0  0  0  0  0  0  0  0  0  0  0  0
   10.5281    7.4276   19.5649 C   0  0  0  0  0  0  0  0  0  0  0  0
   10.0256    7.2907   20.8484 C   0  0  0  0  0  0  0  0  0  0  0  0
    9.3113    5.3049   14.4911 C   0  0  0  0  0  0  0  0  0  0  0  0
    9.4607    7.5646   16.0139 C   0  0  0  0  0  0  0  0  0  0  0  0
   10.4192    7.3157   15.0955 C   0  0  0  0  0  0  0  0  0  0  0  0
   10.2489    6.4227   23.0218 N   0  0  0  0  0  0  0  0  0  0  0  0
    7.2472    8.0746   23.5050 C   0  0  0  0  0  0  0  0  0  0  0  0
    9.2051    6.9101   23.4604 C   0  0  0  0  0  0  0  0  0  0  0  0
   11.9646    6.0299   21.4251 C   0  0  0  0  0  0  0  0  0  0  0  0
  1  5  1  0
  1 13  1  0
  2 20  2  0
  2 28  1  0
  2 29  1  0
  3 19  4  0
  3 25  4  0
  4 23  4  0
  4 27  1  0
  4 30  4  0
  5 17  1  0
  6  8  1  0
  6 29  1  0
  7 24  4  0
  7 26  4  0
  8 28  1  0
  9 13  2  0
 10 18  1  0
 10 21  4  0
 10 30  4  0
 11 17  2  0
 12 18  1  0
 13 15  1  0
 14 24  1  0
 15 25  1  0
 16 28  2  0
 17 20  1  0
 19 24  4  0
 20 23  1  0
 21 22  4  0
 22 23  4  0
 25 26  4  0
 27 29  2  0
M  END
$$$$

 Created by Python create_sdf_string function

 30 33  0  0  0  0  0  0  0  0999 V2000
    8.3036    9.8571   18.4133 C   0  0  0  0  0  0  0  0  0  0  0  0
    8.3694    7.6612   22.6703 C   0  0  0  0  0  0  0  0  0  0  0  0
    8.4143    6.6863   16.2273 C   0  0  0  0  0  0  0  0  0  0  0  0
   10.7581    6.5674   21.7636 C   0  0  0  0  0  0  0  0  0  0  0  0
    8.4452    8.7960   19.2958 O   0  0  0  0  0  0  0  0  0  0  0  0
    8.7122    6.7842   24.8569 C   0  0  0  0  0  0  0  0  0  0  0  0
   10.3400    6.1726   14.3081 C   0  0  0  0  0  0  0  0  0  0  0  0
    7.4297    7.5873   24.8962 C   0  0  0  0  0  0  0  0  0  0  0  0
    8.1566   10.0536   16.0516 O   0  0  0  0  0  0  0  0  0  0  0  0
   12.4989    6.2074   20.1776 C   0  0  0  0  0  0  0  0  0  0  0  0
    6.9192    9.1053   20.9073 O   0  0  0  0  0  0  0  0  0  0  0  0
   14.3979    6.0729   18.7784 C   0  0  0  0  0  0  0  0  0  0  0  0
    8.6811    9.5354   16.9998 C   0  0  0  0  0  0  0  0  0  0  0  0
    9.2512    4.2713   13.7653 O   0  0  0  0  0  0  0  0  0  0  0  0
    9.6495    8.6317   16.8332 N   0  0  0  0  0  0  0  0  0  0  0  0
    6.2934    8.6988   23.1988 O   0  0  0  0  0  0  0  0  0  0  0  0
    7.9806    8.6543   20.5437 C   0  0  0  0  0  0  0  0  0  0  0  0
   13.7270    5.7144   19.8610 O   0  0  0  0  0  0  0  0  0  0  0  0
    8.3351    5.5235   15.4478 C   0  0  0  0  0  0  0  0  0  0  0  0
    8.7700    7.8434   21.3915 C   0  0  0  0  0  0  0  0  0  0  0  0
   11.7856    6.8851   19.2401 C   0  0  0  0  0  0  0  0  0  0  0  0
   10.5281    7.4276   19.5649 C   0  0  0  0  0  0  0  0  0  0  0  0
   10.0256    7.2907   20.8484 C   0  0  0  0  0  0  0  0  0  0  0  0
    9.3113    5.3049   14.4911 C   0  0  0  0  0  0  0  0  0  0  0  0
    9.4607    7.5646   16.0139 C   0  0  0  0  0  0  0  0  0  0  0  0
   10.4192    7.3157   15.0955 C   0  0  0  0  0  0  0  0  0  0  0  0
   10.2489    6.4227   23.0218 N   0  0  0  0  0  0  0  0  0  0  0  0
    7.2472    8.0746   23.5050 C   0  0  0  0  0  0  0  0  0  0  0  0
    9.2051    6.9101   23.4604 C   0  0  0  0  0  0  0  0  0  0  0  0
   11.9646    6.0299   21.4251 C   0  0  0  0  0  0  0  0  0  0  0  0
  1  5  1  0
  1 13  1  0
  2 20  2  0
  2 28  1  0
  2 29  1  0
  3 19  4  0
  3 25  4  0
  4 23  4  0
  4 27  1  0
  4 30  4  0
  5 17  1  0
  6  8  1  0
  6 29  1  0
  7 24  4  0
  7 26  4  0
  8 28  1  0
  9 13  2  0
 10 18  1  0
 10 21  4  0
 10 30  4  0
 11 17  2  0
 12 18  1  0
 13 15  1  0
 14 24  1  0
 15 25  1  0
 16 28  2  0
 17 20  1  0
 19 24  4  0
 20 23  1  0
 21 22  4  0
 22 23  4  0
 25 26  4  0
 27 29  2  0
M  END
$$$$

 Created by Python create_sdf_string function

 30 33  0  0  0  0  0  0  0  0999 V2000
    8.3036    9.8571   18.4133 C   0  0  0  0  0  0  0  0  0  0  0  0
    8.3694    7.6612   22.6703 C   0  0  0  0  0  0  0  0  0  0  0  0
    8.4143    6.6863   16.2273 C   0  0  0  0  0  0  0  0  0  0  0  0
   10.7581    6.5674   21.7636 C   0  0  0  0  0  0  0  0  0  0  0  0
    8.4452    8.7960   19.2958 O   0  0  0  0  0  0  0  0  0  0  0  0
    8.7122    6.7842   24.8569 C   0  0  0  0  0  0  0  0  0  0  0  0
   10.3400    6.1726   14.3081 C   0  0  0  0  0  0  0  0  0  0  0  0
    7.4297    7.5873   24.8962 C   0  0  0  0  0  0  0  0  0  0  0  0
    8.1566   10.0536   16.0516 O   0  0  0  0  0  0  0  0  0  0  0  0
   12.4989    6.2074   20.1776 C   0  0  0  0  0  0  0  0  0  0  0  0
    6.9192    9.1053   20.9073 O   0  0  0  0  0  0  0  0  0  0  0  0
   14.3979    6.0729   18.7784 C   0  0  0  0  0  0  0  0  0  0  0  0
    8.6811    9.5354   16.9998 C   0  0  0  0  0  0  0  0  0  0  0  0
    9.2512    4.2713   13.7653 O   0  0  0  0  0  0  0  0  0  0  0  0
    9.6495    8.6317   16.8332 N   0  0  0  0  0  0  0  0  0  0  0  0
    6.2934    8.6988   23.1988 O   0  0  0  0  0  0  0  0  0  0  0  0
    7.9806    8.6543   20.5437 C   0  0  0  0  0  0  0  0  0  0  0  0
   13.7270    5.7144   19.8610 O   0  0  0  0  0  0  0  0  0  0  0  0
    8.3351    5.5235   15.4478 C   0  0  0  0  0  0  0  0  0  0  0  0
    8.7700    7.8434   21.3915 C   0  0  0  0  0  0  0  0  0  0  0  0
   11.7856    6.8851   19.2401 C   0  0  0  0  0  0  0  0  0  0  0  0
   10.5281    7.4276   19.5649 C   0  0  0  0  0  0  0  0  0  0  0  0
   10.0256    7.2907   20.8484 C   0  0  0  0  0  0  0  0  0  0  0  0
    9.3113    5.3049   14.4911 C   0  0  0  0  0  0  0  0  0  0  0  0
    9.4607    7.5646   16.0139 C   0  0  0  0  0  0  0  0  0  0  0  0
   10.4192    7.3157   15.0955 C   0  0  0  0  0  0  0  0  0  0  0  0
   10.2489    6.4227   23.0218 N   0  0  0  0  0  0  0  0  0  0  0  0
    7.2472    8.0746   23.5050 C   0  0  0  0  0  0  0  0  0  0  0  0
    9.2051    6.9101   23.4604 C   0  0  0  0  0  0  0  0  0  0  0  0
   11.9646    6.0299   21.4251 C   0  0  0  0  0  0  0  0  0  0  0  0
  1  5  1  0
  1 13  1  0
  2 20  2  0
  2 28  1  0
  2 29  1  0
  3 19  4  0
  3 25  4  0
  4 23  4  0
  4 27  1  0
  4 30  4  0
  5 17  1  0
  6  8  1  0
  6 29  1  0
  7 24  4  0
  7 26  4  0
  8 28  1  0
  9 13  2  0
 10 18  1  0
 10 21  4  0
 10 30  4  0
 11 17  2  0
 12 18  1  0
 13 15  1  0
 14 24  1  0
 15 25  1  0
 16 28  2  0
 17 20  1  0
 19 24  4  0
 20 23  1  0
 21 22  4  0
 22 23  4  0
 25 26  4  0
 27 29  2  0
M  END
$$$$

 Created by Python create_sdf_string function

 30 33  0  0  0  0  0  0  0  0999 V2000
    8.3036    9.8571   18.4133 C   0  0  0  0  0  0  0  0  0  0  0  0
    8.3694    7.6612   22.6703 C   0  0  0  0  0  0  0  0  0  0  0  0
    8.4143    6.6863   16.2273 C   0  0  0  0  0  0  0  0  0  0  0  0
   10.7581    6.5674   21.7636 C   0  0  0  0  0  0  0  0  0  0  0  0
    8.4452    8.7960   19.2958 O   0  0  0  0  0  0  0  0  0  0  0  0
    8.7122    6.7842   24.8569 C   0  0  0  0  0  0  0  0  0  0  0  0
   10.3400    6.1726   14.3081 C   0  0  0  0  0  0  0  0  0  0  0  0
    7.4297    7.5873   24.8962 C   0  0  0  0  0  0  0  0  0  0  0  0
    8.1566   10.0536   16.0516 O   0  0  0  0  0  0  0  0  0  0  0  0
   12.4989    6.2074   20.1776 C   0  0  0  0  0  0  0  0  0  0  0  0
    6.9192    9.1053   20.9073 O   0  0  0  0  0  0  0  0  0  0  0  0
   14.3979    6.0729   18.7784 C   0  0  0  0  0  0  0  0  0  0  0  0
    8.6811    9.5354   16.9998 C   0  0  0  0  0  0  0  0  0  0  0  0
    9.2512    4.2713   13.7653 O   0  0  0  0  0  0  0  0  0  0  0  0
    9.6495    8.6317   16.8332 N   0  0  0  0  0  0  0  0  0  0  0  0
    6.2934    8.6988   23.1988 O   0  0  0  0  0  0  0  0  0  0  0  0
    7.9806    8.6543   20.5437 C   0  0  0  0  0  0  0  0  0  0  0  0
   13.7270    5.7144   19.8610 O   0  0  0  0  0  0  0  0  0  0  0  0
    8.3351    5.5235   15.4478 C   0  0  0  0  0  0  0  0  0  0  0  0
    8.7700    7.8434   21.3915 C   0  0  0  0  0  0  0  0  0  0  0  0
   11.7856    6.8851   19.2401 C   0  0  0  0  0  0  0  0  0  0  0  0
   10.5281    7.4276   19.5649 C   0  0  0  0  0  0  0  0  0  0  0  0
   10.0256    7.2907   20.8484 C   0  0  0  0  0  0  0  0  0  0  0  0
    9.3113    5.3049   14.4911 C   0  0  0  0  0  0  0  0  0  0  0  0
    9.4607    7.5646   16.0139 C   0  0  0  0  0  0  0  0  0  0  0  0
   10.4192    7.3157   15.0955 C   0  0  0  0  0  0  0  0  0  0  0  0
   10.2489    6.4227   23.0218 N   0  0  0  0  0  0  0  0  0  0  0  0
    7.2472    8.0746   23.5050 C   0  0  0  0  0  0  0  0  0  0  0  0
    9.2051    6.9101   23.4604 C   0  0  0  0  0  0  0  0  0  0  0  0
   11.9646    6.0299   21.4251 C   0  0  0  0  0  0  0  0  0  0  0  0
  1  5  1  0
  1 13  1  0
  2 20  2  0
  2 28  1  0
  2 29  1  0
  3 19  4  0
  3 25  4  0
  4 23  4  0
  4 27  1  0
  4 30  4  0
  5 17  1  0
  6  8  1  0
  6 29  1  0
  7 24  4  0
  7 26  4  0
  8 28  1  0
  9 13  2  0
 10 18  1  0
 10 21  4  0
 10 30  4  0
 11 17  2  0
 12 18  1  0
 13 15  1  0
 14 24  1  0
 15 25  1  0
 16 28  2  0
 17 20  1  0
 19 24  4  0
 20 23  1  0
 21 22  4  0
 22 23  4  0
 25 26  4  0
 27 29  2  0
M  END
$$$$

 Created by Python create_sdf_string function

 30 33  0  0  0  0  0  0  0  0999 V2000
    8.3036    9.8571   18.4133 C   0  0  0  0  0  0  0  0  0  0  0  0
    8.3694    7.6612   22.6703 C   0  0  0  0  0  0  0  0  0  0  0  0
    8.4143    6.6863   16.2273 C   0  0  0  0  0  0  0  0  0  0  0  0
   10.7581    6.5674   21.7636 C   0  0  0  0  0  0  0  0  0  0  0  0
    8.4452    8.7960   19.2958 O   0  0  0  0  0  0  0  0  0  0  0  0
    8.7122    6.7842   24.8569 C   0  0  0  0  0  0  0  0  0  0  0  0
   10.3400    6.1726   14.3081 C   0  0  0  0  0  0  0  0  0  0  0  0
    7.4297    7.5873   24.8962 C   0  0  0  0  0  0  0  0  0  0  0  0
    8.1566   10.0536   16.0516 O   0  0  0  0  0  0  0  0  0  0  0  0
   12.4989    6.2074   20.1776 C   0  0  0  0  0  0  0  0  0  0  0  0
    6.9192    9.1053   20.9073 O   0  0  0  0  0  0  0  0  0  0  0  0
   14.3979    6.0729   18.7784 C   0  0  0  0  0  0  0  0  0  0  0  0
    8.6811    9.5354   16.9998 C   0  0  0  0  0  0  0  0  0  0  0  0
    9.2512    4.2713   13.7653 O   0  0  0  0  0  0  0  0  0  0  0  0
    9.6495    8.6317   16.8332 N   0  0  0  0  0  0  0  0  0  0  0  0
    6.2934    8.6988   23.1988 O   0  0  0  0  0  0  0  0  0  0  0  0
    7.9806    8.6543   20.5437 C   0  0  0  0  0  0  0  0  0  0  0  0
   13.7270    5.7144   19.8610 O   0  0  0  0  0  0  0  0  0  0  0  0
    8.3351    5.5235   15.4478 C   0  0  0  0  0  0  0  0  0  0  0  0
    8.7700    7.8434   21.3915 C   0  0  0  0  0  0  0  0  0  0  0  0
   11.7856    6.8851   19.2401 C   0  0  0  0  0  0  0  0  0  0  0  0
   10.5281    7.4276   19.5649 C   0  0  0  0  0  0  0  0  0  0  0  0
   10.0256    7.2907   20.8484 C   0  0  0  0  0  0  0  0  0  0  0  0
    9.3113    5.3049   14.4911 C   0  0  0  0  0  0  0  0  0  0  0  0
    9.4607    7.5646   16.0139 C   0  0  0  0  0  0  0  0  0  0  0  0
   10.4192    7.3157   15.0955 C   0  0  0  0  0  0  0  0  0  0  0  0
   10.2489    6.4227   23.0218 N   0  0  0  0  0  0  0  0  0  0  0  0
    7.2472    8.0746   23.5050 C   0  0  0  0  0  0  0  0  0  0  0  0
    9.2051    6.9101   23.4604 C   0  0  0  0  0  0  0  0  0  0  0  0
   11.9646    6.0299   21.4251 C   0  0  0  0  0  0  0  0  0  0  0  0
  1  5  1  0
  1 13  1  0
  2 20  2  0
  2 28  1  0
  2 29  1  0
  3 19  4  0
  3 25  4  0
  4 23  4  0
  4 27  1  0
  4 30  4  0
  5 17  1  0
  6  8  1  0
  6 29  1  0
  7 24  4  0
  7 26  4  0
  8 28  1  0
  9 13  2  0
 10 18  1  0
 10 21  4  0
 10 30  4  0
 11 17  2  0
 12 18  1  0
 13 15  1  0
 14 24  1  0
 15 25  1  0
 16 28  2  0
 17 20  1  0
 19 24  4  0
 20 23  1  0
 21 22  4  0
 22 23  4  0
 25 26  4  0
 27 29  2  0
M  END
$$$$

 Created by Python create_sdf_string function

 30 33  0  0  0  0  0  0  0  0999 V2000
    8.3036    9.8571   18.4133 C   0  0  0  0  0  0  0  0  0  0  0  0
    8.3694    7.6612   22.6703 C   0  0  0  0  0  0  0  0  0  0  0  0
    8.4143    6.6863   16.2273 C   0  0  0  0  0  0  0  0  0  0  0  0
   10.7581    6.5674   21.7636 C   0  0  0  0  0  0  0  0  0  0  0  0
    8.4452    8.7960   19.2958 O   0  0  0  0  0  0  0  0  0  0  0  0
    8.7122    6.7842   24.8569 C   0  0  0  0  0  0  0  0  0  0  0  0
   10.3400    6.1726   14.3081 C   0  0  0  0  0  0  0  0  0  0  0  0
    7.4297    7.5873   24.8962 C   0  0  0  0  0  0  0  0  0  0  0  0
    8.1566   10.0536   16.0516 O   0  0  0  0  0  0  0  0  0  0  0  0
   12.4989    6.2074   20.1776 C   0  0  0  0  0  0  0  0  0  0  0  0
    6.9192    9.1053   20.9073 O   0  0  0  0  0  0  0  0  0  0  0  0
   14.3979    6.0729   18.7784 C   0  0  0  0  0  0  0  0  0  0  0  0
    8.6811    9.5354   16.9998 C   0  0  0  0  0  0  0  0  0  0  0  0
    9.2512    4.2713   13.7653 O   0  0  0  0  0  0  0  0  0  0  0  0
    9.6495    8.6317   16.8332 N   0  0  0  0  0  0  0  0  0  0  0  0
    6.2934    8.6988   23.1988 O   0  0  0  0  0  0  0  0  0  0  0  0
    7.9806    8.6543   20.5437 C   0  0  0  0  0  0  0  0  0  0  0  0
   13.7270    5.7144   19.8610 O   0  0  0  0  0  0  0  0  0  0  0  0
    8.3351    5.5235   15.4478 C   0  0  0  0  0  0  0  0  0  0  0  0
    8.7700    7.8434   21.3915 C   0  0  0  0  0  0  0  0  0  0  0  0
   11.7856    6.8851   19.2401 C   0  0  0  0  0  0  0  0  0  0  0  0
   10.5281    7.4276   19.5649 C   0  0  0  0  0  0  0  0  0  0  0  0
   10.0256    7.2907   20.8484 C   0  0  0  0  0  0  0  0  0  0  0  0
    9.3113    5.3049   14.4911 C   0  0  0  0  0  0  0  0  0  0  0  0
    9.4607    7.5646   16.0139 C   0  0  0  0  0  0  0  0  0  0  0  0
   10.4192    7.3157   15.0955 C   0  0  0  0  0  0  0  0  0  0  0  0
   10.2489    6.4227   23.0218 N   0  0  0  0  0  0  0  0  0  0  0  0
    7.2472    8.0746   23.5050 C   0  0  0  0  0  0  0  0  0  0  0  0
    9.2051    6.9101   23.4604 C   0  0  0  0  0  0  0  0  0  0  0  0
   11.9646    6.0299   21.4251 C   0  0  0  0  0  0  0  0  0  0  0  0
  1  5  1  0
  1 13  1  0
  2 20  2  0
  2 28  1  0
  2 29  1  0
  3 19  4  0
  3 25  4  0
  4 23  4  0
  4 27  1  0
  4 30  4  0
  5 17  1  0
  6  8  1  0
  6 29  1  0
  7 24  4  0
  7 26  4  0
  8 28  1  0
  9 13  2  0
 10 18  1  0
 10 21  4  0
 10 30  4  0
 11 17  2  0
 12 18  1  0
 13 15  1  0
 14 24  1  0
 15 25  1  0
 16 28  2  0
 17 20  1  0
 19 24  4  0
 20 23  1  0
 21 22  4  0
 22 23  4  0
 25 26  4  0
 27 29  2  0
M  END
$$$$

 Created by Python create_sdf_string function

 30 33  0  0  0  0  0  0  0  0999 V2000
    8.3036    9.8571   18.4133 C   0  0  0  0  0  0  0  0  0  0  0  0
    8.3694    7.6612   22.6703 C   0  0  0  0  0  0  0  0  0  0  0  0
    8.4143    6.6863   16.2273 C   0  0  0  0  0  0  0  0  0  0  0  0
   10.7581    6.5674   21.7636 C   0  0  0  0  0  0  0  0  0  0  0  0
    8.4452    8.7960   19.2958 O   0  0  0  0  0  0  0  0  0  0  0  0
    8.7122    6.7842   24.8569 C   0  0  0  0  0  0  0  0  0  0  0  0
   10.3400    6.1726   14.3081 C   0  0  0  0  0  0  0  0  0  0  0  0
    7.4297    7.5873   24.8962 C   0  0  0  0  0  0  0  0  0  0  0  0
    8.1566   10.0536   16.0516 O   0  0  0  0  0  0  0  0  0  0  0  0
   12.4989    6.2074   20.1776 C   0  0  0  0  0  0  0  0  0  0  0  0
    6.9192    9.1053   20.9073 O   0  0  0  0  0  0  0  0  0  0  0  0
   14.3979    6.0729   18.7784 C   0  0  0  0  0  0  0  0  0  0  0  0
    8.6811    9.5354   16.9998 C   0  0  0  0  0  0  0  0  0  0  0  0
    9.2512    4.2713   13.7653 O   0  0  0  0  0  0  0  0  0  0  0  0
    9.6495    8.6317   16.8332 N   0  0  0  0  0  0  0  0  0  0  0  0
    6.2934    8.6988   23.1988 O   0  0  0  0  0  0  0  0  0  0  0  0
    7.9806    8.6543   20.5437 C   0  0  0  0  0  0  0  0  0  0  0  0
   13.7270    5.7144   19.8610 O   0  0  0  0  0  0  0  0  0  0  0  0
    8.3351    5.5235   15.4478 C   0  0  0  0  0  0  0  0  0  0  0  0
    8.7700    7.8434   21.3915 C   0  0  0  0  0  0  0  0  0  0  0  0
   11.7856    6.8851   19.2401 C   0  0  0  0  0  0  0  0  0  0  0  0
   10.5281    7.4276   19.5649 C   0  0  0  0  0  0  0  0  0  0  0  0
   10.0256    7.2907   20.8484 C   0  0  0  0  0  0  0  0  0  0  0  0
    9.3113    5.3049   14.4911 C   0  0  0  0  0  0  0  0  0  0  0  0
    9.4607    7.5646   16.0139 C   0  0  0  0  0  0  0  0  0  0  0  0
   10.4192    7.3157   15.0955 C   0  0  0  0  0  0  0  0  0  0  0  0
   10.2489    6.4227   23.0218 N   0  0  0  0  0  0  0  0  0  0  0  0
    7.2472    8.0746   23.5050 C   0  0  0  0  0  0  0  0  0  0  0  0
    9.2051    6.9101   23.4604 C   0  0  0  0  0  0  0  0  0  0  0  0
   11.9646    6.0299   21.4251 C   0  0  0  0  0  0  0  0  0  0  0  0
  1  5  1  0
  1 13  1  0
  2 20  2  0
  2 28  1  0
  2 29  1  0
  3 19  4  0
  3 25  4  0
  4 23  4  0
  4 27  1  0
  4 30  4  0
  5 17  1  0
  6  8  1  0
  6 29  1  0
  7 24  4  0
  7 26  4  0
  8 28  1  0
  9 13  2  0
 10 18  1  0
 10 21  4  0
 10 30  4  0
 11 17  2  0
 12 18  1  0
 13 15  1  0
 14 24  1  0
 15 25  1  0
 16 28  2  0
 17 20  1  0
 19 24  4  0
 20 23  1  0
 21 22  4  0
 22 23  4  0
 25 26  4  0
 27 29  2  0
M  END
$$$$

 Created by Python create_sdf_string function

 30 33  0  0  0  0  0  0  0  0999 V2000
    8.3036    9.8571   18.4133 C   0  0  0  0  0  0  0  0  0  0  0  0
    8.3694    7.6612   22.6703 C   0  0  0  0  0  0  0  0  0  0  0  0
    8.4143    6.6863   16.2273 C   0  0  0  0  0  0  0  0  0  0  0  0
   10.7581    6.5674   21.7636 C   0  0  0  0  0  0  0  0  0  0  0  0
    8.4452    8.7960   19.2958 O   0  0  0  0  0  0  0  0  0  0  0  0
    8.7122    6.7842   24.8569 C   0  0  0  0  0  0  0  0  0  0  0  0
   10.3400    6.1726   14.3081 C   0  0  0  0  0  0  0  0  0  0  0  0
    7.4297    7.5873   24.8962 C   0  0  0  0  0  0  0  0  0  0  0  0
    8.1566   10.0536   16.0516 O   0  0  0  0  0  0  0  0  0  0  0  0
   12.4989    6.2074   20.1776 C   0  0  0  0  0  0  0  0  0  0  0  0
    6.9192    9.1053   20.9073 O   0  0  0  0  0  0  0  0  0  0  0  0
   14.3979    6.0729   18.7784 C   0  0  0  0  0  0  0  0  0  0  0  0
    8.6811    9.5354   16.9998 C   0  0  0  0  0  0  0  0  0  0  0  0
    9.2512    4.2713   13.7653 O   0  0  0  0  0  0  0  0  0  0  0  0
    9.6495    8.6317   16.8332 N   0  0  0  0  0  0  0  0  0  0  0  0
    6.2934    8.6988   23.1988 O   0  0  0  0  0  0  0  0  0  0  0  0
    7.9806    8.6543   20.5437 C   0  0  0  0  0  0  0  0  0  0  0  0
   13.7270    5.7144   19.8610 O   0  0  0  0  0  0  0  0  0  0  0  0
    8.3351    5.5235   15.4478 C   0  0  0  0  0  0  0  0  0  0  0  0
    8.7700    7.8434   21.3915 C   0  0  0  0  0  0  0  0  0  0  0  0
   11.7856    6.8851   19.2401 C   0  0  0  0  0  0  0  0  0  0  0  0
   10.5281    7.4276   19.5649 C   0  0  0  0  0  0  0  0  0  0  0  0
   10.0256    7.2907   20.8484 C   0  0  0  0  0  0  0  0  0  0  0  0
    9.3113    5.3049   14.4911 C   0  0  0  0  0  0  0  0  0  0  0  0
    9.4607    7.5646   16.0139 C   0  0  0  0  0  0  0  0  0  0  0  0
   10.4192    7.3157   15.0955 C   0  0  0  0  0  0  0  0  0  0  0  0
   10.2489    6.4227   23.0218 N   0  0  0  0  0  0  0  0  0  0  0  0
    7.2472    8.0746   23.5050 C   0  0  0  0  0  0  0  0  0  0  0  0
    9.2051    6.9101   23.4604 C   0  0  0  0  0  0  0  0  0  0  0  0
   11.9646    6.0299   21.4251 C   0  0  0  0  0  0  0  0  0  0  0  0
  1  5  1  0
  1 13  1  0
  2 20  2  0
  2 28  1  0
  2 29  1  0
  3 19  4  0
  3 25  4  0
  4 23  4  0
  4 27  1  0
  4 30  4  0
  5 17  1  0
  6  8  1  0
  6 29  1  0
  7 24  4  0
  7 26  4  0
  8 28  1  0
  9 13  2  0
 10 18  1  0
 10 21  4  0
 10 30  4  0
 11 17  2  0
 12 18  1  0
 13 15  1  0
 14 24  1  0
 15 25  1  0
 16 28  2  0
 17 20  1  0
 19 24  4  0
 20 23  1  0
 21 22  4  0
 22 23  4  0
 25 26  4  0
 27 29  2  0
M  END
$$$$

 Created by Python create_sdf_string function

 30 33  0  0  0  0  0  0  0  0999 V2000
    8.3036    9.8571   18.4133 C   0  0  0  0  0  0  0  0  0  0  0  0
    8.3694    7.6612   22.6703 C   0  0  0  0  0  0  0  0  0  0  0  0
    8.4143    6.6863   16.2273 C   0  0  0  0  0  0  0  0  0  0  0  0
   10.7581    6.5674   21.7636 C   0  0  0  0  0  0  0  0  0  0  0  0
    8.4452    8.7960   19.2958 O   0  0  0  0  0  0  0  0  0  0  0  0
    8.7122    6.7842   24.8569 C   0  0  0  0  0  0  0  0  0  0  0  0
   10.3400    6.1726   14.3081 C   0  0  0  0  0  0  0  0  0  0  0  0
    7.4297    7.5873   24.8962 C   0  0  0  0  0  0  0  0  0  0  0  0
    8.1566   10.0536   16.0516 O   0  0  0  0  0  0  0  0  0  0  0  0
   12.4989    6.2074   20.1776 C   0  0  0  0  0  0  0  0  0  0  0  0
    6.9192    9.1053   20.9073 O   0  0  0  0  0  0  0  0  0  0  0  0
   14.3979    6.0729   18.7784 C   0  0  0  0  0  0  0  0  0  0  0  0
    8.6811    9.5354   16.9998 C   0  0  0  0  0  0  0  0  0  0  0  0
    9.2512    4.2713   13.7653 O   0  0  0  0  0  0  0  0  0  0  0  0
    9.6495    8.6317   16.8332 N   0  0  0  0  0  0  0  0  0  0  0  0
    6.2934    8.6988   23.1988 O   0  0  0  0  0  0  0  0  0  0  0  0
    7.9806    8.6543   20.5437 C   0  0  0  0  0  0  0  0  0  0  0  0
   13.7270    5.7144   19.8610 O   0  0  0  0  0  0  0  0  0  0  0  0
    8.3351    5.5235   15.4478 C   0  0  0  0  0  0  0  0  0  0  0  0
    8.7700    7.8434   21.3915 C   0  0  0  0  0  0  0  0  0  0  0  0
   11.7856    6.8851   19.2401 C   0  0  0  0  0  0  0  0  0  0  0  0
   10.5281    7.4276   19.5649 C   0  0  0  0  0  0  0  0  0  0  0  0
   10.0256    7.2907   20.8484 C   0  0  0  0  0  0  0  0  0  0  0  0
    9.3113    5.3049   14.4911 C   0  0  0  0  0  0  0  0  0  0  0  0
    9.4607    7.5646   16.0139 C   0  0  0  0  0  0  0  0  0  0  0  0
   10.4192    7.3157   15.0955 C   0  0  0  0  0  0  0  0  0  0  0  0
   10.2489    6.4227   23.0218 N   0  0  0  0  0  0  0  0  0  0  0  0
    7.2472    8.0746   23.5050 C   0  0  0  0  0  0  0  0  0  0  0  0
    9.2051    6.9101   23.4604 C   0  0  0  0  0  0  0  0  0  0  0  0
   11.9646    6.0299   21.4251 C   0  0  0  0  0  0  0  0  0  0  0  0
  1  5  1  0
  1 13  1  0
  2 20  2  0
  2 28  1  0
  2 29  1  0
  3 19  4  0
  3 25  4  0
  4 23  4  0
  4 27  1  0
  4 30  4  0
  5 17  1  0
  6  8  1  0
  6 29  1  0
  7 24  4  0
  7 26  4  0
  8 28  1  0
  9 13  2  0
 10 18  1  0
 10 21  4  0
 10 30  4  0
 11 17  2  0
 12 18  1  0
 13 15  1  0
 14 24  1  0
 15 25  1  0
 16 28  2  0
 17 20  1  0
 19 24  4  0
 20 23  1  0
 21 22  4  0
 22 23  4  0
 25 26  4  0
 27 29  2  0
M  END
$$$$

 Created by Python create_sdf_string function

 30 33  0  0  0  0  0  0  0  0999 V2000
    8.3036    9.8571   18.4133 C   0  0  0  0  0  0  0  0  0  0  0  0
    8.3694    7.6612   22.6703 C   0  0  0  0  0  0  0  0  0  0  0  0
    8.4143    6.6863   16.2273 C   0  0  0  0  0  0  0  0  0  0  0  0
   10.7581    6.5674   21.7636 C   0  0  0  0  0  0  0  0  0  0  0  0
    8.4452    8.7960   19.2958 O   0  0  0  0  0  0  0  0  0  0  0  0
    8.7122    6.7842   24.8569 C   0  0  0  0  0  0  0  0  0  0  0  0
   10.3400    6.1726   14.3081 C   0  0  0  0  0  0  0  0  0  0  0  0
    7.4297    7.5873   24.8962 C   0  0  0  0  0  0  0  0  0  0  0  0
    8.1566   10.0536   16.0516 O   0  0  0  0  0  0  0  0  0  0  0  0
   12.4989    6.2074   20.1776 C   0  0  0  0  0  0  0  0  0  0  0  0
    6.9192    9.1053   20.9073 O   0  0  0  0  0  0  0  0  0  0  0  0
   14.3979    6.0729   18.7784 C   0  0  0  0  0  0  0  0  0  0  0  0
    8.6811    9.5354   16.9998 C   0  0  0  0  0  0  0  0  0  0  0  0
    9.2512    4.2713   13.7653 O   0  0  0  0  0  0  0  0  0  0  0  0
    9.6495    8.6317   16.8332 N   0  0  0  0  0  0  0  0  0  0  0  0
    6.2934    8.6988   23.1988 O   0  0  0  0  0  0  0  0  0  0  0  0
    7.9806    8.6543   20.5437 C   0  0  0  0  0  0  0  0  0  0  0  0
   13.7270    5.7144   19.8610 O   0  0  0  0  0  0  0  0  0  0  0  0
    8.3351    5.5235   15.4478 C   0  0  0  0  0  0  0  0  0  0  0  0
    8.7700    7.8434   21.3915 C   0  0  0  0  0  0  0  0  0  0  0  0
   11.7856    6.8851   19.2401 C   0  0  0  0  0  0  0  0  0  0  0  0
   10.5281    7.4276   19.5649 C   0  0  0  0  0  0  0  0  0  0  0  0
   10.0256    7.2907   20.8484 C   0  0  0  0  0  0  0  0  0  0  0  0
    9.3113    5.3049   14.4911 C   0  0  0  0  0  0  0  0  0  0  0  0
    9.4607    7.5646   16.0139 C   0  0  0  0  0  0  0  0  0  0  0  0
   10.4192    7.3157   15.0955 C   0  0  0  0  0  0  0  0  0  0  0  0
   10.2489    6.4227   23.0218 N   0  0  0  0  0  0  0  0  0  0  0  0
    7.2472    8.0746   23.5050 C   0  0  0  0  0  0  0  0  0  0  0  0
    9.2051    6.9101   23.4604 C   0  0  0  0  0  0  0  0  0  0  0  0
   11.9646    6.0299   21.4251 C   0  0  0  0  0  0  0  0  0  0  0  0
  1  5  1  0
  1 13  1  0
  2 20  2  0
  2 28  1  0
  2 29  1  0
  3 19  4  0
  3 25  4  0
  4 23  4  0
  4 27  1  0
  4 30  4  0
  5 17  1  0
  6  8  1  0
  6 29  1  0
  7 24  4  0
  7 26  4  0
  8 28  1  0
  9 13  2  0
 10 18  1  0
 10 21  4  0
 10 30  4  0
 11 17  2  0
 12 18  1  0
 13 15  1  0
 14 24  1  0
 15 25  1  0
 16 28  2  0
 17 20  1  0
 19 24  4  0
 20 23  1  0
 21 22  4  0
 22 23  4  0
 25 26  4  0
 27 29  2  0
M  END
$$$$

 Created by Python create_sdf_string function

 30 33  0  0  0  0  0  0  0  0999 V2000
    8.3036    9.8571   18.4133 C   0  0  0  0  0  0  0  0  0  0  0  0
    8.3694    7.6612   22.6703 C   0  0  0  0  0  0  0  0  0  0  0  0
    8.4143    6.6863   16.2273 C   0  0  0  0  0  0  0  0  0  0  0  0
   10.7581    6.5674   21.7636 C   0  0  0  0  0  0  0  0  0  0  0  0
    8.4452    8.7960   19.2958 O   0  0  0  0  0  0  0  0  0  0  0  0
    8.7122    6.7842   24.8569 C   0  0  0  0  0  0  0  0  0  0  0  0
   10.3400    6.1726   14.3081 C   0  0  0  0  0  0  0  0  0  0  0  0
    7.4297    7.5873   24.8962 C   0  0  0  0  0  0  0  0  0  0  0  0
    8.1566   10.0536   16.0516 O   0  0  0  0  0  0  0  0  0  0  0  0
   12.4989    6.2074   20.1776 C   0  0  0  0  0  0  0  0  0  0  0  0
    6.9192    9.1053   20.9073 O   0  0  0  0  0  0  0  0  0  0  0  0
   14.3979    6.0729   18.7784 C   0  0  0  0  0  0  0  0  0  0  0  0
    8.6811    9.5354   16.9998 C   0  0  0  0  0  0  0  0  0  0  0  0
    9.2512    4.2713   13.7653 O   0  0  0  0  0  0  0  0  0  0  0  0
    9.6495    8.6317   16.8332 N   0  0  0  0  0  0  0  0  0  0  0  0
    6.2934    8.6988   23.1988 O   0  0  0  0  0  0  0  0  0  0  0  0
    7.9806    8.6543   20.5437 C   0  0  0  0  0  0  0  0  0  0  0  0
   13.7270    5.7144   19.8610 O   0  0  0  0  0  0  0  0  0  0  0  0
    8.3351    5.5235   15.4478 C   0  0  0  0  0  0  0  0  0  0  0  0
    8.7700    7.8434   21.3915 C   0  0  0  0  0  0  0  0  0  0  0  0
   11.7856    6.8851   19.2401 C   0  0  0  0  0  0  0  0  0  0  0  0
   10.5281    7.4276   19.5649 C   0  0  0  0  0  0  0  0  0  0  0  0
   10.0256    7.2907   20.8484 C   0  0  0  0  0  0  0  0  0  0  0  0
    9.3113    5.3049   14.4911 C   0  0  0  0  0  0  0  0  0  0  0  0
    9.4607    7.5646   16.0139 C   0  0  0  0  0  0  0  0  0  0  0  0
   10.4192    7.3157   15.0955 C   0  0  0  0  0  0  0  0  0  0  0  0
   10.2489    6.4227   23.0218 N   0  0  0  0  0  0  0  0  0  0  0  0
    7.2472    8.0746   23.5050 C   0  0  0  0  0  0  0  0  0  0  0  0
    9.2051    6.9101   23.4604 C   0  0  0  0  0  0  0  0  0  0  0  0
   11.9646    6.0299   21.4251 C   0  0  0  0  0  0  0  0  0  0  0  0
  1  5  1  0
  1 13  1  0
  2 20  2  0
  2 28  1  0
  2 29  1  0
  3 19  4  0
  3 25  4  0
  4 23  4  0
  4 27  1  0
  4 30  4  0
  5 17  1  0
  6  8  1  0
  6 29  1  0
  7 24  4  0
  7 26  4  0
  8 28  1  0
  9 13  2  0
 10 18  1  0
 10 21  4  0
 10 30  4  0
 11 17  2  0
 12 18  1  0
 13 15  1  0
 14 24  1  0
 15 25  1  0
 16 28  2  0
 17 20  1  0
 19 24  4  0
 20 23  1  0
 21 22  4  0
 22 23  4  0
 25 26  4  0
 27 29  2  0
M  END
$$$$

 Created by Python create_sdf_string function

 30 33  0  0  0  0  0  0  0  0999 V2000
    8.3036    9.8571   18.4133 C   0  0  0  0  0  0  0  0  0  0  0  0
    8.3694    7.6612   22.6703 C   0  0  0  0  0  0  0  0  0  0  0  0
    8.4143    6.6863   16.2273 C   0  0  0  0  0  0  0  0  0  0  0  0
   10.7581    6.5674   21.7636 C   0  0  0  0  0  0  0  0  0  0  0  0
    8.4452    8.7960   19.2958 O   0  0  0  0  0  0  0  0  0  0  0  0
    8.7122    6.7842   24.8569 C   0  0  0  0  0  0  0  0  0  0  0  0
   10.3400    6.1726   14.3081 C   0  0  0  0  0  0  0  0  0  0  0  0
    7.4297    7.5873   24.8962 C   0  0  0  0  0  0  0  0  0  0  0  0
    8.1566   10.0536   16.0516 O   0  0  0  0  0  0  0  0  0  0  0  0
   12.4989    6.2074   20.1776 C   0  0  0  0  0  0  0  0  0  0  0  0
    6.9192    9.1053   20.9073 O   0  0  0  0  0  0  0  0  0  0  0  0
   14.3979    6.0729   18.7784 C   0  0  0  0  0  0  0  0  0  0  0  0
    8.6811    9.5354   16.9998 C   0  0  0  0  0  0  0  0  0  0  0  0
    9.2512    4.2713   13.7653 O   0  0  0  0  0  0  0  0  0  0  0  0
    9.6495    8.6317   16.8332 N   0  0  0  0  0  0  0  0  0  0  0  0
    6.2934    8.6988   23.1988 O   0  0  0  0  0  0  0  0  0  0  0  0
    7.9806    8.6543   20.5437 C   0  0  0  0  0  0  0  0  0  0  0  0
   13.7270    5.7144   19.8610 O   0  0  0  0  0  0  0  0  0  0  0  0
    8.3351    5.5235   15.4478 C   0  0  0  0  0  0  0  0  0  0  0  0
    8.7700    7.8434   21.3915 C   0  0  0  0  0  0  0  0  0  0  0  0
   11.7856    6.8851   19.2401 C   0  0  0  0  0  0  0  0  0  0  0  0
   10.5281    7.4276   19.5649 C   0  0  0  0  0  0  0  0  0  0  0  0
   10.0256    7.2907   20.8484 C   0  0  0  0  0  0  0  0  0  0  0  0
    9.3113    5.3049   14.4911 C   0  0  0  0  0  0  0  0  0  0  0  0
    9.4607    7.5646   16.0139 C   0  0  0  0  0  0  0  0  0  0  0  0
   10.4192    7.3157   15.0955 C   0  0  0  0  0  0  0  0  0  0  0  0
   10.2489    6.4227   23.0218 N   0  0  0  0  0  0  0  0  0  0  0  0
    7.2472    8.0746   23.5050 C   0  0  0  0  0  0  0  0  0  0  0  0
    9.2051    6.9101   23.4604 C   0  0  0  0  0  0  0  0  0  0  0  0
   11.9646    6.0299   21.4251 C   0  0  0  0  0  0  0  0  0  0  0  0
  1  5  1  0
  1 13  1  0
  2 20  2  0
  2 28  1  0
  2 29  1  0
  3 19  4  0
  3 25  4  0
  4 23  4  0
  4 27  1  0
  4 30  4  0
  5 17  1  0
  6  8  1  0
  6 29  1  0
  7 24  4  0
  7 26  4  0
  8 28  1  0
  9 13  2  0
 10 18  1  0
 10 21  4  0
 10 30  4  0
 11 17  2  0
 12 18  1  0
 13 15  1  0
 14 24  1  0
 15 25  1  0
 16 28  2  0
 17 20  1  0
 19 24  4  0
 20 23  1  0
 21 22  4  0
 22 23  4  0
 25 26  4  0
 27 29  2  0
M  END
$$$$

 Created by Python create_sdf_string function

 30 33  0  0  0  0  0  0  0  0999 V2000
    8.3036    9.8571   18.4133 C   0  0  0  0  0  0  0  0  0  0  0  0
    8.3694    7.6612   22.6703 C   0  0  0  0  0  0  0  0  0  0  0  0
    8.4143    6.6863   16.2273 C   0  0  0  0  0  0  0  0  0  0  0  0
   10.7581    6.5674   21.7636 C   0  0  0  0  0  0  0  0  0  0  0  0
    8.4452    8.7960   19.2958 O   0  0  0  0  0  0  0  0  0  0  0  0
    8.7122    6.7842   24.8569 C   0  0  0  0  0  0  0  0  0  0  0  0
   10.3400    6.1726   14.3081 C   0  0  0  0  0  0  0  0  0  0  0  0
    7.4297    7.5873   24.8962 C   0  0  0  0  0  0  0  0  0  0  0  0
    8.1566   10.0536   16.0516 O   0  0  0  0  0  0  0  0  0  0  0  0
   12.4989    6.2074   20.1776 C   0  0  0  0  0  0  0  0  0  0  0  0
    6.9192    9.1053   20.9073 O   0  0  0  0  0  0  0  0  0  0  0  0
   14.3979    6.0729   18.7784 C   0  0  0  0  0  0  0  0  0  0  0  0
    8.6811    9.5354   16.9998 C   0  0  0  0  0  0  0  0  0  0  0  0
    9.2512    4.2713   13.7653 O   0  0  0  0  0  0  0  0  0  0  0  0
    9.6495    8.6317   16.8332 N   0  0  0  0  0  0  0  0  0  0  0  0
    6.2934    8.6988   23.1988 O   0  0  0  0  0  0  0  0  0  0  0  0
    7.9806    8.6543   20.5437 C   0  0  0  0  0  0  0  0  0  0  0  0
   13.7270    5.7144   19.8610 O   0  0  0  0  0  0  0  0  0  0  0  0
    8.3351    5.5235   15.4478 C   0  0  0  0  0  0  0  0  0  0  0  0
    8.7700    7.8434   21.3915 C   0  0  0  0  0  0  0  0  0  0  0  0
   11.7856    6.8851   19.2401 C   0  0  0  0  0  0  0  0  0  0  0  0
   10.5281    7.4276   19.5649 C   0  0  0  0  0  0  0  0  0  0  0  0
   10.0256    7.2907   20.8484 C   0  0  0  0  0  0  0  0  0  0  0  0
    9.3113    5.3049   14.4911 C   0  0  0  0  0  0  0  0  0  0  0  0
    9.4607    7.5646   16.0139 C   0  0  0  0  0  0  0  0  0  0  0  0
   10.4192    7.3157   15.0955 C   0  0  0  0  0  0  0  0  0  0  0  0
   10.2489    6.4227   23.0218 N   0  0  0  0  0  0  0  0  0  0  0  0
    7.2472    8.0746   23.5050 C   0  0  0  0  0  0  0  0  0  0  0  0
    9.2051    6.9101   23.4604 C   0  0  0  0  0  0  0  0  0  0  0  0
   11.9646    6.0299   21.4251 C   0  0  0  0  0  0  0  0  0  0  0  0
  1  5  1  0
  1 13  1  0
  2 20  2  0
  2 28  1  0
  2 29  1  0
  3 19  4  0
  3 25  4  0
  4 23  4  0
  4 27  1  0
  4 30  4  0
  5 17  1  0
  6  8  1  0
  6 29  1  0
  7 24  4  0
  7 26  4  0
  8 28  1  0
  9 13  2  0
 10 18  1  0
 10 21  4  0
 10 30  4  0
 11 17  2  0
 12 18  1  0
 13 15  1  0
 14 24  1  0
 15 25  1  0
 16 28  2  0
 17 20  1  0
 19 24  4  0
 20 23  1  0
 21 22  4  0
 22 23  4  0
 25 26  4  0
 27 29  2  0
M  END
$$$$

 Created by Python create_sdf_string function

 30 33  0  0  0  0  0  0  0  0999 V2000
    8.3036    9.8571   18.4133 C   0  0  0  0  0  0  0  0  0  0  0  0
    8.3694    7.6612   22.6703 C   0  0  0  0  0  0  0  0  0  0  0  0
    8.4143    6.6863   16.2273 C   0  0  0  0  0  0  0  0  0  0  0  0
   10.7581    6.5674   21.7636 C   0  0  0  0  0  0  0  0  0  0  0  0
    8.4452    8.7960   19.2958 O   0  0  0  0  0  0  0  0  0  0  0  0
    8.7122    6.7842   24.8569 C   0  0  0  0  0  0  0  0  0  0  0  0
   10.3400    6.1726   14.3081 C   0  0  0  0  0  0  0  0  0  0  0  0
    7.4297    7.5873   24.8962 C   0  0  0  0  0  0  0  0  0  0  0  0
    8.1566   10.0536   16.0516 O   0  0  0  0  0  0  0  0  0  0  0  0
   12.4989    6.2074   20.1776 C   0  0  0  0  0  0  0  0  0  0  0  0
    6.9192    9.1053   20.9073 O   0  0  0  0  0  0  0  0  0  0  0  0
   14.3979    6.0729   18.7784 C   0  0  0  0  0  0  0  0  0  0  0  0
    8.6811    9.5354   16.9998 C   0  0  0  0  0  0  0  0  0  0  0  0
    9.2512    4.2713   13.7653 O   0  0  0  0  0  0  0  0  0  0  0  0
    9.6495    8.6317   16.8332 N   0  0  0  0  0  0  0  0  0  0  0  0
    6.2934    8.6988   23.1988 O   0  0  0  0  0  0  0  0  0  0  0  0
    7.9806    8.6543   20.5437 C   0  0  0  0  0  0  0  0  0  0  0  0
   13.7270    5.7144   19.8610 O   0  0  0  0  0  0  0  0  0  0  0  0
    8.3351    5.5235   15.4478 C   0  0  0  0  0  0  0  0  0  0  0  0
    8.7700    7.8434   21.3915 C   0  0  0  0  0  0  0  0  0  0  0  0
   11.7856    6.8851   19.2401 C   0  0  0  0  0  0  0  0  0  0  0  0
   10.5281    7.4276   19.5649 C   0  0  0  0  0  0  0  0  0  0  0  0
   10.0256    7.2907   20.8484 C   0  0  0  0  0  0  0  0  0  0  0  0
    9.3113    5.3049   14.4911 C   0  0  0  0  0  0  0  0  0  0  0  0
    9.4607    7.5646   16.0139 C   0  0  0  0  0  0  0  0  0  0  0  0
   10.4192    7.3157   15.0955 C   0  0  0  0  0  0  0  0  0  0  0  0
   10.2489    6.4227   23.0218 N   0  0  0  0  0  0  0  0  0  0  0  0
    7.2472    8.0746   23.5050 C   0  0  0  0  0  0  0  0  0  0  0  0
    9.2051    6.9101   23.4604 C   0  0  0  0  0  0  0  0  0  0  0  0
   11.9646    6.0299   21.4251 C   0  0  0  0  0  0  0  0  0  0  0  0
  1  5  1  0
  1 13  1  0
  2 20  2  0
  2 28  1  0
  2 29  1  0
  3 19  4  0
  3 25  4  0
  4 23  4  0
  4 27  1  0
  4 30  4  0
  5 17  1  0
  6  8  1  0
  6 29  1  0
  7 24  4  0
  7 26  4  0
  8 28  1  0
  9 13  2  0
 10 18  1  0
 10 21  4  0
 10 30  4  0
 11 17  2  0
 12 18  1  0
 13 15  1  0
 14 24  1  0
 15 25  1  0
 16 28  2  0
 17 20  1  0
 19 24  4  0
 20 23  1  0
 21 22  4  0
 22 23  4  0
 25 26  4  0
 27 29  2  0
M  END
$$$$

 Created by Python create_sdf_string function

 30 33  0  0  0  0  0  0  0  0999 V2000
    8.3036    9.8571   18.4133 C   0  0  0  0  0  0  0  0  0  0  0  0
    8.3694    7.6612   22.6703 C   0  0  0  0  0  0  0  0  0  0  0  0
    8.4143    6.6863   16.2273 C   0  0  0  0  0  0  0  0  0  0  0  0
   10.7581    6.5674   21.7636 C   0  0  0  0  0  0  0  0  0  0  0  0
    8.4452    8.7960   19.2958 O   0  0  0  0  0  0  0  0  0  0  0  0
    8.7122    6.7842   24.8569 C   0  0  0  0  0  0  0  0  0  0  0  0
   10.3400    6.1726   14.3081 C   0  0  0  0  0  0  0  0  0  0  0  0
    7.4297    7.5873   24.8962 C   0  0  0  0  0  0  0  0  0  0  0  0
    8.1566   10.0536   16.0516 O   0  0  0  0  0  0  0  0  0  0  0  0
   12.4989    6.2074   20.1776 C   0  0  0  0  0  0  0  0  0  0  0  0
    6.9192    9.1053   20.9073 O   0  0  0  0  0  0  0  0  0  0  0  0
   14.3979    6.0729   18.7784 C   0  0  0  0  0  0  0  0  0  0  0  0
    8.6811    9.5354   16.9998 C   0  0  0  0  0  0  0  0  0  0  0  0
    9.2512    4.2713   13.7653 O   0  0  0  0  0  0  0  0  0  0  0  0
    9.6495    8.6317   16.8332 N   0  0  0  0  0  0  0  0  0  0  0  0
    6.2934    8.6988   23.1988 O   0  0  0  0  0  0  0  0  0  0  0  0
    7.9806    8.6543   20.5437 C   0  0  0  0  0  0  0  0  0  0  0  0
   13.7270    5.7144   19.8610 O   0  0  0  0  0  0  0  0  0  0  0  0
    8.3351    5.5235   15.4478 C   0  0  0  0  0  0  0  0  0  0  0  0
    8.7700    7.8434   21.3915 C   0  0  0  0  0  0  0  0  0  0  0  0
   11.7856    6.8851   19.2401 C   0  0  0  0  0  0  0  0  0  0  0  0
   10.5281    7.4276   19.5649 C   0  0  0  0  0  0  0  0  0  0  0  0
   10.0256    7.2907   20.8484 C   0  0  0  0  0  0  0  0  0  0  0  0
    9.3113    5.3049   14.4911 C   0  0  0  0  0  0  0  0  0  0  0  0
    9.4607    7.5646   16.0139 C   0  0  0  0  0  0  0  0  0  0  0  0
   10.4192    7.3157   15.0955 C   0  0  0  0  0  0  0  0  0  0  0  0
   10.2489    6.4227   23.0218 N   0  0  0  0  0  0  0  0  0  0  0  0
    7.2472    8.0746   23.5050 C   0  0  0  0  0  0  0  0  0  0  0  0
    9.2051    6.9101   23.4604 C   0  0  0  0  0  0  0  0  0  0  0  0
   11.9646    6.0299   21.4251 C   0  0  0  0  0  0  0  0  0  0  0  0
  1  5  1  0
  1 13  1  0
  2 20  2  0
  2 28  1  0
  2 29  1  0
  3 19  4  0
  3 25  4  0
  4 23  4  0
  4 27  1  0
  4 30  4  0
  5 17  1  0
  6  8  1  0
  6 29  1  0
  7 24  4  0
  7 26  4  0
  8 28  1  0
  9 13  2  0
 10 18  1  0
 10 21  4  0
 10 30  4  0
 11 17  2  0
 12 18  1  0
 13 15  1  0
 14 24  1  0
 15 25  1  0
 16 28  2  0
 17 20  1  0
 19 24  4  0
 20 23  1  0
 21 22  4  0
 22 23  4  0
 25 26  4  0
 27 29  2  0
M  END
$$$$

 Created by Python create_sdf_string function

 30 33  0  0  0  0  0  0  0  0999 V2000
    8.3036    9.8571   18.4133 C   0  0  0  0  0  0  0  0  0  0  0  0
    8.3694    7.6612   22.6703 C   0  0  0  0  0  0  0  0  0  0  0  0
    8.4143    6.6863   16.2273 C   0  0  0  0  0  0  0  0  0  0  0  0
   10.7581    6.5674   21.7636 C   0  0  0  0  0  0  0  0  0  0  0  0
    8.4452    8.7960   19.2958 O   0  0  0  0  0  0  0  0  0  0  0  0
    8.7122    6.7842   24.8569 C   0  0  0  0  0  0  0  0  0  0  0  0
   10.3400    6.1726   14.3081 C   0  0  0  0  0  0  0  0  0  0  0  0
    7.4297    7.5873   24.8962 C   0  0  0  0  0  0  0  0  0  0  0  0
    8.1566   10.0536   16.0516 O   0  0  0  0  0  0  0  0  0  0  0  0
   12.4989    6.2074   20.1776 C   0  0  0  0  0  0  0  0  0  0  0  0
    6.9192    9.1053   20.9073 O   0  0  0  0  0  0  0  0  0  0  0  0
   14.3979    6.0729   18.7784 C   0  0  0  0  0  0  0  0  0  0  0  0
    8.6811    9.5354   16.9998 C   0  0  0  0  0  0  0  0  0  0  0  0
    9.2512    4.2713   13.7653 O   0  0  0  0  0  0  0  0  0  0  0  0
    9.6495    8.6317   16.8332 N   0  0  0  0  0  0  0  0  0  0  0  0
    6.2934    8.6988   23.1988 O   0  0  0  0  0  0  0  0  0  0  0  0
    7.9806    8.6543   20.5437 C   0  0  0  0  0  0  0  0  0  0  0  0
   13.7270    5.7144   19.8610 O   0  0  0  0  0  0  0  0  0  0  0  0
    8.3351    5.5235   15.4478 C   0  0  0  0  0  0  0  0  0  0  0  0
    8.7700    7.8434   21.3915 C   0  0  0  0  0  0  0  0  0  0  0  0
   11.7856    6.8851   19.2401 C   0  0  0  0  0  0  0  0  0  0  0  0
   10.5281    7.4276   19.5649 C   0  0  0  0  0  0  0  0  0  0  0  0
   10.0256    7.2907   20.8484 C   0  0  0  0  0  0  0  0  0  0  0  0
    9.3113    5.3049   14.4911 C   0  0  0  0  0  0  0  0  0  0  0  0
    9.4607    7.5646   16.0139 C   0  0  0  0  0  0  0  0  0  0  0  0
   10.4192    7.3157   15.0955 C   0  0  0  0  0  0  0  0  0  0  0  0
   10.2489    6.4227   23.0218 N   0  0  0  0  0  0  0  0  0  0  0  0
    7.2472    8.0746   23.5050 C   0  0  0  0  0  0  0  0  0  0  0  0
    9.2051    6.9101   23.4604 C   0  0  0  0  0  0  0  0  0  0  0  0
   11.9646    6.0299   21.4251 C   0  0  0  0  0  0  0  0  0  0  0  0
  1  5  1  0
  1 13  1  0
  2 20  2  0
  2 28  1  0
  2 29  1  0
  3 19  4  0
  3 25  4  0
  4 23  4  0
  4 27  1  0
  4 30  4  0
  5 17  1  0
  6  8  1  0
  6 29  1  0
  7 24  4  0
  7 26  4  0
  8 28  1  0
  9 13  2  0
 10 18  1  0
 10 21  4  0
 10 30  4  0
 11 17  2  0
 12 18  1  0
 13 15  1  0
 14 24  1  0
 15 25  1  0
 16 28  2  0
 17 20  1  0
 19 24  4  0
 20 23  1  0
 21 22  4  0
 22 23  4  0
 25 26  4  0
 27 29  2  0
M  END
$$$$

 Created by Python create_sdf_string function

 30 33  0  0  0  0  0  0  0  0999 V2000
    8.3036    9.8571   18.4133 C   0  0  0  0  0  0  0  0  0  0  0  0
    8.3694    7.6612   22.6703 C   0  0  0  0  0  0  0  0  0  0  0  0
    8.4143    6.6863   16.2273 C   0  0  0  0  0  0  0  0  0  0  0  0
   10.7581    6.5674   21.7636 C   0  0  0  0  0  0  0  0  0  0  0  0
    8.4452    8.7960   19.2958 O   0  0  0  0  0  0  0  0  0  0  0  0
    8.7122    6.7842   24.8569 C   0  0  0  0  0  0  0  0  0  0  0  0
   10.3400    6.1726   14.3081 C   0  0  0  0  0  0  0  0  0  0  0  0
    7.4297    7.5873   24.8962 C   0  0  0  0  0  0  0  0  0  0  0  0
    8.1566   10.0536   16.0516 O   0  0  0  0  0  0  0  0  0  0  0  0
   12.4989    6.2074   20.1776 C   0  0  0  0  0  0  0  0  0  0  0  0
    6.9192    9.1053   20.9073 O   0  0  0  0  0  0  0  0  0  0  0  0
   14.3979    6.0729   18.7784 C   0  0  0  0  0  0  0  0  0  0  0  0
    8.6811    9.5354   16.9998 C   0  0  0  0  0  0  0  0  0  0  0  0
    9.2512    4.2713   13.7653 O   0  0  0  0  0  0  0  0  0  0  0  0
    9.6495    8.6317   16.8332 N   0  0  0  0  0  0  0  0  0  0  0  0
    6.2934    8.6988   23.1988 O   0  0  0  0  0  0  0  0  0  0  0  0
    7.9806    8.6543   20.5437 C   0  0  0  0  0  0  0  0  0  0  0  0
   13.7270    5.7144   19.8610 O   0  0  0  0  0  0  0  0  0  0  0  0
    8.3351    5.5235   15.4478 C   0  0  0  0  0  0  0  0  0  0  0  0
    8.7700    7.8434   21.3915 C   0  0  0  0  0  0  0  0  0  0  0  0
   11.7856    6.8851   19.2401 C   0  0  0  0  0  0  0  0  0  0  0  0
   10.5281    7.4276   19.5649 C   0  0  0  0  0  0  0  0  0  0  0  0
   10.0256    7.2907   20.8484 C   0  0  0  0  0  0  0  0  0  0  0  0
    9.3113    5.3049   14.4911 C   0  0  0  0  0  0  0  0  0  0  0  0
    9.4607    7.5646   16.0139 C   0  0  0  0  0  0  0  0  0  0  0  0
   10.4192    7.3157   15.0955 C   0  0  0  0  0  0  0  0  0  0  0  0
   10.2489    6.4227   23.0218 N   0  0  0  0  0  0  0  0  0  0  0  0
    7.2472    8.0746   23.5050 C   0  0  0  0  0  0  0  0  0  0  0  0
    9.2051    6.9101   23.4604 C   0  0  0  0  0  0  0  0  0  0  0  0
   11.9646    6.0299   21.4251 C   0  0  0  0  0  0  0  0  0  0  0  0
  1  5  1  0
  1 13  1  0
  2 20  2  0
  2 28  1  0
  2 29  1  0
  3 19  4  0
  3 25  4  0
  4 23  4  0
  4 27  1  0
  4 30  4  0
  5 17  1  0
  6  8  1  0
  6 29  1  0
  7 24  4  0
  7 26  4  0
  8 28  1  0
  9 13  2  0
 10 18  1  0
 10 21  4  0
 10 30  4  0
 11 17  2  0
 12 18  1  0
 13 15  1  0
 14 24  1  0
 15 25  1  0
 16 28  2  0
 17 20  1  0
 19 24  4  0
 20 23  1  0
 21 22  4  0
 22 23  4  0
 25 26  4  0
 27 29  2  0
M  END
$$$$

 Created by Python create_sdf_string function

 30 33  0  0  0  0  0  0  0  0999 V2000
    8.3036    9.8571   18.4133 C   0  0  0  0  0  0  0  0  0  0  0  0
    8.3694    7.6612   22.6703 C   0  0  0  0  0  0  0  0  0  0  0  0
    8.4143    6.6863   16.2273 C   0  0  0  0  0  0  0  0  0  0  0  0
   10.7581    6.5674   21.7636 C   0  0  0  0  0  0  0  0  0  0  0  0
    8.4452    8.7960   19.2958 O   0  0  0  0  0  0  0  0  0  0  0  0
    8.7122    6.7842   24.8569 C   0  0  0  0  0  0  0  0  0  0  0  0
   10.3400    6.1726   14.3081 C   0  0  0  0  0  0  0  0  0  0  0  0
    7.4297    7.5873   24.8962 C   0  0  0  0  0  0  0  0  0  0  0  0
    8.1566   10.0536   16.0516 O   0  0  0  0  0  0  0  0  0  0  0  0
   12.4989    6.2074   20.1776 C   0  0  0  0  0  0  0  0  0  0  0  0
    6.9192    9.1053   20.9073 O   0  0  0  0  0  0  0  0  0  0  0  0
   14.3979    6.0729   18.7784 C   0  0  0  0  0  0  0  0  0  0  0  0
    8.6811    9.5354   16.9998 C   0  0  0  0  0  0  0  0  0  0  0  0
    9.2512    4.2713   13.7653 O   0  0  0  0  0  0  0  0  0  0  0  0
    9.6495    8.6317   16.8332 N   0  0  0  0  0  0  0  0  0  0  0  0
    6.2934    8.6988   23.1988 O   0  0  0  0  0  0  0  0  0  0  0  0
    7.9806    8.6543   20.5437 C   0  0  0  0  0  0  0  0  0  0  0  0
   13.7270    5.7144   19.8610 O   0  0  0  0  0  0  0  0  0  0  0  0
    8.3351    5.5235   15.4478 C   0  0  0  0  0  0  0  0  0  0  0  0
    8.7700    7.8434   21.3915 C   0  0  0  0  0  0  0  0  0  0  0  0
   11.7856    6.8851   19.2401 C   0  0  0  0  0  0  0  0  0  0  0  0
   10.5281    7.4276   19.5649 C   0  0  0  0  0  0  0  0  0  0  0  0
   10.0256    7.2907   20.8484 C   0  0  0  0  0  0  0  0  0  0  0  0
    9.3113    5.3049   14.4911 C   0  0  0  0  0  0  0  0  0  0  0  0
    9.4607    7.5646   16.0139 C   0  0  0  0  0  0  0  0  0  0  0  0
   10.4192    7.3157   15.0955 C   0  0  0  0  0  0  0  0  0  0  0  0
   10.2489    6.4227   23.0218 N   0  0  0  0  0  0  0  0  0  0  0  0
    7.2472    8.0746   23.5050 C   0  0  0  0  0  0  0  0  0  0  0  0
    9.2051    6.9101   23.4604 C   0  0  0  0  0  0  0  0  0  0  0  0
   11.9646    6.0299   21.4251 C   0  0  0  0  0  0  0  0  0  0  0  0
  1  5  1  0
  1 13  1  0
  2 20  2  0
  2 28  1  0
  2 29  1  0
  3 19  4  0
  3 25  4  0
  4 23  4  0
  4 27  1  0
  4 30  4  0
  5 17  1  0
  6  8  1  0
  6 29  1  0
  7 24  4  0
  7 26  4  0
  8 28  1  0
  9 13  2  0
 10 18  1  0
 10 21  4  0
 10 30  4  0
 11 17  2  0
 12 18  1  0
 13 15  1  0
 14 24  1  0
 15 25  1  0
 16 28  2  0
 17 20  1  0
 19 24  4  0
 20 23  1  0
 21 22  4  0
 22 23  4  0
 25 26  4  0
 27 29  2  0
M  END
$$$$

 Created by Python create_sdf_string function

 30 33  0  0  0  0  0  0  0  0999 V2000
    8.3036    9.8571   18.4133 C   0  0  0  0  0  0  0  0  0  0  0  0
    8.3694    7.6612   22.6703 C   0  0  0  0  0  0  0  0  0  0  0  0
    8.4143    6.6863   16.2273 C   0  0  0  0  0  0  0  0  0  0  0  0
   10.7581    6.5674   21.7636 C   0  0  0  0  0  0  0  0  0  0  0  0
    8.4452    8.7960   19.2958 O   0  0  0  0  0  0  0  0  0  0  0  0
    8.7122    6.7842   24.8569 C   0  0  0  0  0  0  0  0  0  0  0  0
   10.3400    6.1726   14.3081 C   0  0  0  0  0  0  0  0  0  0  0  0
    7.4297    7.5873   24.8962 C   0  0  0  0  0  0  0  0  0  0  0  0
    8.1566   10.0536   16.0516 O   0  0  0  0  0  0  0  0  0  0  0  0
   12.4989    6.2074   20.1776 C   0  0  0  0  0  0  0  0  0  0  0  0
    6.9192    9.1053   20.9073 O   0  0  0  0  0  0  0  0  0  0  0  0
   14.3979    6.0729   18.7784 C   0  0  0  0  0  0  0  0  0  0  0  0
    8.6811    9.5354   16.9998 C   0  0  0  0  0  0  0  0  0  0  0  0
    9.2512    4.2713   13.7653 O   0  0  0  0  0  0  0  0  0  0  0  0
    9.6495    8.6317   16.8332 N   0  0  0  0  0  0  0  0  0  0  0  0
    6.2934    8.6988   23.1988 O   0  0  0  0  0  0  0  0  0  0  0  0
    7.9806    8.6543   20.5437 C   0  0  0  0  0  0  0  0  0  0  0  0
   13.7270    5.7144   19.8610 O   0  0  0  0  0  0  0  0  0  0  0  0
    8.3351    5.5235   15.4478 C   0  0  0  0  0  0  0  0  0  0  0  0
    8.7700    7.8434   21.3915 C   0  0  0  0  0  0  0  0  0  0  0  0
   11.7856    6.8851   19.2401 C   0  0  0  0  0  0  0  0  0  0  0  0
   10.5281    7.4276   19.5649 C   0  0  0  0  0  0  0  0  0  0  0  0
   10.0256    7.2907   20.8484 C   0  0  0  0  0  0  0  0  0  0  0  0
    9.3113    5.3049   14.4911 C   0  0  0  0  0  0  0  0  0  0  0  0
    9.4607    7.5646   16.0139 C   0  0  0  0  0  0  0  0  0  0  0  0
   10.4192    7.3157   15.0955 C   0  0  0  0  0  0  0  0  0  0  0  0
   10.2489    6.4227   23.0218 N   0  0  0  0  0  0  0  0  0  0  0  0
    7.2472    8.0746   23.5050 C   0  0  0  0  0  0  0  0  0  0  0  0
    9.2051    6.9101   23.4604 C   0  0  0  0  0  0  0  0  0  0  0  0
   11.9646    6.0299   21.4251 C   0  0  0  0  0  0  0  0  0  0  0  0
  1  5  1  0
  1 13  1  0
  2 20  2  0
  2 28  1  0
  2 29  1  0
  3 19  4  0
  3 25  4  0
  4 23  4  0
  4 27  1  0
  4 30  4  0
  5 17  1  0
  6  8  1  0
  6 29  1  0
  7 24  4  0
  7 26  4  0
  8 28  1  0
  9 13  2  0
 10 18  1  0
 10 21  4  0
 10 30  4  0
 11 17  2  0
 12 18  1  0
 13 15  1  0
 14 24  1  0
 15 25  1  0
 16 28  2  0
 17 20  1  0
 19 24  4  0
 20 23  1  0
 21 22  4  0
 22 23  4  0
 25 26  4  0
 27 29  2  0
M  END
$$$$

 Created by Python create_sdf_string function

 30 33  0  0  0  0  0  0  0  0999 V2000
    8.3036    9.8571   18.4133 C   0  0  0  0  0  0  0  0  0  0  0  0
    8.3694    7.6612   22.6703 C   0  0  0  0  0  0  0  0  0  0  0  0
    8.4143    6.6863   16.2273 C   0  0  0  0  0  0  0  0  0  0  0  0
   10.7581    6.5674   21.7636 C   0  0  0  0  0  0  0  0  0  0  0  0
    8.4452    8.7960   19.2958 O   0  0  0  0  0  0  0  0  0  0  0  0
    8.7122    6.7842   24.8569 C   0  0  0  0  0  0  0  0  0  0  0  0
   10.3400    6.1726   14.3081 C   0  0  0  0  0  0  0  0  0  0  0  0
    7.4297    7.5873   24.8962 C   0  0  0  0  0  0  0  0  0  0  0  0
    8.1566   10.0536   16.0516 O   0  0  0  0  0  0  0  0  0  0  0  0
   12.4989    6.2074   20.1776 C   0  0  0  0  0  0  0  0  0  0  0  0
    6.9192    9.1053   20.9073 O   0  0  0  0  0  0  0  0  0  0  0  0
   14.3979    6.0729   18.7784 C   0  0  0  0  0  0  0  0  0  0  0  0
    8.6811    9.5354   16.9998 C   0  0  0  0  0  0  0  0  0  0  0  0
    9.2512    4.2713   13.7653 O   0  0  0  0  0  0  0  0  0  0  0  0
    9.6495    8.6317   16.8332 N   0  0  0  0  0  0  0  0  0  0  0  0
    6.2934    8.6988   23.1988 O   0  0  0  0  0  0  0  0  0  0  0  0
    7.9806    8.6543   20.5437 C   0  0  0  0  0  0  0  0  0  0  0  0
   13.7270    5.7144   19.8610 O   0  0  0  0  0  0  0  0  0  0  0  0
    8.3351    5.5235   15.4478 C   0  0  0  0  0  0  0  0  0  0  0  0
    8.7700    7.8434   21.3915 C   0  0  0  0  0  0  0  0  0  0  0  0
   11.7856    6.8851   19.2401 C   0  0  0  0  0  0  0  0  0  0  0  0
   10.5281    7.4276   19.5649 C   0  0  0  0  0  0  0  0  0  0  0  0
   10.0256    7.2907   20.8484 C   0  0  0  0  0  0  0  0  0  0  0  0
    9.3113    5.3049   14.4911 C   0  0  0  0  0  0  0  0  0  0  0  0
    9.4607    7.5646   16.0139 C   0  0  0  0  0  0  0  0  0  0  0  0
   10.4192    7.3157   15.0955 C   0  0  0  0  0  0  0  0  0  0  0  0
   10.2489    6.4227   23.0218 N   0  0  0  0  0  0  0  0  0  0  0  0
    7.2472    8.0746   23.5050 C   0  0  0  0  0  0  0  0  0  0  0  0
    9.2051    6.9101   23.4604 C   0  0  0  0  0  0  0  0  0  0  0  0
   11.9646    6.0299   21.4251 C   0  0  0  0  0  0  0  0  0  0  0  0
  1  5  1  0
  1 13  1  0
  2 20  2  0
  2 28  1  0
  2 29  1  0
  3 19  4  0
  3 25  4  0
  4 23  4  0
  4 27  1  0
  4 30  4  0
  5 17  1  0
  6  8  1  0
  6 29  1  0
  7 24  4  0
  7 26  4  0
  8 28  1  0
  9 13  2  0
 10 18  1  0
 10 21  4  0
 10 30  4  0
 11 17  2  0
 12 18  1  0
 13 15  1  0
 14 24  1  0
 15 25  1  0
 16 28  2  0
 17 20  1  0
 19 24  4  0
 20 23  1  0
 21 22  4  0
 22 23  4  0
 25 26  4  0
 27 29  2  0
M  END
$$$$

 Created by Python create_sdf_string function

 30 33  0  0  0  0  0  0  0  0999 V2000
    8.3036    9.8571   18.4133 C   0  0  0  0  0  0  0  0  0  0  0  0
    8.3694    7.6612   22.6703 C   0  0  0  0  0  0  0  0  0  0  0  0
    8.4143    6.6863   16.2273 C   0  0  0  0  0  0  0  0  0  0  0  0
   10.7581    6.5674   21.7636 C   0  0  0  0  0  0  0  0  0  0  0  0
    8.4452    8.7960   19.2958 O   0  0  0  0  0  0  0  0  0  0  0  0
    8.7122    6.7842   24.8569 C   0  0  0  0  0  0  0  0  0  0  0  0
   10.3400    6.1726   14.3081 C   0  0  0  0  0  0  0  0  0  0  0  0
    7.4297    7.5873   24.8962 C   0  0  0  0  0  0  0  0  0  0  0  0
    8.1566   10.0536   16.0516 O   0  0  0  0  0  0  0  0  0  0  0  0
   12.4989    6.2074   20.1776 C   0  0  0  0  0  0  0  0  0  0  0  0
    6.9192    9.1053   20.9073 O   0  0  0  0  0  0  0  0  0  0  0  0
   14.3979    6.0729   18.7784 C   0  0  0  0  0  0  0  0  0  0  0  0
    8.6811    9.5354   16.9998 C   0  0  0  0  0  0  0  0  0  0  0  0
    9.2512    4.2713   13.7653 O   0  0  0  0  0  0  0  0  0  0  0  0
    9.6495    8.6317   16.8332 N   0  0  0  0  0  0  0  0  0  0  0  0
    6.2934    8.6988   23.1988 O   0  0  0  0  0  0  0  0  0  0  0  0
    7.9806    8.6543   20.5437 C   0  0  0  0  0  0  0  0  0  0  0  0
   13.7270    5.7144   19.8610 O   0  0  0  0  0  0  0  0  0  0  0  0
    8.3351    5.5235   15.4478 C   0  0  0  0  0  0  0  0  0  0  0  0
    8.7700    7.8434   21.3915 C   0  0  0  0  0  0  0  0  0  0  0  0
   11.7856    6.8851   19.2401 C   0  0  0  0  0  0  0  0  0  0  0  0
   10.5281    7.4276   19.5649 C   0  0  0  0  0  0  0  0  0  0  0  0
   10.0256    7.2907   20.8484 C   0  0  0  0  0  0  0  0  0  0  0  0
    9.3113    5.3049   14.4911 C   0  0  0  0  0  0  0  0  0  0  0  0
    9.4607    7.5646   16.0139 C   0  0  0  0  0  0  0  0  0  0  0  0
   10.4192    7.3157   15.0955 C   0  0  0  0  0  0  0  0  0  0  0  0
   10.2489    6.4227   23.0218 N   0  0  0  0  0  0  0  0  0  0  0  0
    7.2472    8.0746   23.5050 C   0  0  0  0  0  0  0  0  0  0  0  0
    9.2051    6.9101   23.4604 C   0  0  0  0  0  0  0  0  0  0  0  0
   11.9646    6.0299   21.4251 C   0  0  0  0  0  0  0  0  0  0  0  0
  1  5  1  0
  1 13  1  0
  2 20  2  0
  2 28  1  0
  2 29  1  0
  3 19  4  0
  3 25  4  0
  4 23  4  0
  4 27  1  0
  4 30  4  0
  5 17  1  0
  6  8  1  0
  6 29  1  0
  7 24  4  0
  7 26  4  0
  8 28  1  0
  9 13  2  0
 10 18  1  0
 10 21  4  0
 10 30  4  0
 11 17  2  0
 12 18  1  0
 13 15  1  0
 14 24  1  0
 15 25  1  0
 16 28  2  0
 17 20  1  0
 19 24  4  0
 20 23  1  0
 21 22  4  0
 22 23  4  0
 25 26  4  0
 27 29  2  0
M  END
$$$$

 Created by Python create_sdf_string function

 30 33  0  0  0  0  0  0  0  0999 V2000
    8.3036    9.8571   18.4133 C   0  0  0  0  0  0  0  0  0  0  0  0
    8.3694    7.6612   22.6703 C   0  0  0  0  0  0  0  0  0  0  0  0
    8.4143    6.6863   16.2273 C   0  0  0  0  0  0  0  0  0  0  0  0
   10.7581    6.5674   21.7636 C   0  0  0  0  0  0  0  0  0  0  0  0
    8.4452    8.7960   19.2958 O   0  0  0  0  0  0  0  0  0  0  0  0
    8.7122    6.7842   24.8569 C   0  0  0  0  0  0  0  0  0  0  0  0
   10.3400    6.1726   14.3081 C   0  0  0  0  0  0  0  0  0  0  0  0
    7.4297    7.5873   24.8962 C   0  0  0  0  0  0  0  0  0  0  0  0
    8.1566   10.0536   16.0516 O   0  0  0  0  0  0  0  0  0  0  0  0
   12.4989    6.2074   20.1776 C   0  0  0  0  0  0  0  0  0  0  0  0
    6.9192    9.1053   20.9073 O   0  0  0  0  0  0  0  0  0  0  0  0
   14.3979    6.0729   18.7784 C   0  0  0  0  0  0  0  0  0  0  0  0
    8.6811    9.5354   16.9998 C   0  0  0  0  0  0  0  0  0  0  0  0
    9.2512    4.2713   13.7653 O   0  0  0  0  0  0  0  0  0  0  0  0
    9.6495    8.6317   16.8332 N   0  0  0  0  0  0  0  0  0  0  0  0
    6.2934    8.6988   23.1988 O   0  0  0  0  0  0  0  0  0  0  0  0
    7.9806    8.6543   20.5437 C   0  0  0  0  0  0  0  0  0  0  0  0
   13.7270    5.7144   19.8610 O   0  0  0  0  0  0  0  0  0  0  0  0
    8.3351    5.5235   15.4478 C   0  0  0  0  0  0  0  0  0  0  0  0
    8.7700    7.8434   21.3915 C   0  0  0  0  0  0  0  0  0  0  0  0
   11.7856    6.8851   19.2401 C   0  0  0  0  0  0  0  0  0  0  0  0
   10.5281    7.4276   19.5649 C   0  0  0  0  0  0  0  0  0  0  0  0
   10.0256    7.2907   20.8484 C   0  0  0  0  0  0  0  0  0  0  0  0
    9.3113    5.3049   14.4911 C   0  0  0  0  0  0  0  0  0  0  0  0
    9.4607    7.5646   16.0139 C   0  0  0  0  0  0  0  0  0  0  0  0
   10.4192    7.3157   15.0955 C   0  0  0  0  0  0  0  0  0  0  0  0
   10.2489    6.4227   23.0218 N   0  0  0  0  0  0  0  0  0  0  0  0
    7.2472    8.0746   23.5050 C   0  0  0  0  0  0  0  0  0  0  0  0
    9.2051    6.9101   23.4604 C   0  0  0  0  0  0  0  0  0  0  0  0
   11.9646    6.0299   21.4251 C   0  0  0  0  0  0  0  0  0  0  0  0
  1  5  1  0
  1 13  1  0
  2 20  2  0
  2 28  1  0
  2 29  1  0
  3 19  4  0
  3 25  4  0
  4 23  4  0
  4 27  1  0
  4 30  4  0
  5 17  1  0
  6  8  1  0
  6 29  1  0
  7 24  4  0
  7 26  4  0
  8 28  1  0
  9 13  2  0
 10 18  1  0
 10 21  4  0
 10 30  4  0
 11 17  2  0
 12 18  1  0
 13 15  1  0
 14 24  1  0
 15 25  1  0
 16 28  2  0
 17 20  1  0
 19 24  4  0
 20 23  1  0
 21 22  4  0
 22 23  4  0
 25 26  4  0
 27 29  2  0
M  END
$$$$

 Created by Python create_sdf_string function

 30 33  0  0  0  0  0  0  0  0999 V2000
    8.3036    9.8571   18.4133 C   0  0  0  0  0  0  0  0  0  0  0  0
    8.3694    7.6612   22.6703 C   0  0  0  0  0  0  0  0  0  0  0  0
    8.4143    6.6863   16.2273 C   0  0  0  0  0  0  0  0  0  0  0  0
   10.7581    6.5674   21.7636 C   0  0  0  0  0  0  0  0  0  0  0  0
    8.4452    8.7960   19.2958 O   0  0  0  0  0  0  0  0  0  0  0  0
    8.7122    6.7842   24.8569 C   0  0  0  0  0  0  0  0  0  0  0  0
   10.3400    6.1726   14.3081 C   0  0  0  0  0  0  0  0  0  0  0  0
    7.4297    7.5873   24.8962 C   0  0  0  0  0  0  0  0  0  0  0  0
    8.1566   10.0536   16.0516 O   0  0  0  0  0  0  0  0  0  0  0  0
   12.4989    6.2074   20.1776 C   0  0  0  0  0  0  0  0  0  0  0  0
    6.9192    9.1053   20.9073 O   0  0  0  0  0  0  0  0  0  0  0  0
   14.3979    6.0729   18.7784 C   0  0  0  0  0  0  0  0  0  0  0  0
    8.6811    9.5354   16.9998 C   0  0  0  0  0  0  0  0  0  0  0  0
    9.2512    4.2713   13.7653 O   0  0  0  0  0  0  0  0  0  0  0  0
    9.6495    8.6317   16.8332 N   0  0  0  0  0  0  0  0  0  0  0  0
    6.2934    8.6988   23.1988 O   0  0  0  0  0  0  0  0  0  0  0  0
    7.9806    8.6543   20.5437 C   0  0  0  0  0  0  0  0  0  0  0  0
   13.7270    5.7144   19.8610 O   0  0  0  0  0  0  0  0  0  0  0  0
    8.3351    5.5235   15.4478 C   0  0  0  0  0  0  0  0  0  0  0  0
    8.7700    7.8434   21.3915 C   0  0  0  0  0  0  0  0  0  0  0  0
   11.7856    6.8851   19.2401 C   0  0  0  0  0  0  0  0  0  0  0  0
   10.5281    7.4276   19.5649 C   0  0  0  0  0  0  0  0  0  0  0  0
   10.0256    7.2907   20.8484 C   0  0  0  0  0  0  0  0  0  0  0  0
    9.3113    5.3049   14.4911 C   0  0  0  0  0  0  0  0  0  0  0  0
    9.4607    7.5646   16.0139 C   0  0  0  0  0  0  0  0  0  0  0  0
   10.4192    7.3157   15.0955 C   0  0  0  0  0  0  0  0  0  0  0  0
   10.2489    6.4227   23.0218 N   0  0  0  0  0  0  0  0  0  0  0  0
    7.2472    8.0746   23.5050 C   0  0  0  0  0  0  0  0  0  0  0  0
    9.2051    6.9101   23.4604 C   0  0  0  0  0  0  0  0  0  0  0  0
   11.9646    6.0299   21.4251 C   0  0  0  0  0  0  0  0  0  0  0  0
  1  5  1  0
  1 13  1  0
  2 20  2  0
  2 28  1  0
  2 29  1  0
  3 19  4  0
  3 25  4  0
  4 23  4  0
  4 27  1  0
  4 30  4  0
  5 17  1  0
  6  8  1  0
  6 29  1  0
  7 24  4  0
  7 26  4  0
  8 28  1  0
  9 13  2  0
 10 18  1  0
 10 21  4  0
 10 30  4  0
 11 17  2  0
 12 18  1  0
 13 15  1  0
 14 24  1  0
 15 25  1  0
 16 28  2  0
 17 20  1  0
 19 24  4  0
 20 23  1  0
 21 22  4  0
 22 23  4  0
 25 26  4  0
 27 29  2  0
M  END
$$$$

 Created by Python create_sdf_string function

 30 33  0  0  0  0  0  0  0  0999 V2000
    8.3036    9.8571   18.4133 C   0  0  0  0  0  0  0  0  0  0  0  0
    8.3694    7.6612   22.6703 C   0  0  0  0  0  0  0  0  0  0  0  0
    8.4143    6.6863   16.2273 C   0  0  0  0  0  0  0  0  0  0  0  0
   10.7581    6.5674   21.7636 C   0  0  0  0  0  0  0  0  0  0  0  0
    8.4452    8.7960   19.2958 O   0  0  0  0  0  0  0  0  0  0  0  0
    8.7122    6.7842   24.8569 C   0  0  0  0  0  0  0  0  0  0  0  0
   10.3400    6.1726   14.3081 C   0  0  0  0  0  0  0  0  0  0  0  0
    7.4297    7.5873   24.8962 C   0  0  0  0  0  0  0  0  0  0  0  0
    8.1566   10.0536   16.0516 O   0  0  0  0  0  0  0  0  0  0  0  0
   12.4989    6.2074   20.1776 C   0  0  0  0  0  0  0  0  0  0  0  0
    6.9192    9.1053   20.9073 O   0  0  0  0  0  0  0  0  0  0  0  0
   14.3979    6.0729   18.7784 C   0  0  0  0  0  0  0  0  0  0  0  0
    8.6811    9.5354   16.9998 C   0  0  0  0  0  0  0  0  0  0  0  0
    9.2512    4.2713   13.7653 O   0  0  0  0  0  0  0  0  0  0  0  0
    9.6495    8.6317   16.8332 N   0  0  0  0  0  0  0  0  0  0  0  0
    6.2934    8.6988   23.1988 O   0  0  0  0  0  0  0  0  0  0  0  0
    7.9806    8.6543   20.5437 C   0  0  0  0  0  0  0  0  0  0  0  0
   13.7270    5.7144   19.8610 O   0  0  0  0  0  0  0  0  0  0  0  0
    8.3351    5.5235   15.4478 C   0  0  0  0  0  0  0  0  0  0  0  0
    8.7700    7.8434   21.3915 C   0  0  0  0  0  0  0  0  0  0  0  0
   11.7856    6.8851   19.2401 C   0  0  0  0  0  0  0  0  0  0  0  0
   10.5281    7.4276   19.5649 C   0  0  0  0  0  0  0  0  0  0  0  0
   10.0256    7.2907   20.8484 C   0  0  0  0  0  0  0  0  0  0  0  0
    9.3113    5.3049   14.4911 C   0  0  0  0  0  0  0  0  0  0  0  0
    9.4607    7.5646   16.0139 C   0  0  0  0  0  0  0  0  0  0  0  0
   10.4192    7.3157   15.0955 C   0  0  0  0  0  0  0  0  0  0  0  0
   10.2489    6.4227   23.0218 N   0  0  0  0  0  0  0  0  0  0  0  0
    7.2472    8.0746   23.5050 C   0  0  0  0  0  0  0  0  0  0  0  0
    9.2051    6.9101   23.4604 C   0  0  0  0  0  0  0  0  0  0  0  0
   11.9646    6.0299   21.4251 C   0  0  0  0  0  0  0  0  0  0  0  0
  1  5  1  0
  1 13  1  0
  2 20  2  0
  2 28  1  0
  2 29  1  0
  3 19  4  0
  3 25  4  0
  4 23  4  0
  4 27  1  0
  4 30  4  0
  5 17  1  0
  6  8  1  0
  6 29  1  0
  7 24  4  0
  7 26  4  0
  8 28  1  0
  9 13  2  0
 10 18  1  0
 10 21  4  0
 10 30  4  0
 11 17  2  0
 12 18  1  0
 13 15  1  0
 14 24  1  0
 15 25  1  0
 16 28  2  0
 17 20  1  0
 19 24  4  0
 20 23  1  0
 21 22  4  0
 22 23  4  0
 25 26  4  0
 27 29  2  0
M  END
$$$$

 Created by Python create_sdf_string function

 30 33  0  0  0  0  0  0  0  0999 V2000
    8.3036    9.8571   18.4133 C   0  0  0  0  0  0  0  0  0  0  0  0
    8.3694    7.6612   22.6703 C   0  0  0  0  0  0  0  0  0  0  0  0
    8.4143    6.6863   16.2273 C   0  0  0  0  0  0  0  0  0  0  0  0
   10.7581    6.5674   21.7636 C   0  0  0  0  0  0  0  0  0  0  0  0
    8.4452    8.7960   19.2958 O   0  0  0  0  0  0  0  0  0  0  0  0
    8.7122    6.7842   24.8569 C   0  0  0  0  0  0  0  0  0  0  0  0
   10.3400    6.1726   14.3081 C   0  0  0  0  0  0  0  0  0  0  0  0
    7.4297    7.5873   24.8962 C   0  0  0  0  0  0  0  0  0  0  0  0
    8.1566   10.0536   16.0516 O   0  0  0  0  0  0  0  0  0  0  0  0
   12.4989    6.2074   20.1776 C   0  0  0  0  0  0  0  0  0  0  0  0
    6.9192    9.1053   20.9073 O   0  0  0  0  0  0  0  0  0  0  0  0
   14.3979    6.0729   18.7784 C   0  0  0  0  0  0  0  0  0  0  0  0
    8.6811    9.5354   16.9998 C   0  0  0  0  0  0  0  0  0  0  0  0
    9.2512    4.2713   13.7653 O   0  0  0  0  0  0  0  0  0  0  0  0
    9.6495    8.6317   16.8332 N   0  0  0  0  0  0  0  0  0  0  0  0
    6.2934    8.6988   23.1988 O   0  0  0  0  0  0  0  0  0  0  0  0
    7.9806    8.6543   20.5437 C   0  0  0  0  0  0  0  0  0  0  0  0
   13.7270    5.7144   19.8610 O   0  0  0  0  0  0  0  0  0  0  0  0
    8.3351    5.5235   15.4478 C   0  0  0  0  0  0  0  0  0  0  0  0
    8.7700    7.8434   21.3915 C   0  0  0  0  0  0  0  0  0  0  0  0
   11.7856    6.8851   19.2401 C   0  0  0  0  0  0  0  0  0  0  0  0
   10.5281    7.4276   19.5649 C   0  0  0  0  0  0  0  0  0  0  0  0
   10.0256    7.2907   20.8484 C   0  0  0  0  0  0  0  0  0  0  0  0
    9.3113    5.3049   14.4911 C   0  0  0  0  0  0  0  0  0  0  0  0
    9.4607    7.5646   16.0139 C   0  0  0  0  0  0  0  0  0  0  0  0
   10.4192    7.3157   15.0955 C   0  0  0  0  0  0  0  0  0  0  0  0
   10.2489    6.4227   23.0218 N   0  0  0  0  0  0  0  0  0  0  0  0
    7.2472    8.0746   23.5050 C   0  0  0  0  0  0  0  0  0  0  0  0
    9.2051    6.9101   23.4604 C   0  0  0  0  0  0  0  0  0  0  0  0
   11.9646    6.0299   21.4251 C   0  0  0  0  0  0  0  0  0  0  0  0
  1  5  1  0
  1 13  1  0
  2 20  2  0
  2 28  1  0
  2 29  1  0
  3 19  4  0
  3 25  4  0
  4 23  4  0
  4 27  1  0
  4 30  4  0
  5 17  1  0
  6  8  1  0
  6 29  1  0
  7 24  4  0
  7 26  4  0
  8 28  1  0
  9 13  2  0
 10 18  1  0
 10 21  4  0
 10 30  4  0
 11 17  2  0
 12 18  1  0
 13 15  1  0
 14 24  1  0
 15 25  1  0
 16 28  2  0
 17 20  1  0
 19 24  4  0
 20 23  1  0
 21 22  4  0
 22 23  4  0
 25 26  4  0
 27 29  2  0
M  END
$$$$

 Created by Python create_sdf_string function

 30 33  0  0  0  0  0  0  0  0999 V2000
    8.3036    9.8571   18.4133 C   0  0  0  0  0  0  0  0  0  0  0  0
    8.3694    7.6612   22.6703 C   0  0  0  0  0  0  0  0  0  0  0  0
    8.4143    6.6863   16.2273 C   0  0  0  0  0  0  0  0  0  0  0  0
   10.7581    6.5674   21.7636 C   0  0  0  0  0  0  0  0  0  0  0  0
    8.4452    8.7960   19.2958 O   0  0  0  0  0  0  0  0  0  0  0  0
    8.7122    6.7842   24.8569 C   0  0  0  0  0  0  0  0  0  0  0  0
   10.3400    6.1726   14.3081 C   0  0  0  0  0  0  0  0  0  0  0  0
    7.4297    7.5873   24.8962 C   0  0  0  0  0  0  0  0  0  0  0  0
    8.1566   10.0536   16.0516 O   0  0  0  0  0  0  0  0  0  0  0  0
   12.4989    6.2074   20.1776 C   0  0  0  0  0  0  0  0  0  0  0  0
    6.9192    9.1053   20.9073 O   0  0  0  0  0  0  0  0  0  0  0  0
   14.3979    6.0729   18.7784 C   0  0  0  0  0  0  0  0  0  0  0  0
    8.6811    9.5354   16.9998 C   0  0  0  0  0  0  0  0  0  0  0  0
    9.2512    4.2713   13.7653 O   0  0  0  0  0  0  0  0  0  0  0  0
    9.6495    8.6317   16.8332 N   0  0  0  0  0  0  0  0  0  0  0  0
    6.2934    8.6988   23.1988 O   0  0  0  0  0  0  0  0  0  0  0  0
    7.9806    8.6543   20.5437 C   0  0  0  0  0  0  0  0  0  0  0  0
   13.7270    5.7144   19.8610 O   0  0  0  0  0  0  0  0  0  0  0  0
    8.3351    5.5235   15.4478 C   0  0  0  0  0  0  0  0  0  0  0  0
    8.7700    7.8434   21.3915 C   0  0  0  0  0  0  0  0  0  0  0  0
   11.7856    6.8851   19.2401 C   0  0  0  0  0  0  0  0  0  0  0  0
   10.5281    7.4276   19.5649 C   0  0  0  0  0  0  0  0  0  0  0  0
   10.0256    7.2907   20.8484 C   0  0  0  0  0  0  0  0  0  0  0  0
    9.3113    5.3049   14.4911 C   0  0  0  0  0  0  0  0  0  0  0  0
    9.4607    7.5646   16.0139 C   0  0  0  0  0  0  0  0  0  0  0  0
   10.4192    7.3157   15.0955 C   0  0  0  0  0  0  0  0  0  0  0  0
   10.2489    6.4227   23.0218 N   0  0  0  0  0  0  0  0  0  0  0  0
    7.2472    8.0746   23.5050 C   0  0  0  0  0  0  0  0  0  0  0  0
    9.2051    6.9101   23.4604 C   0  0  0  0  0  0  0  0  0  0  0  0
   11.9646    6.0299   21.4251 C   0  0  0  0  0  0  0  0  0  0  0  0
  1  5  1  0
  1 13  1  0
  2 20  2  0
  2 28  1  0
  2 29  1  0
  3 19  4  0
  3 25  4  0
  4 23  4  0
  4 27  1  0
  4 30  4  0
  5 17  1  0
  6  8  1  0
  6 29  1  0
  7 24  4  0
  7 26  4  0
  8 28  1  0
  9 13  2  0
 10 18  1  0
 10 21  4  0
 10 30  4  0
 11 17  2  0
 12 18  1  0
 13 15  1  0
 14 24  1  0
 15 25  1  0
 16 28  2  0
 17 20  1  0
 19 24  4  0
 20 23  1  0
 21 22  4  0
 22 23  4  0
 25 26  4  0
 27 29  2  0
M  END
$$$$

 Created by Python create_sdf_string function

 30 33  0  0  0  0  0  0  0  0999 V2000
    8.3036    9.8571   18.4133 C   0  0  0  0  0  0  0  0  0  0  0  0
    8.3694    7.6612   22.6703 C   0  0  0  0  0  0  0  0  0  0  0  0
    8.4143    6.6863   16.2273 C   0  0  0  0  0  0  0  0  0  0  0  0
   10.7581    6.5674   21.7636 C   0  0  0  0  0  0  0  0  0  0  0  0
    8.4452    8.7960   19.2958 O   0  0  0  0  0  0  0  0  0  0  0  0
    8.7122    6.7842   24.8569 C   0  0  0  0  0  0  0  0  0  0  0  0
   10.3400    6.1726   14.3081 C   0  0  0  0  0  0  0  0  0  0  0  0
    7.4297    7.5873   24.8962 C   0  0  0  0  0  0  0  0  0  0  0  0
    8.1566   10.0536   16.0516 O   0  0  0  0  0  0  0  0  0  0  0  0
   12.4989    6.2074   20.1776 C   0  0  0  0  0  0  0  0  0  0  0  0
    6.9192    9.1053   20.9073 O   0  0  0  0  0  0  0  0  0  0  0  0
   14.3979    6.0729   18.7784 C   0  0  0  0  0  0  0  0  0  0  0  0
    8.6811    9.5354   16.9998 C   0  0  0  0  0  0  0  0  0  0  0  0
    9.2512    4.2713   13.7653 O   0  0  0  0  0  0  0  0  0  0  0  0
    9.6495    8.6317   16.8332 N   0  0  0  0  0  0  0  0  0  0  0  0
    6.2934    8.6988   23.1988 O   0  0  0  0  0  0  0  0  0  0  0  0
    7.9806    8.6543   20.5437 C   0  0  0  0  0  0  0  0  0  0  0  0
   13.7270    5.7144   19.8610 O   0  0  0  0  0  0  0  0  0  0  0  0
    8.3351    5.5235   15.4478 C   0  0  0  0  0  0  0  0  0  0  0  0
    8.7700    7.8434   21.3915 C   0  0  0  0  0  0  0  0  0  0  0  0
   11.7856    6.8851   19.2401 C   0  0  0  0  0  0  0  0  0  0  0  0
   10.5281    7.4276   19.5649 C   0  0  0  0  0  0  0  0  0  0  0  0
   10.0256    7.2907   20.8484 C   0  0  0  0  0  0  0  0  0  0  0  0
    9.3113    5.3049   14.4911 C   0  0  0  0  0  0  0  0  0  0  0  0
    9.4607    7.5646   16.0139 C   0  0  0  0  0  0  0  0  0  0  0  0
   10.4192    7.3157   15.0955 C   0  0  0  0  0  0  0  0  0  0  0  0
   10.2489    6.4227   23.0218 N   0  0  0  0  0  0  0  0  0  0  0  0
    7.2472    8.0746   23.5050 C   0  0  0  0  0  0  0  0  0  0  0  0
    9.2051    6.9101   23.4604 C   0  0  0  0  0  0  0  0  0  0  0  0
   11.9646    6.0299   21.4251 C   0  0  0  0  0  0  0  0  0  0  0  0
  1  5  1  0
  1 13  1  0
  2 20  2  0
  2 28  1  0
  2 29  1  0
  3 19  4  0
  3 25  4  0
  4 23  4  0
  4 27  1  0
  4 30  4  0
  5 17  1  0
  6  8  1  0
  6 29  1  0
  7 24  4  0
  7 26  4  0
  8 28  1  0
  9 13  2  0
 10 18  1  0
 10 21  4  0
 10 30  4  0
 11 17  2  0
 12 18  1  0
 13 15  1  0
 14 24  1  0
 15 25  1  0
 16 28  2  0
 17 20  1  0
 19 24  4  0
 20 23  1  0
 21 22  4  0
 22 23  4  0
 25 26  4  0
 27 29  2  0
M  END
$$$$

 Created by Python create_sdf_string function

 30 33  0  0  0  0  0  0  0  0999 V2000
    8.3036    9.8571   18.4133 C   0  0  0  0  0  0  0  0  0  0  0  0
    8.3694    7.6612   22.6703 C   0  0  0  0  0  0  0  0  0  0  0  0
    8.4143    6.6863   16.2273 C   0  0  0  0  0  0  0  0  0  0  0  0
   10.7581    6.5674   21.7636 C   0  0  0  0  0  0  0  0  0  0  0  0
    8.4452    8.7960   19.2958 O   0  0  0  0  0  0  0  0  0  0  0  0
    8.7122    6.7842   24.8569 C   0  0  0  0  0  0  0  0  0  0  0  0
   10.3400    6.1726   14.3081 C   0  0  0  0  0  0  0  0  0  0  0  0
    7.4297    7.5873   24.8962 C   0  0  0  0  0  0  0  0  0  0  0  0
    8.1566   10.0536   16.0516 O   0  0  0  0  0  0  0  0  0  0  0  0
   12.4989    6.2074   20.1776 C   0  0  0  0  0  0  0  0  0  0  0  0
    6.9192    9.1053   20.9073 O   0  0  0  0  0  0  0  0  0  0  0  0
   14.3979    6.0729   18.7784 C   0  0  0  0  0  0  0  0  0  0  0  0
    8.6811    9.5354   16.9998 C   0  0  0  0  0  0  0  0  0  0  0  0
    9.2512    4.2713   13.7653 O   0  0  0  0  0  0  0  0  0  0  0  0
    9.6495    8.6317   16.8332 N   0  0  0  0  0  0  0  0  0  0  0  0
    6.2934    8.6988   23.1988 O   0  0  0  0  0  0  0  0  0  0  0  0
    7.9806    8.6543   20.5437 C   0  0  0  0  0  0  0  0  0  0  0  0
   13.7270    5.7144   19.8610 O   0  0  0  0  0  0  0  0  0  0  0  0
    8.3351    5.5235   15.4478 C   0  0  0  0  0  0  0  0  0  0  0  0
    8.7700    7.8434   21.3915 C   0  0  0  0  0  0  0  0  0  0  0  0
   11.7856    6.8851   19.2401 C   0  0  0  0  0  0  0  0  0  0  0  0
   10.5281    7.4276   19.5649 C   0  0  0  0  0  0  0  0  0  0  0  0
   10.0256    7.2907   20.8484 C   0  0  0  0  0  0  0  0  0  0  0  0
    9.3113    5.3049   14.4911 C   0  0  0  0  0  0  0  0  0  0  0  0
    9.4607    7.5646   16.0139 C   0  0  0  0  0  0  0  0  0  0  0  0
   10.4192    7.3157   15.0955 C   0  0  0  0  0  0  0  0  0  0  0  0
   10.2489    6.4227   23.0218 N   0  0  0  0  0  0  0  0  0  0  0  0
    7.2472    8.0746   23.5050 C   0  0  0  0  0  0  0  0  0  0  0  0
    9.2051    6.9101   23.4604 C   0  0  0  0  0  0  0  0  0  0  0  0
   11.9646    6.0299   21.4251 C   0  0  0  0  0  0  0  0  0  0  0  0
  1  5  1  0
  1 13  1  0
  2 20  2  0
  2 28  1  0
  2 29  1  0
  3 19  4  0
  3 25  4  0
  4 23  4  0
  4 27  1  0
  4 30  4  0
  5 17  1  0
  6  8  1  0
  6 29  1  0
  7 24  4  0
  7 26  4  0
  8 28  1  0
  9 13  2  0
 10 18  1  0
 10 21  4  0
 10 30  4  0
 11 17  2  0
 12 18  1  0
 13 15  1  0
 14 24  1  0
 15 25  1  0
 16 28  2  0
 17 20  1  0
 19 24  4  0
 20 23  1  0
 21 22  4  0
 22 23  4  0
 25 26  4  0
 27 29  2  0
M  END
$$$$

 Created by Python create_sdf_string function

 30 33  0  0  0  0  0  0  0  0999 V2000
    8.3036    9.8571   18.4133 C   0  0  0  0  0  0  0  0  0  0  0  0
    8.3694    7.6612   22.6703 C   0  0  0  0  0  0  0  0  0  0  0  0
    8.4143    6.6863   16.2273 C   0  0  0  0  0  0  0  0  0  0  0  0
   10.7581    6.5674   21.7636 C   0  0  0  0  0  0  0  0  0  0  0  0
    8.4452    8.7960   19.2958 O   0  0  0  0  0  0  0  0  0  0  0  0
    8.7122    6.7842   24.8569 C   0  0  0  0  0  0  0  0  0  0  0  0
   10.3400    6.1726   14.3081 C   0  0  0  0  0  0  0  0  0  0  0  0
    7.4297    7.5873   24.8962 C   0  0  0  0  0  0  0  0  0  0  0  0
    8.1566   10.0536   16.0516 O   0  0  0  0  0  0  0  0  0  0  0  0
   12.4989    6.2074   20.1776 C   0  0  0  0  0  0  0  0  0  0  0  0
    6.9192    9.1053   20.9073 O   0  0  0  0  0  0  0  0  0  0  0  0
   14.3979    6.0729   18.7784 C   0  0  0  0  0  0  0  0  0  0  0  0
    8.6811    9.5354   16.9998 C   0  0  0  0  0  0  0  0  0  0  0  0
    9.2512    4.2713   13.7653 O   0  0  0  0  0  0  0  0  0  0  0  0
    9.6495    8.6317   16.8332 N   0  0  0  0  0  0  0  0  0  0  0  0
    6.2934    8.6988   23.1988 O   0  0  0  0  0  0  0  0  0  0  0  0
    7.9806    8.6543   20.5437 C   0  0  0  0  0  0  0  0  0  0  0  0
   13.7270    5.7144   19.8610 O   0  0  0  0  0  0  0  0  0  0  0  0
    8.3351    5.5235   15.4478 C   0  0  0  0  0  0  0  0  0  0  0  0
    8.7700    7.8434   21.3915 C   0  0  0  0  0  0  0  0  0  0  0  0
   11.7856    6.8851   19.2401 C   0  0  0  0  0  0  0  0  0  0  0  0
   10.5281    7.4276   19.5649 C   0  0  0  0  0  0  0  0  0  0  0  0
   10.0256    7.2907   20.8484 C   0  0  0  0  0  0  0  0  0  0  0  0
    9.3113    5.3049   14.4911 C   0  0  0  0  0  0  0  0  0  0  0  0
    9.4607    7.5646   16.0139 C   0  0  0  0  0  0  0  0  0  0  0  0
   10.4192    7.3157   15.0955 C   0  0  0  0  0  0  0  0  0  0  0  0
   10.2489    6.4227   23.0218 N   0  0  0  0  0  0  0  0  0  0  0  0
    7.2472    8.0746   23.5050 C   0  0  0  0  0  0  0  0  0  0  0  0
    9.2051    6.9101   23.4604 C   0  0  0  0  0  0  0  0  0  0  0  0
   11.9646    6.0299   21.4251 C   0  0  0  0  0  0  0  0  0  0  0  0
  1  5  1  0
  1 13  1  0
  2 20  2  0
  2 28  1  0
  2 29  1  0
  3 19  4  0
  3 25  4  0
  4 23  4  0
  4 27  1  0
  4 30  4  0
  5 17  1  0
  6  8  1  0
  6 29  1  0
  7 24  4  0
  7 26  4  0
  8 28  1  0
  9 13  2  0
 10 18  1  0
 10 21  4  0
 10 30  4  0
 11 17  2  0
 12 18  1  0
 13 15  1  0
 14 24  1  0
 15 25  1  0
 16 28  2  0
 17 20  1  0
 19 24  4  0
 20 23  1  0
 21 22  4  0
 22 23  4  0
 25 26  4  0
 27 29  2  0
M  END
$$$$

 Created by Python create_sdf_string function

 30 33  0  0  0  0  0  0  0  0999 V2000
    8.3036    9.8571   18.4133 C   0  0  0  0  0  0  0  0  0  0  0  0
    8.3694    7.6612   22.6703 C   0  0  0  0  0  0  0  0  0  0  0  0
    8.4143    6.6863   16.2273 C   0  0  0  0  0  0  0  0  0  0  0  0
   10.7581    6.5674   21.7636 C   0  0  0  0  0  0  0  0  0  0  0  0
    8.4452    8.7960   19.2958 O   0  0  0  0  0  0  0  0  0  0  0  0
    8.7122    6.7842   24.8569 C   0  0  0  0  0  0  0  0  0  0  0  0
   10.3400    6.1726   14.3081 C   0  0  0  0  0  0  0  0  0  0  0  0
    7.4297    7.5873   24.8962 C   0  0  0  0  0  0  0  0  0  0  0  0
    8.1566   10.0536   16.0516 O   0  0  0  0  0  0  0  0  0  0  0  0
   12.4989    6.2074   20.1776 C   0  0  0  0  0  0  0  0  0  0  0  0
    6.9192    9.1053   20.9073 O   0  0  0  0  0  0  0  0  0  0  0  0
   14.3979    6.0729   18.7784 C   0  0  0  0  0  0  0  0  0  0  0  0
    8.6811    9.5354   16.9998 C   0  0  0  0  0  0  0  0  0  0  0  0
    9.2512    4.2713   13.7653 O   0  0  0  0  0  0  0  0  0  0  0  0
    9.6495    8.6317   16.8332 N   0  0  0  0  0  0  0  0  0  0  0  0
    6.2934    8.6988   23.1988 O   0  0  0  0  0  0  0  0  0  0  0  0
    7.9806    8.6543   20.5437 C   0  0  0  0  0  0  0  0  0  0  0  0
   13.7270    5.7144   19.8610 O   0  0  0  0  0  0  0  0  0  0  0  0
    8.3351    5.5235   15.4478 C   0  0  0  0  0  0  0  0  0  0  0  0
    8.7700    7.8434   21.3915 C   0  0  0  0  0  0  0  0  0  0  0  0
   11.7856    6.8851   19.2401 C   0  0  0  0  0  0  0  0  0  0  0  0
   10.5281    7.4276   19.5649 C   0  0  0  0  0  0  0  0  0  0  0  0
   10.0256    7.2907   20.8484 C   0  0  0  0  0  0  0  0  0  0  0  0
    9.3113    5.3049   14.4911 C   0  0  0  0  0  0  0  0  0  0  0  0
    9.4607    7.5646   16.0139 C   0  0  0  0  0  0  0  0  0  0  0  0
   10.4192    7.3157   15.0955 C   0  0  0  0  0  0  0  0  0  0  0  0
   10.2489    6.4227   23.0218 N   0  0  0  0  0  0  0  0  0  0  0  0
    7.2472    8.0746   23.5050 C   0  0  0  0  0  0  0  0  0  0  0  0
    9.2051    6.9101   23.4604 C   0  0  0  0  0  0  0  0  0  0  0  0
   11.9646    6.0299   21.4251 C   0  0  0  0  0  0  0  0  0  0  0  0
  1  5  1  0
  1 13  1  0
  2 20  2  0
  2 28  1  0
  2 29  1  0
  3 19  4  0
  3 25  4  0
  4 23  4  0
  4 27  1  0
  4 30  4  0
  5 17  1  0
  6  8  1  0
  6 29  1  0
  7 24  4  0
  7 26  4  0
  8 28  1  0
  9 13  2  0
 10 18  1  0
 10 21  4  0
 10 30  4  0
 11 17  2  0
 12 18  1  0
 13 15  1  0
 14 24  1  0
 15 25  1  0
 16 28  2  0
 17 20  1  0
 19 24  4  0
 20 23  1  0
 21 22  4  0
 22 23  4  0
 25 26  4  0
 27 29  2  0
M  END
$$$$

 Created by Python create_sdf_string function

 30 33  0  0  0  0  0  0  0  0999 V2000
    8.3036    9.8571   18.4133 C   0  0  0  0  0  0  0  0  0  0  0  0
    8.3694    7.6612   22.6703 C   0  0  0  0  0  0  0  0  0  0  0  0
    8.4143    6.6863   16.2273 C   0  0  0  0  0  0  0  0  0  0  0  0
   10.7581    6.5674   21.7636 C   0  0  0  0  0  0  0  0  0  0  0  0
    8.4452    8.7960   19.2958 O   0  0  0  0  0  0  0  0  0  0  0  0
    8.7122    6.7842   24.8569 C   0  0  0  0  0  0  0  0  0  0  0  0
   10.3400    6.1726   14.3081 C   0  0  0  0  0  0  0  0  0  0  0  0
    7.4297    7.5873   24.8962 C   0  0  0  0  0  0  0  0  0  0  0  0
    8.1566   10.0536   16.0516 O   0  0  0  0  0  0  0  0  0  0  0  0
   12.4989    6.2074   20.1776 C   0  0  0  0  0  0  0  0  0  0  0  0
    6.9192    9.1053   20.9073 O   0  0  0  0  0  0  0  0  0  0  0  0
   14.3979    6.0729   18.7784 C   0  0  0  0  0  0  0  0  0  0  0  0
    8.6811    9.5354   16.9998 C   0  0  0  0  0  0  0  0  0  0  0  0
    9.2512    4.2713   13.7653 O   0  0  0  0  0  0  0  0  0  0  0  0
    9.6495    8.6317   16.8332 N   0  0  0  0  0  0  0  0  0  0  0  0
    6.2934    8.6988   23.1988 O   0  0  0  0  0  0  0  0  0  0  0  0
    7.9806    8.6543   20.5437 C   0  0  0  0  0  0  0  0  0  0  0  0
   13.7270    5.7144   19.8610 O   0  0  0  0  0  0  0  0  0  0  0  0
    8.3351    5.5235   15.4478 C   0  0  0  0  0  0  0  0  0  0  0  0
    8.7700    7.8434   21.3915 C   0  0  0  0  0  0  0  0  0  0  0  0
   11.7856    6.8851   19.2401 C   0  0  0  0  0  0  0  0  0  0  0  0
   10.5281    7.4276   19.5649 C   0  0  0  0  0  0  0  0  0  0  0  0
   10.0256    7.2907   20.8484 C   0  0  0  0  0  0  0  0  0  0  0  0
    9.3113    5.3049   14.4911 C   0  0  0  0  0  0  0  0  0  0  0  0
    9.4607    7.5646   16.0139 C   0  0  0  0  0  0  0  0  0  0  0  0
   10.4192    7.3157   15.0955 C   0  0  0  0  0  0  0  0  0  0  0  0
   10.2489    6.4227   23.0218 N   0  0  0  0  0  0  0  0  0  0  0  0
    7.2472    8.0746   23.5050 C   0  0  0  0  0  0  0  0  0  0  0  0
    9.2051    6.9101   23.4604 C   0  0  0  0  0  0  0  0  0  0  0  0
   11.9646    6.0299   21.4251 C   0  0  0  0  0  0  0  0  0  0  0  0
  1  5  1  0
  1 13  1  0
  2 20  2  0
  2 28  1  0
  2 29  1  0
  3 19  4  0
  3 25  4  0
  4 23  4  0
  4 27  1  0
  4 30  4  0
  5 17  1  0
  6  8  1  0
  6 29  1  0
  7 24  4  0
  7 26  4  0
  8 28  1  0
  9 13  2  0
 10 18  1  0
 10 21  4  0
 10 30  4  0
 11 17  2  0
 12 18  1  0
 13 15  1  0
 14 24  1  0
 15 25  1  0
 16 28  2  0
 17 20  1  0
 19 24  4  0
 20 23  1  0
 21 22  4  0
 22 23  4  0
 25 26  4  0
 27 29  2  0
M  END
$$$$

 Created by Python create_sdf_string function

 30 33  0  0  0  0  0  0  0  0999 V2000
    8.3036    9.8571   18.4133 C   0  0  0  0  0  0  0  0  0  0  0  0
    8.3694    7.6612   22.6703 C   0  0  0  0  0  0  0  0  0  0  0  0
    8.4143    6.6863   16.2273 C   0  0  0  0  0  0  0  0  0  0  0  0
   10.7581    6.5674   21.7636 C   0  0  0  0  0  0  0  0  0  0  0  0
    8.4452    8.7960   19.2958 O   0  0  0  0  0  0  0  0  0  0  0  0
    8.7122    6.7842   24.8569 C   0  0  0  0  0  0  0  0  0  0  0  0
   10.3400    6.1726   14.3081 C   0  0  0  0  0  0  0  0  0  0  0  0
    7.4297    7.5873   24.8962 C   0  0  0  0  0  0  0  0  0  0  0  0
    8.1566   10.0536   16.0516 O   0  0  0  0  0  0  0  0  0  0  0  0
   12.4989    6.2074   20.1776 C   0  0  0  0  0  0  0  0  0  0  0  0
    6.9192    9.1053   20.9073 O   0  0  0  0  0  0  0  0  0  0  0  0
   14.3979    6.0729   18.7784 C   0  0  0  0  0  0  0  0  0  0  0  0
    8.6811    9.5354   16.9998 C   0  0  0  0  0  0  0  0  0  0  0  0
    9.2512    4.2713   13.7653 O   0  0  0  0  0  0  0  0  0  0  0  0
    9.6495    8.6317   16.8332 N   0  0  0  0  0  0  0  0  0  0  0  0
    6.2934    8.6988   23.1988 O   0  0  0  0  0  0  0  0  0  0  0  0
    7.9806    8.6543   20.5437 C   0  0  0  0  0  0  0  0  0  0  0  0
   13.7270    5.7144   19.8610 O   0  0  0  0  0  0  0  0  0  0  0  0
    8.3351    5.5235   15.4478 C   0  0  0  0  0  0  0  0  0  0  0  0
    8.7700    7.8434   21.3915 C   0  0  0  0  0  0  0  0  0  0  0  0
   11.7856    6.8851   19.2401 C   0  0  0  0  0  0  0  0  0  0  0  0
   10.5281    7.4276   19.5649 C   0  0  0  0  0  0  0  0  0  0  0  0
   10.0256    7.2907   20.8484 C   0  0  0  0  0  0  0  0  0  0  0  0
    9.3113    5.3049   14.4911 C   0  0  0  0  0  0  0  0  0  0  0  0
    9.4607    7.5646   16.0139 C   0  0  0  0  0  0  0  0  0  0  0  0
   10.4192    7.3157   15.0955 C   0  0  0  0  0  0  0  0  0  0  0  0
   10.2489    6.4227   23.0218 N   0  0  0  0  0  0  0  0  0  0  0  0
    7.2472    8.0746   23.5050 C   0  0  0  0  0  0  0  0  0  0  0  0
    9.2051    6.9101   23.4604 C   0  0  0  0  0  0  0  0  0  0  0  0
   11.9646    6.0299   21.4251 C   0  0  0  0  0  0  0  0  0  0  0  0
  1  5  1  0
  1 13  1  0
  2 20  2  0
  2 28  1  0
  2 29  1  0
  3 19  4  0
  3 25  4  0
  4 23  4  0
  4 27  1  0
  4 30  4  0
  5 17  1  0
  6  8  1  0
  6 29  1  0
  7 24  4  0
  7 26  4  0
  8 28  1  0
  9 13  2  0
 10 18  1  0
 10 21  4  0
 10 30  4  0
 11 17  2  0
 12 18  1  0
 13 15  1  0
 14 24  1  0
 15 25  1  0
 16 28  2  0
 17 20  1  0
 19 24  4  0
 20 23  1  0
 21 22  4  0
 22 23  4  0
 25 26  4  0
 27 29  2  0
M  END
$$$$

 Created by Python create_sdf_string function

 30 33  0  0  0  0  0  0  0  0999 V2000
    8.3036    9.8571   18.4133 C   0  0  0  0  0  0  0  0  0  0  0  0
    8.3694    7.6612   22.6703 C   0  0  0  0  0  0  0  0  0  0  0  0
    8.4143    6.6863   16.2273 C   0  0  0  0  0  0  0  0  0  0  0  0
   10.7581    6.5674   21.7636 C   0  0  0  0  0  0  0  0  0  0  0  0
    8.4452    8.7960   19.2958 O   0  0  0  0  0  0  0  0  0  0  0  0
    8.7122    6.7842   24.8569 C   0  0  0  0  0  0  0  0  0  0  0  0
   10.3400    6.1726   14.3081 C   0  0  0  0  0  0  0  0  0  0  0  0
    7.4297    7.5873   24.8962 C   0  0  0  0  0  0  0  0  0  0  0  0
    8.1566   10.0536   16.0516 O   0  0  0  0  0  0  0  0  0  0  0  0
   12.4989    6.2074   20.1776 C   0  0  0  0  0  0  0  0  0  0  0  0
    6.9192    9.1053   20.9073 O   0  0  0  0  0  0  0  0  0  0  0  0
   14.3979    6.0729   18.7784 C   0  0  0  0  0  0  0  0  0  0  0  0
    8.6811    9.5354   16.9998 C   0  0  0  0  0  0  0  0  0  0  0  0
    9.2512    4.2713   13.7653 O   0  0  0  0  0  0  0  0  0  0  0  0
    9.6495    8.6317   16.8332 N   0  0  0  0  0  0  0  0  0  0  0  0
    6.2934    8.6988   23.1988 O   0  0  0  0  0  0  0  0  0  0  0  0
    7.9806    8.6543   20.5437 C   0  0  0  0  0  0  0  0  0  0  0  0
   13.7270    5.7144   19.8610 O   0  0  0  0  0  0  0  0  0  0  0  0
    8.3351    5.5235   15.4478 C   0  0  0  0  0  0  0  0  0  0  0  0
    8.7700    7.8434   21.3915 C   0  0  0  0  0  0  0  0  0  0  0  0
   11.7856    6.8851   19.2401 C   0  0  0  0  0  0  0  0  0  0  0  0
   10.5281    7.4276   19.5649 C   0  0  0  0  0  0  0  0  0  0  0  0
   10.0256    7.2907   20.8484 C   0  0  0  0  0  0  0  0  0  0  0  0
    9.3113    5.3049   14.4911 C   0  0  0  0  0  0  0  0  0  0  0  0
    9.4607    7.5646   16.0139 C   0  0  0  0  0  0  0  0  0  0  0  0
   10.4192    7.3157   15.0955 C   0  0  0  0  0  0  0  0  0  0  0  0
   10.2489    6.4227   23.0218 N   0  0  0  0  0  0  0  0  0  0  0  0
    7.2472    8.0746   23.5050 C   0  0  0  0  0  0  0  0  0  0  0  0
    9.2051    6.9101   23.4604 C   0  0  0  0  0  0  0  0  0  0  0  0
   11.9646    6.0299   21.4251 C   0  0  0  0  0  0  0  0  0  0  0  0
  1  5  1  0
  1 13  1  0
  2 20  2  0
  2 28  1  0
  2 29  1  0
  3 19  4  0
  3 25  4  0
  4 23  4  0
  4 27  1  0
  4 30  4  0
  5 17  1  0
  6  8  1  0
  6 29  1  0
  7 24  4  0
  7 26  4  0
  8 28  1  0
  9 13  2  0
 10 18  1  0
 10 21  4  0
 10 30  4  0
 11 17  2  0
 12 18  1  0
 13 15  1  0
 14 24  1  0
 15 25  1  0
 16 28  2  0
 17 20  1  0
 19 24  4  0
 20 23  1  0
 21 22  4  0
 22 23  4  0
 25 26  4  0
 27 29  2  0
M  END
$$$$

 Created by Python create_sdf_string function

 30 33  0  0  0  0  0  0  0  0999 V2000
    8.3036    9.8571   18.4133 C   0  0  0  0  0  0  0  0  0  0  0  0
    8.3694    7.6612   22.6703 C   0  0  0  0  0  0  0  0  0  0  0  0
    8.4143    6.6863   16.2273 C   0  0  0  0  0  0  0  0  0  0  0  0
   10.7581    6.5674   21.7636 C   0  0  0  0  0  0  0  0  0  0  0  0
    8.4452    8.7960   19.2958 O   0  0  0  0  0  0  0  0  0  0  0  0
    8.7122    6.7842   24.8569 C   0  0  0  0  0  0  0  0  0  0  0  0
   10.3400    6.1726   14.3081 C   0  0  0  0  0  0  0  0  0  0  0  0
    7.4297    7.5873   24.8962 C   0  0  0  0  0  0  0  0  0  0  0  0
    8.1566   10.0536   16.0516 O   0  0  0  0  0  0  0  0  0  0  0  0
   12.4989    6.2074   20.1776 C   0  0  0  0  0  0  0  0  0  0  0  0
    6.9192    9.1053   20.9073 O   0  0  0  0  0  0  0  0  0  0  0  0
   14.3979    6.0729   18.7784 C   0  0  0  0  0  0  0  0  0  0  0  0
    8.6811    9.5354   16.9998 C   0  0  0  0  0  0  0  0  0  0  0  0
    9.2512    4.2713   13.7653 O   0  0  0  0  0  0  0  0  0  0  0  0
    9.6495    8.6317   16.8332 N   0  0  0  0  0  0  0  0  0  0  0  0
    6.2934    8.6988   23.1988 O   0  0  0  0  0  0  0  0  0  0  0  0
    7.9806    8.6543   20.5437 C   0  0  0  0  0  0  0  0  0  0  0  0
   13.7270    5.7144   19.8610 O   0  0  0  0  0  0  0  0  0  0  0  0
    8.3351    5.5235   15.4478 C   0  0  0  0  0  0  0  0  0  0  0  0
    8.7700    7.8434   21.3915 C   0  0  0  0  0  0  0  0  0  0  0  0
   11.7856    6.8851   19.2401 C   0  0  0  0  0  0  0  0  0  0  0  0
   10.5281    7.4276   19.5649 C   0  0  0  0  0  0  0  0  0  0  0  0
   10.0256    7.2907   20.8484 C   0  0  0  0  0  0  0  0  0  0  0  0
    9.3113    5.3049   14.4911 C   0  0  0  0  0  0  0  0  0  0  0  0
    9.4607    7.5646   16.0139 C   0  0  0  0  0  0  0  0  0  0  0  0
   10.4192    7.3157   15.0955 C   0  0  0  0  0  0  0  0  0  0  0  0
   10.2489    6.4227   23.0218 N   0  0  0  0  0  0  0  0  0  0  0  0
    7.2472    8.0746   23.5050 C   0  0  0  0  0  0  0  0  0  0  0  0
    9.2051    6.9101   23.4604 C   0  0  0  0  0  0  0  0  0  0  0  0
   11.9646    6.0299   21.4251 C   0  0  0  0  0  0  0  0  0  0  0  0
  1  5  1  0
  1 13  1  0
  2 20  2  0
  2 28  1  0
  2 29  1  0
  3 19  4  0
  3 25  4  0
  4 23  4  0
  4 27  1  0
  4 30  4  0
  5 17  1  0
  6  8  1  0
  6 29  1  0
  7 24  4  0
  7 26  4  0
  8 28  1  0
  9 13  2  0
 10 18  1  0
 10 21  4  0
 10 30  4  0
 11 17  2  0
 12 18  1  0
 13 15  1  0
 14 24  1  0
 15 25  1  0
 16 28  2  0
 17 20  1  0
 19 24  4  0
 20 23  1  0
 21 22  4  0
 22 23  4  0
 25 26  4  0
 27 29  2  0
M  END
$$$$

 Created by Python create_sdf_string function

 30 33  0  0  0  0  0  0  0  0999 V2000
    8.3036    9.8571   18.4133 C   0  0  0  0  0  0  0  0  0  0  0  0
    8.3694    7.6612   22.6703 C   0  0  0  0  0  0  0  0  0  0  0  0
    8.4143    6.6863   16.2273 C   0  0  0  0  0  0  0  0  0  0  0  0
   10.7581    6.5674   21.7636 C   0  0  0  0  0  0  0  0  0  0  0  0
    8.4452    8.7960   19.2958 O   0  0  0  0  0  0  0  0  0  0  0  0
    8.7122    6.7842   24.8569 C   0  0  0  0  0  0  0  0  0  0  0  0
   10.3400    6.1726   14.3081 C   0  0  0  0  0  0  0  0  0  0  0  0
    7.4297    7.5873   24.8962 C   0  0  0  0  0  0  0  0  0  0  0  0
    8.1566   10.0536   16.0516 O   0  0  0  0  0  0  0  0  0  0  0  0
   12.4989    6.2074   20.1776 C   0  0  0  0  0  0  0  0  0  0  0  0
    6.9192    9.1053   20.9073 O   0  0  0  0  0  0  0  0  0  0  0  0
   14.3979    6.0729   18.7784 C   0  0  0  0  0  0  0  0  0  0  0  0
    8.6811    9.5354   16.9998 C   0  0  0  0  0  0  0  0  0  0  0  0
    9.2512    4.2713   13.7653 O   0  0  0  0  0  0  0  0  0  0  0  0
    9.6495    8.6317   16.8332 N   0  0  0  0  0  0  0  0  0  0  0  0
    6.2934    8.6988   23.1988 O   0  0  0  0  0  0  0  0  0  0  0  0
    7.9806    8.6543   20.5437 C   0  0  0  0  0  0  0  0  0  0  0  0
   13.7270    5.7144   19.8610 O   0  0  0  0  0  0  0  0  0  0  0  0
    8.3351    5.5235   15.4478 C   0  0  0  0  0  0  0  0  0  0  0  0
    8.7700    7.8434   21.3915 C   0  0  0  0  0  0  0  0  0  0  0  0
   11.7856    6.8851   19.2401 C   0  0  0  0  0  0  0  0  0  0  0  0
   10.5281    7.4276   19.5649 C   0  0  0  0  0  0  0  0  0  0  0  0
   10.0256    7.2907   20.8484 C   0  0  0  0  0  0  0  0  0  0  0  0
    9.3113    5.3049   14.4911 C   0  0  0  0  0  0  0  0  0  0  0  0
    9.4607    7.5646   16.0139 C   0  0  0  0  0  0  0  0  0  0  0  0
   10.4192    7.3157   15.0955 C   0  0  0  0  0  0  0  0  0  0  0  0
   10.2489    6.4227   23.0218 N   0  0  0  0  0  0  0  0  0  0  0  0
    7.2472    8.0746   23.5050 C   0  0  0  0  0  0  0  0  0  0  0  0
    9.2051    6.9101   23.4604 C   0  0  0  0  0  0  0  0  0  0  0  0
   11.9646    6.0299   21.4251 C   0  0  0  0  0  0  0  0  0  0  0  0
  1  5  1  0
  1 13  1  0
  2 20  2  0
  2 28  1  0
  2 29  1  0
  3 19  4  0
  3 25  4  0
  4 23  4  0
  4 27  1  0
  4 30  4  0
  5 17  1  0
  6  8  1  0
  6 29  1  0
  7 24  4  0
  7 26  4  0
  8 28  1  0
  9 13  2  0
 10 18  1  0
 10 21  4  0
 10 30  4  0
 11 17  2  0
 12 18  1  0
 13 15  1  0
 14 24  1  0
 15 25  1  0
 16 28  2  0
 17 20  1  0
 19 24  4  0
 20 23  1  0
 21 22  4  0
 22 23  4  0
 25 26  4  0
 27 29  2  0
M  END
$$$$

 Created by Python create_sdf_string function

 30 33  0  0  0  0  0  0  0  0999 V2000
    8.3036    9.8571   18.4133 C   0  0  0  0  0  0  0  0  0  0  0  0
    8.3694    7.6612   22.6703 C   0  0  0  0  0  0  0  0  0  0  0  0
    8.4143    6.6863   16.2273 C   0  0  0  0  0  0  0  0  0  0  0  0
   10.7581    6.5674   21.7636 C   0  0  0  0  0  0  0  0  0  0  0  0
    8.4452    8.7960   19.2958 O   0  0  0  0  0  0  0  0  0  0  0  0
    8.7122    6.7842   24.8569 C   0  0  0  0  0  0  0  0  0  0  0  0
   10.3400    6.1726   14.3081 C   0  0  0  0  0  0  0  0  0  0  0  0
    7.4297    7.5873   24.8962 C   0  0  0  0  0  0  0  0  0  0  0  0
    8.1566   10.0536   16.0516 O   0  0  0  0  0  0  0  0  0  0  0  0
   12.4989    6.2074   20.1776 C   0  0  0  0  0  0  0  0  0  0  0  0
    6.9192    9.1053   20.9073 O   0  0  0  0  0  0  0  0  0  0  0  0
   14.3979    6.0729   18.7784 C   0  0  0  0  0  0  0  0  0  0  0  0
    8.6811    9.5354   16.9998 C   0  0  0  0  0  0  0  0  0  0  0  0
    9.2512    4.2713   13.7653 O   0  0  0  0  0  0  0  0  0  0  0  0
    9.6495    8.6317   16.8332 N   0  0  0  0  0  0  0  0  0  0  0  0
    6.2934    8.6988   23.1988 O   0  0  0  0  0  0  0  0  0  0  0  0
    7.9806    8.6543   20.5437 C   0  0  0  0  0  0  0  0  0  0  0  0
   13.7270    5.7144   19.8610 O   0  0  0  0  0  0  0  0  0  0  0  0
    8.3351    5.5235   15.4478 C   0  0  0  0  0  0  0  0  0  0  0  0
    8.7700    7.8434   21.3915 C   0  0  0  0  0  0  0  0  0  0  0  0
   11.7856    6.8851   19.2401 C   0  0  0  0  0  0  0  0  0  0  0  0
   10.5281    7.4276   19.5649 C   0  0  0  0  0  0  0  0  0  0  0  0
   10.0256    7.2907   20.8484 C   0  0  0  0  0  0  0  0  0  0  0  0
    9.3113    5.3049   14.4911 C   0  0  0  0  0  0  0  0  0  0  0  0
    9.4607    7.5646   16.0139 C   0  0  0  0  0  0  0  0  0  0  0  0
   10.4192    7.3157   15.0955 C   0  0  0  0  0  0  0  0  0  0  0  0
   10.2489    6.4227   23.0218 N   0  0  0  0  0  0  0  0  0  0  0  0
    7.2472    8.0746   23.5050 C   0  0  0  0  0  0  0  0  0  0  0  0
    9.2051    6.9101   23.4604 C   0  0  0  0  0  0  0  0  0  0  0  0
   11.9646    6.0299   21.4251 C   0  0  0  0  0  0  0  0  0  0  0  0
  1  5  1  0
  1 13  1  0
  2 20  2  0
  2 28  1  0
  2 29  1  0
  3 19  4  0
  3 25  4  0
  4 23  4  0
  4 27  1  0
  4 30  4  0
  5 17  1  0
  6  8  1  0
  6 29  1  0
  7 24  4  0
  7 26  4  0
  8 28  1  0
  9 13  2  0
 10 18  1  0
 10 21  4  0
 10 30  4  0
 11 17  2  0
 12 18  1  0
 13 15  1  0
 14 24  1  0
 15 25  1  0
 16 28  2  0
 17 20  1  0
 19 24  4  0
 20 23  1  0
 21 22  4  0
 22 23  4  0
 25 26  4  0
 27 29  2  0
M  END
$$$$

 Created by Python create_sdf_string function

 30 33  0  0  0  0  0  0  0  0999 V2000
    8.3036    9.8571   18.4133 C   0  0  0  0  0  0  0  0  0  0  0  0
    8.3694    7.6612   22.6703 C   0  0  0  0  0  0  0  0  0  0  0  0
    8.4143    6.6863   16.2273 C   0  0  0  0  0  0  0  0  0  0  0  0
   10.7581    6.5674   21.7636 C   0  0  0  0  0  0  0  0  0  0  0  0
    8.4452    8.7960   19.2958 O   0  0  0  0  0  0  0  0  0  0  0  0
    8.7122    6.7842   24.8569 C   0  0  0  0  0  0  0  0  0  0  0  0
   10.3400    6.1726   14.3081 C   0  0  0  0  0  0  0  0  0  0  0  0
    7.4297    7.5873   24.8962 C   0  0  0  0  0  0  0  0  0  0  0  0
    8.1566   10.0536   16.0516 O   0  0  0  0  0  0  0  0  0  0  0  0
   12.4989    6.2074   20.1776 C   0  0  0  0  0  0  0  0  0  0  0  0
    6.9192    9.1053   20.9073 O   0  0  0  0  0  0  0  0  0  0  0  0
   14.3979    6.0729   18.7784 C   0  0  0  0  0  0  0  0  0  0  0  0
    8.6811    9.5354   16.9998 C   0  0  0  0  0  0  0  0  0  0  0  0
    9.2512    4.2713   13.7653 O   0  0  0  0  0  0  0  0  0  0  0  0
    9.6495    8.6317   16.8332 N   0  0  0  0  0  0  0  0  0  0  0  0
    6.2934    8.6988   23.1988 O   0  0  0  0  0  0  0  0  0  0  0  0
    7.9806    8.6543   20.5437 C   0  0  0  0  0  0  0  0  0  0  0  0
   13.7270    5.7144   19.8610 O   0  0  0  0  0  0  0  0  0  0  0  0
    8.3351    5.5235   15.4478 C   0  0  0  0  0  0  0  0  0  0  0  0
    8.7700    7.8434   21.3915 C   0  0  0  0  0  0  0  0  0  0  0  0
   11.7856    6.8851   19.2401 C   0  0  0  0  0  0  0  0  0  0  0  0
   10.5281    7.4276   19.5649 C   0  0  0  0  0  0  0  0  0  0  0  0
   10.0256    7.2907   20.8484 C   0  0  0  0  0  0  0  0  0  0  0  0
    9.3113    5.3049   14.4911 C   0  0  0  0  0  0  0  0  0  0  0  0
    9.4607    7.5646   16.0139 C   0  0  0  0  0  0  0  0  0  0  0  0
   10.4192    7.3157   15.0955 C   0  0  0  0  0  0  0  0  0  0  0  0
   10.2489    6.4227   23.0218 N   0  0  0  0  0  0  0  0  0  0  0  0
    7.2472    8.0746   23.5050 C   0  0  0  0  0  0  0  0  0  0  0  0
    9.2051    6.9101   23.4604 C   0  0  0  0  0  0  0  0  0  0  0  0
   11.9646    6.0299   21.4251 C   0  0  0  0  0  0  0  0  0  0  0  0
  1  5  1  0
  1 13  1  0
  2 20  2  0
  2 28  1  0
  2 29  1  0
  3 19  4  0
  3 25  4  0
  4 23  4  0
  4 27  1  0
  4 30  4  0
  5 17  1  0
  6  8  1  0
  6 29  1  0
  7 24  4  0
  7 26  4  0
  8 28  1  0
  9 13  2  0
 10 18  1  0
 10 21  4  0
 10 30  4  0
 11 17  2  0
 12 18  1  0
 13 15  1  0
 14 24  1  0
 15 25  1  0
 16 28  2  0
 17 20  1  0
 19 24  4  0
 20 23  1  0
 21 22  4  0
 22 23  4  0
 25 26  4  0
 27 29  2  0
M  END
$$$$

 Created by Python create_sdf_string function

 30 33  0  0  0  0  0  0  0  0999 V2000
    8.3036    9.8571   18.4133 C   0  0  0  0  0  0  0  0  0  0  0  0
    8.3694    7.6612   22.6703 C   0  0  0  0  0  0  0  0  0  0  0  0
    8.4143    6.6863   16.2273 C   0  0  0  0  0  0  0  0  0  0  0  0
   10.7581    6.5674   21.7636 C   0  0  0  0  0  0  0  0  0  0  0  0
    8.4452    8.7960   19.2958 O   0  0  0  0  0  0  0  0  0  0  0  0
    8.7122    6.7842   24.8569 C   0  0  0  0  0  0  0  0  0  0  0  0
   10.3400    6.1726   14.3081 C   0  0  0  0  0  0  0  0  0  0  0  0
    7.4297    7.5873   24.8962 C   0  0  0  0  0  0  0  0  0  0  0  0
    8.1566   10.0536   16.0516 O   0  0  0  0  0  0  0  0  0  0  0  0
   12.4989    6.2074   20.1776 C   0  0  0  0  0  0  0  0  0  0  0  0
    6.9192    9.1053   20.9073 O   0  0  0  0  0  0  0  0  0  0  0  0
   14.3979    6.0729   18.7784 C   0  0  0  0  0  0  0  0  0  0  0  0
    8.6811    9.5354   16.9998 C   0  0  0  0  0  0  0  0  0  0  0  0
    9.2512    4.2713   13.7653 O   0  0  0  0  0  0  0  0  0  0  0  0
    9.6495    8.6317   16.8332 N   0  0  0  0  0  0  0  0  0  0  0  0
    6.2934    8.6988   23.1988 O   0  0  0  0  0  0  0  0  0  0  0  0
    7.9806    8.6543   20.5437 C   0  0  0  0  0  0  0  0  0  0  0  0
   13.7270    5.7144   19.8610 O   0  0  0  0  0  0  0  0  0  0  0  0
    8.3351    5.5235   15.4478 C   0  0  0  0  0  0  0  0  0  0  0  0
    8.7700    7.8434   21.3915 C   0  0  0  0  0  0  0  0  0  0  0  0
   11.7856    6.8851   19.2401 C   0  0  0  0  0  0  0  0  0  0  0  0
   10.5281    7.4276   19.5649 C   0  0  0  0  0  0  0  0  0  0  0  0
   10.0256    7.2907   20.8484 C   0  0  0  0  0  0  0  0  0  0  0  0
    9.3113    5.3049   14.4911 C   0  0  0  0  0  0  0  0  0  0  0  0
    9.4607    7.5646   16.0139 C   0  0  0  0  0  0  0  0  0  0  0  0
   10.4192    7.3157   15.0955 C   0  0  0  0  0  0  0  0  0  0  0  0
   10.2489    6.4227   23.0218 N   0  0  0  0  0  0  0  0  0  0  0  0
    7.2472    8.0746   23.5050 C   0  0  0  0  0  0  0  0  0  0  0  0
    9.2051    6.9101   23.4604 C   0  0  0  0  0  0  0  0  0  0  0  0
   11.9646    6.0299   21.4251 C   0  0  0  0  0  0  0  0  0  0  0  0
  1  5  1  0
  1 13  1  0
  2 20  2  0
  2 28  1  0
  2 29  1  0
  3 19  4  0
  3 25  4  0
  4 23  4  0
  4 27  1  0
  4 30  4  0
  5 17  1  0
  6  8  1  0
  6 29  1  0
  7 24  4  0
  7 26  4  0
  8 28  1  0
  9 13  2  0
 10 18  1  0
 10 21  4  0
 10 30  4  0
 11 17  2  0
 12 18  1  0
 13 15  1  0
 14 24  1  0
 15 25  1  0
 16 28  2  0
 17 20  1  0
 19 24  4  0
 20 23  1  0
 21 22  4  0
 22 23  4  0
 25 26  4  0
 27 29  2  0
M  END
$$$$

 Created by Python create_sdf_string function

 30 33  0  0  0  0  0  0  0  0999 V2000
    8.3036    9.8571   18.4133 C   0  0  0  0  0  0  0  0  0  0  0  0
    8.3694    7.6612   22.6703 C   0  0  0  0  0  0  0  0  0  0  0  0
    8.4143    6.6863   16.2273 C   0  0  0  0  0  0  0  0  0  0  0  0
   10.7581    6.5674   21.7636 C   0  0  0  0  0  0  0  0  0  0  0  0
    8.4452    8.7960   19.2958 O   0  0  0  0  0  0  0  0  0  0  0  0
    8.7122    6.7842   24.8569 C   0  0  0  0  0  0  0  0  0  0  0  0
   10.3400    6.1726   14.3081 C   0  0  0  0  0  0  0  0  0  0  0  0
    7.4297    7.5873   24.8962 C   0  0  0  0  0  0  0  0  0  0  0  0
    8.1566   10.0536   16.0516 O   0  0  0  0  0  0  0  0  0  0  0  0
   12.4989    6.2074   20.1776 C   0  0  0  0  0  0  0  0  0  0  0  0
    6.9192    9.1053   20.9073 O   0  0  0  0  0  0  0  0  0  0  0  0
   14.3979    6.0729   18.7784 C   0  0  0  0  0  0  0  0  0  0  0  0
    8.6811    9.5354   16.9998 C   0  0  0  0  0  0  0  0  0  0  0  0
    9.2512    4.2713   13.7653 O   0  0  0  0  0  0  0  0  0  0  0  0
    9.6495    8.6317   16.8332 N   0  0  0  0  0  0  0  0  0  0  0  0
    6.2934    8.6988   23.1988 O   0  0  0  0  0  0  0  0  0  0  0  0
    7.9806    8.6543   20.5437 C   0  0  0  0  0  0  0  0  0  0  0  0
   13.7270    5.7144   19.8610 O   0  0  0  0  0  0  0  0  0  0  0  0
    8.3351    5.5235   15.4478 C   0  0  0  0  0  0  0  0  0  0  0  0
    8.7700    7.8434   21.3915 C   0  0  0  0  0  0  0  0  0  0  0  0
   11.7856    6.8851   19.2401 C   0  0  0  0  0  0  0  0  0  0  0  0
   10.5281    7.4276   19.5649 C   0  0  0  0  0  0  0  0  0  0  0  0
   10.0256    7.2907   20.8484 C   0  0  0  0  0  0  0  0  0  0  0  0
    9.3113    5.3049   14.4911 C   0  0  0  0  0  0  0  0  0  0  0  0
    9.4607    7.5646   16.0139 C   0  0  0  0  0  0  0  0  0  0  0  0
   10.4192    7.3157   15.0955 C   0  0  0  0  0  0  0  0  0  0  0  0
   10.2489    6.4227   23.0218 N   0  0  0  0  0  0  0  0  0  0  0  0
    7.2472    8.0746   23.5050 C   0  0  0  0  0  0  0  0  0  0  0  0
    9.2051    6.9101   23.4604 C   0  0  0  0  0  0  0  0  0  0  0  0
   11.9646    6.0299   21.4251 C   0  0  0  0  0  0  0  0  0  0  0  0
  1  5  1  0
  1 13  1  0
  2 20  2  0
  2 28  1  0
  2 29  1  0
  3 19  4  0
  3 25  4  0
  4 23  4  0
  4 27  1  0
  4 30  4  0
  5 17  1  0
  6  8  1  0
  6 29  1  0
  7 24  4  0
  7 26  4  0
  8 28  1  0
  9 13  2  0
 10 18  1  0
 10 21  4  0
 10 30  4  0
 11 17  2  0
 12 18  1  0
 13 15  1  0
 14 24  1  0
 15 25  1  0
 16 28  2  0
 17 20  1  0
 19 24  4  0
 20 23  1  0
 21 22  4  0
 22 23  4  0
 25 26  4  0
 27 29  2  0
M  END
$$$$

 Created by Python create_sdf_string function

 30 33  0  0  0  0  0  0  0  0999 V2000
    8.3036    9.8571   18.4133 C   0  0  0  0  0  0  0  0  0  0  0  0
    8.3694    7.6612   22.6703 C   0  0  0  0  0  0  0  0  0  0  0  0
    8.4143    6.6863   16.2273 C   0  0  0  0  0  0  0  0  0  0  0  0
   10.7581    6.5674   21.7636 C   0  0  0  0  0  0  0  0  0  0  0  0
    8.4452    8.7960   19.2958 O   0  0  0  0  0  0  0  0  0  0  0  0
    8.7122    6.7842   24.8569 C   0  0  0  0  0  0  0  0  0  0  0  0
   10.3400    6.1726   14.3081 C   0  0  0  0  0  0  0  0  0  0  0  0
    7.4297    7.5873   24.8962 C   0  0  0  0  0  0  0  0  0  0  0  0
    8.1566   10.0536   16.0516 O   0  0  0  0  0  0  0  0  0  0  0  0
   12.4989    6.2074   20.1776 C   0  0  0  0  0  0  0  0  0  0  0  0
    6.9192    9.1053   20.9073 O   0  0  0  0  0  0  0  0  0  0  0  0
   14.3979    6.0729   18.7784 C   0  0  0  0  0  0  0  0  0  0  0  0
    8.6811    9.5354   16.9998 C   0  0  0  0  0  0  0  0  0  0  0  0
    9.2512    4.2713   13.7653 O   0  0  0  0  0  0  0  0  0  0  0  0
    9.6495    8.6317   16.8332 N   0  0  0  0  0  0  0  0  0  0  0  0
    6.2934    8.6988   23.1988 O   0  0  0  0  0  0  0  0  0  0  0  0
    7.9806    8.6543   20.5437 C   0  0  0  0  0  0  0  0  0  0  0  0
   13.7270    5.7144   19.8610 O   0  0  0  0  0  0  0  0  0  0  0  0
    8.3351    5.5235   15.4478 C   0  0  0  0  0  0  0  0  0  0  0  0
    8.7700    7.8434   21.3915 C   0  0  0  0  0  0  0  0  0  0  0  0
   11.7856    6.8851   19.2401 C   0  0  0  0  0  0  0  0  0  0  0  0
   10.5281    7.4276   19.5649 C   0  0  0  0  0  0  0  0  0  0  0  0
   10.0256    7.2907   20.8484 C   0  0  0  0  0  0  0  0  0  0  0  0
    9.3113    5.3049   14.4911 C   0  0  0  0  0  0  0  0  0  0  0  0
    9.4607    7.5646   16.0139 C   0  0  0  0  0  0  0  0  0  0  0  0
   10.4192    7.3157   15.0955 C   0  0  0  0  0  0  0  0  0  0  0  0
   10.2489    6.4227   23.0218 N   0  0  0  0  0  0  0  0  0  0  0  0
    7.2472    8.0746   23.5050 C   0  0  0  0  0  0  0  0  0  0  0  0
    9.2051    6.9101   23.4604 C   0  0  0  0  0  0  0  0  0  0  0  0
   11.9646    6.0299   21.4251 C   0  0  0  0  0  0  0  0  0  0  0  0
  1  5  1  0
  1 13  1  0
  2 20  2  0
  2 28  1  0
  2 29  1  0
  3 19  4  0
  3 25  4  0
  4 23  4  0
  4 27  1  0
  4 30  4  0
  5 17  1  0
  6  8  1  0
  6 29  1  0
  7 24  4  0
  7 26  4  0
  8 28  1  0
  9 13  2  0
 10 18  1  0
 10 21  4  0
 10 30  4  0
 11 17  2  0
 12 18  1  0
 13 15  1  0
 14 24  1  0
 15 25  1  0
 16 28  2  0
 17 20  1  0
 19 24  4  0
 20 23  1  0
 21 22  4  0
 22 23  4  0
 25 26  4  0
 27 29  2  0
M  END
$$$$

 Created by Python create_sdf_string function

 30 33  0  0  0  0  0  0  0  0999 V2000
    8.3036    9.8571   18.4133 C   0  0  0  0  0  0  0  0  0  0  0  0
    8.3694    7.6612   22.6703 C   0  0  0  0  0  0  0  0  0  0  0  0
    8.4143    6.6863   16.2273 C   0  0  0  0  0  0  0  0  0  0  0  0
   10.7581    6.5674   21.7636 C   0  0  0  0  0  0  0  0  0  0  0  0
    8.4452    8.7960   19.2958 O   0  0  0  0  0  0  0  0  0  0  0  0
    8.7122    6.7842   24.8569 C   0  0  0  0  0  0  0  0  0  0  0  0
   10.3400    6.1726   14.3081 C   0  0  0  0  0  0  0  0  0  0  0  0
    7.4297    7.5873   24.8962 C   0  0  0  0  0  0  0  0  0  0  0  0
    8.1566   10.0536   16.0516 O   0  0  0  0  0  0  0  0  0  0  0  0
   12.4989    6.2074   20.1776 C   0  0  0  0  0  0  0  0  0  0  0  0
    6.9192    9.1053   20.9073 O   0  0  0  0  0  0  0  0  0  0  0  0
   14.3979    6.0729   18.7784 C   0  0  0  0  0  0  0  0  0  0  0  0
    8.6811    9.5354   16.9998 C   0  0  0  0  0  0  0  0  0  0  0  0
    9.2512    4.2713   13.7653 O   0  0  0  0  0  0  0  0  0  0  0  0
    9.6495    8.6317   16.8332 N   0  0  0  0  0  0  0  0  0  0  0  0
    6.2934    8.6988   23.1988 O   0  0  0  0  0  0  0  0  0  0  0  0
    7.9806    8.6543   20.5437 C   0  0  0  0  0  0  0  0  0  0  0  0
   13.7270    5.7144   19.8610 O   0  0  0  0  0  0  0  0  0  0  0  0
    8.3351    5.5235   15.4478 C   0  0  0  0  0  0  0  0  0  0  0  0
    8.7700    7.8434   21.3915 C   0  0  0  0  0  0  0  0  0  0  0  0
   11.7856    6.8851   19.2401 C   0  0  0  0  0  0  0  0  0  0  0  0
   10.5281    7.4276   19.5649 C   0  0  0  0  0  0  0  0  0  0  0  0
   10.0256    7.2907   20.8484 C   0  0  0  0  0  0  0  0  0  0  0  0
    9.3113    5.3049   14.4911 C   0  0  0  0  0  0  0  0  0  0  0  0
    9.4607    7.5646   16.0139 C   0  0  0  0  0  0  0  0  0  0  0  0
   10.4192    7.3157   15.0955 C   0  0  0  0  0  0  0  0  0  0  0  0
   10.2489    6.4227   23.0218 N   0  0  0  0  0  0  0  0  0  0  0  0
    7.2472    8.0746   23.5050 C   0  0  0  0  0  0  0  0  0  0  0  0
    9.2051    6.9101   23.4604 C   0  0  0  0  0  0  0  0  0  0  0  0
   11.9646    6.0299   21.4251 C   0  0  0  0  0  0  0  0  0  0  0  0
  1  5  1  0
  1 13  1  0
  2 20  2  0
  2 28  1  0
  2 29  1  0
  3 19  4  0
  3 25  4  0
  4 23  4  0
  4 27  1  0
  4 30  4  0
  5 17  1  0
  6  8  1  0
  6 29  1  0
  7 24  4  0
  7 26  4  0
  8 28  1  0
  9 13  2  0
 10 18  1  0
 10 21  4  0
 10 30  4  0
 11 17  2  0
 12 18  1  0
 13 15  1  0
 14 24  1  0
 15 25  1  0
 16 28  2  0
 17 20  1  0
 19 24  4  0
 20 23  1  0
 21 22  4  0
 22 23  4  0
 25 26  4  0
 27 29  2  0
M  END
$$$$

 Created by Python create_sdf_string function

 30 33  0  0  0  0  0  0  0  0999 V2000
    8.3036    9.8571   18.4133 C   0  0  0  0  0  0  0  0  0  0  0  0
    8.3694    7.6612   22.6703 C   0  0  0  0  0  0  0  0  0  0  0  0
    8.4143    6.6863   16.2273 C   0  0  0  0  0  0  0  0  0  0  0  0
   10.7581    6.5674   21.7636 C   0  0  0  0  0  0  0  0  0  0  0  0
    8.4452    8.7960   19.2958 O   0  0  0  0  0  0  0  0  0  0  0  0
    8.7122    6.7842   24.8569 C   0  0  0  0  0  0  0  0  0  0  0  0
   10.3400    6.1726   14.3081 C   0  0  0  0  0  0  0  0  0  0  0  0
    7.4297    7.5873   24.8962 C   0  0  0  0  0  0  0  0  0  0  0  0
    8.1566   10.0536   16.0516 O   0  0  0  0  0  0  0  0  0  0  0  0
   12.4989    6.2074   20.1776 C   0  0  0  0  0  0  0  0  0  0  0  0
    6.9192    9.1053   20.9073 O   0  0  0  0  0  0  0  0  0  0  0  0
   14.3979    6.0729   18.7784 C   0  0  0  0  0  0  0  0  0  0  0  0
    8.6811    9.5354   16.9998 C   0  0  0  0  0  0  0  0  0  0  0  0
    9.2512    4.2713   13.7653 O   0  0  0  0  0  0  0  0  0  0  0  0
    9.6495    8.6317   16.8332 N   0  0  0  0  0  0  0  0  0  0  0  0
    6.2934    8.6988   23.1988 O   0  0  0  0  0  0  0  0  0  0  0  0
    7.9806    8.6543   20.5437 C   0  0  0  0  0  0  0  0  0  0  0  0
   13.7270    5.7144   19.8610 O   0  0  0  0  0  0  0  0  0  0  0  0
    8.3351    5.5235   15.4478 C   0  0  0  0  0  0  0  0  0  0  0  0
    8.7700    7.8434   21.3915 C   0  0  0  0  0  0  0  0  0  0  0  0
   11.7856    6.8851   19.2401 C   0  0  0  0  0  0  0  0  0  0  0  0
   10.5281    7.4276   19.5649 C   0  0  0  0  0  0  0  0  0  0  0  0
   10.0256    7.2907   20.8484 C   0  0  0  0  0  0  0  0  0  0  0  0
    9.3113    5.3049   14.4911 C   0  0  0  0  0  0  0  0  0  0  0  0
    9.4607    7.5646   16.0139 C   0  0  0  0  0  0  0  0  0  0  0  0
   10.4192    7.3157   15.0955 C   0  0  0  0  0  0  0  0  0  0  0  0
   10.2489    6.4227   23.0218 N   0  0  0  0  0  0  0  0  0  0  0  0
    7.2472    8.0746   23.5050 C   0  0  0  0  0  0  0  0  0  0  0  0
    9.2051    6.9101   23.4604 C   0  0  0  0  0  0  0  0  0  0  0  0
   11.9646    6.0299   21.4251 C   0  0  0  0  0  0  0  0  0  0  0  0
  1  5  1  0
  1 13  1  0
  2 20  2  0
  2 28  1  0
  2 29  1  0
  3 19  4  0
  3 25  4  0
  4 23  4  0
  4 27  1  0
  4 30  4  0
  5 17  1  0
  6  8  1  0
  6 29  1  0
  7 24  4  0
  7 26  4  0
  8 28  1  0
  9 13  2  0
 10 18  1  0
 10 21  4  0
 10 30  4  0
 11 17  2  0
 12 18  1  0
 13 15  1  0
 14 24  1  0
 15 25  1  0
 16 28  2  0
 17 20  1  0
 19 24  4  0
 20 23  1  0
 21 22  4  0
 22 23  4  0
 25 26  4  0
 27 29  2  0
M  END
$$$$

 Created by Python create_sdf_string function

 30 33  0  0  0  0  0  0  0  0999 V2000
    8.3036    9.8571   18.4133 C   0  0  0  0  0  0  0  0  0  0  0  0
    8.3694    7.6612   22.6703 C   0  0  0  0  0  0  0  0  0  0  0  0
    8.4143    6.6863   16.2273 C   0  0  0  0  0  0  0  0  0  0  0  0
   10.7581    6.5674   21.7636 C   0  0  0  0  0  0  0  0  0  0  0  0
    8.4452    8.7960   19.2958 O   0  0  0  0  0  0  0  0  0  0  0  0
    8.7122    6.7842   24.8569 C   0  0  0  0  0  0  0  0  0  0  0  0
   10.3400    6.1726   14.3081 C   0  0  0  0  0  0  0  0  0  0  0  0
    7.4297    7.5873   24.8962 C   0  0  0  0  0  0  0  0  0  0  0  0
    8.1566   10.0536   16.0516 O   0  0  0  0  0  0  0  0  0  0  0  0
   12.4989    6.2074   20.1776 C   0  0  0  0  0  0  0  0  0  0  0  0
    6.9192    9.1053   20.9073 O   0  0  0  0  0  0  0  0  0  0  0  0
   14.3979    6.0729   18.7784 C   0  0  0  0  0  0  0  0  0  0  0  0
    8.6811    9.5354   16.9998 C   0  0  0  0  0  0  0  0  0  0  0  0
    9.2512    4.2713   13.7653 O   0  0  0  0  0  0  0  0  0  0  0  0
    9.6495    8.6317   16.8332 N   0  0  0  0  0  0  0  0  0  0  0  0
    6.2934    8.6988   23.1988 O   0  0  0  0  0  0  0  0  0  0  0  0
    7.9806    8.6543   20.5437 C   0  0  0  0  0  0  0  0  0  0  0  0
   13.7270    5.7144   19.8610 O   0  0  0  0  0  0  0  0  0  0  0  0
    8.3351    5.5235   15.4478 C   0  0  0  0  0  0  0  0  0  0  0  0
    8.7700    7.8434   21.3915 C   0  0  0  0  0  0  0  0  0  0  0  0
   11.7856    6.8851   19.2401 C   0  0  0  0  0  0  0  0  0  0  0  0
   10.5281    7.4276   19.5649 C   0  0  0  0  0  0  0  0  0  0  0  0
   10.0256    7.2907   20.8484 C   0  0  0  0  0  0  0  0  0  0  0  0
    9.3113    5.3049   14.4911 C   0  0  0  0  0  0  0  0  0  0  0  0
    9.4607    7.5646   16.0139 C   0  0  0  0  0  0  0  0  0  0  0  0
   10.4192    7.3157   15.0955 C   0  0  0  0  0  0  0  0  0  0  0  0
   10.2489    6.4227   23.0218 N   0  0  0  0  0  0  0  0  0  0  0  0
    7.2472    8.0746   23.5050 C   0  0  0  0  0  0  0  0  0  0  0  0
    9.2051    6.9101   23.4604 C   0  0  0  0  0  0  0  0  0  0  0  0
   11.9646    6.0299   21.4251 C   0  0  0  0  0  0  0  0  0  0  0  0
  1  5  1  0
  1 13  1  0
  2 20  2  0
  2 28  1  0
  2 29  1  0
  3 19  4  0
  3 25  4  0
  4 23  4  0
  4 27  1  0
  4 30  4  0
  5 17  1  0
  6  8  1  0
  6 29  1  0
  7 24  4  0
  7 26  4  0
  8 28  1  0
  9 13  2  0
 10 18  1  0
 10 21  4  0
 10 30  4  0
 11 17  2  0
 12 18  1  0
 13 15  1  0
 14 24  1  0
 15 25  1  0
 16 28  2  0
 17 20  1  0
 19 24  4  0
 20 23  1  0
 21 22  4  0
 22 23  4  0
 25 26  4  0
 27 29  2  0
M  END
$$$$

 Created by Python create_sdf_string function

 30 33  0  0  0  0  0  0  0  0999 V2000
    8.3036    9.8571   18.4133 C   0  0  0  0  0  0  0  0  0  0  0  0
    8.3694    7.6612   22.6703 C   0  0  0  0  0  0  0  0  0  0  0  0
    8.4143    6.6863   16.2273 C   0  0  0  0  0  0  0  0  0  0  0  0
   10.7581    6.5674   21.7636 C   0  0  0  0  0  0  0  0  0  0  0  0
    8.4452    8.7960   19.2958 O   0  0  0  0  0  0  0  0  0  0  0  0
    8.7122    6.7842   24.8569 C   0  0  0  0  0  0  0  0  0  0  0  0
   10.3400    6.1726   14.3081 C   0  0  0  0  0  0  0  0  0  0  0  0
    7.4297    7.5873   24.8962 C   0  0  0  0  0  0  0  0  0  0  0  0
    8.1566   10.0536   16.0516 O   0  0  0  0  0  0  0  0  0  0  0  0
   12.4989    6.2074   20.1776 C   0  0  0  0  0  0  0  0  0  0  0  0
    6.9192    9.1053   20.9073 O   0  0  0  0  0  0  0  0  0  0  0  0
   14.3979    6.0729   18.7784 C   0  0  0  0  0  0  0  0  0  0  0  0
    8.6811    9.5354   16.9998 C   0  0  0  0  0  0  0  0  0  0  0  0
    9.2512    4.2713   13.7653 O   0  0  0  0  0  0  0  0  0  0  0  0
    9.6495    8.6317   16.8332 N   0  0  0  0  0  0  0  0  0  0  0  0
    6.2934    8.6988   23.1988 O   0  0  0  0  0  0  0  0  0  0  0  0
    7.9806    8.6543   20.5437 C   0  0  0  0  0  0  0  0  0  0  0  0
   13.7270    5.7144   19.8610 O   0  0  0  0  0  0  0  0  0  0  0  0
    8.3351    5.5235   15.4478 C   0  0  0  0  0  0  0  0  0  0  0  0
    8.7700    7.8434   21.3915 C   0  0  0  0  0  0  0  0  0  0  0  0
   11.7856    6.8851   19.2401 C   0  0  0  0  0  0  0  0  0  0  0  0
   10.5281    7.4276   19.5649 C   0  0  0  0  0  0  0  0  0  0  0  0
   10.0256    7.2907   20.8484 C   0  0  0  0  0  0  0  0  0  0  0  0
    9.3113    5.3049   14.4911 C   0  0  0  0  0  0  0  0  0  0  0  0
    9.4607    7.5646   16.0139 C   0  0  0  0  0  0  0  0  0  0  0  0
   10.4192    7.3157   15.0955 C   0  0  0  0  0  0  0  0  0  0  0  0
   10.2489    6.4227   23.0218 N   0  0  0  0  0  0  0  0  0  0  0  0
    7.2472    8.0746   23.5050 C   0  0  0  0  0  0  0  0  0  0  0  0
    9.2051    6.9101   23.4604 C   0  0  0  0  0  0  0  0  0  0  0  0
   11.9646    6.0299   21.4251 C   0  0  0  0  0  0  0  0  0  0  0  0
  1  5  1  0
  1 13  1  0
  2 20  2  0
  2 28  1  0
  2 29  1  0
  3 19  4  0
  3 25  4  0
  4 23  4  0
  4 27  1  0
  4 30  4  0
  5 17  1  0
  6  8  1  0
  6 29  1  0
  7 24  4  0
  7 26  4  0
  8 28  1  0
  9 13  2  0
 10 18  1  0
 10 21  4  0
 10 30  4  0
 11 17  2  0
 12 18  1  0
 13 15  1  0
 14 24  1  0
 15 25  1  0
 16 28  2  0
 17 20  1  0
 19 24  4  0
 20 23  1  0
 21 22  4  0
 22 23  4  0
 25 26  4  0
 27 29  2  0
M  END
$$$$

 Created by Python create_sdf_string function

 30 33  0  0  0  0  0  0  0  0999 V2000
    8.3036    9.8571   18.4133 C   0  0  0  0  0  0  0  0  0  0  0  0
    8.3694    7.6612   22.6703 C   0  0  0  0  0  0  0  0  0  0  0  0
    8.4143    6.6863   16.2273 C   0  0  0  0  0  0  0  0  0  0  0  0
   10.7581    6.5674   21.7636 C   0  0  0  0  0  0  0  0  0  0  0  0
    8.4452    8.7960   19.2958 O   0  0  0  0  0  0  0  0  0  0  0  0
    8.7122    6.7842   24.8569 C   0  0  0  0  0  0  0  0  0  0  0  0
   10.3400    6.1726   14.3081 C   0  0  0  0  0  0  0  0  0  0  0  0
    7.4297    7.5873   24.8962 C   0  0  0  0  0  0  0  0  0  0  0  0
    8.1566   10.0536   16.0516 O   0  0  0  0  0  0  0  0  0  0  0  0
   12.4989    6.2074   20.1776 C   0  0  0  0  0  0  0  0  0  0  0  0
    6.9192    9.1053   20.9073 O   0  0  0  0  0  0  0  0  0  0  0  0
   14.3979    6.0729   18.7784 C   0  0  0  0  0  0  0  0  0  0  0  0
    8.6811    9.5354   16.9998 C   0  0  0  0  0  0  0  0  0  0  0  0
    9.2512    4.2713   13.7653 O   0  0  0  0  0  0  0  0  0  0  0  0
    9.6495    8.6317   16.8332 N   0  0  0  0  0  0  0  0  0  0  0  0
    6.2934    8.6988   23.1988 O   0  0  0  0  0  0  0  0  0  0  0  0
    7.9806    8.6543   20.5437 C   0  0  0  0  0  0  0  0  0  0  0  0
   13.7270    5.7144   19.8610 O   0  0  0  0  0  0  0  0  0  0  0  0
    8.3351    5.5235   15.4478 C   0  0  0  0  0  0  0  0  0  0  0  0
    8.7700    7.8434   21.3915 C   0  0  0  0  0  0  0  0  0  0  0  0
   11.7856    6.8851   19.2401 C   0  0  0  0  0  0  0  0  0  0  0  0
   10.5281    7.4276   19.5649 C   0  0  0  0  0  0  0  0  0  0  0  0
   10.0256    7.2907   20.8484 C   0  0  0  0  0  0  0  0  0  0  0  0
    9.3113    5.3049   14.4911 C   0  0  0  0  0  0  0  0  0  0  0  0
    9.4607    7.5646   16.0139 C   0  0  0  0  0  0  0  0  0  0  0  0
   10.4192    7.3157   15.0955 C   0  0  0  0  0  0  0  0  0  0  0  0
   10.2489    6.4227   23.0218 N   0  0  0  0  0  0  0  0  0  0  0  0
    7.2472    8.0746   23.5050 C   0  0  0  0  0  0  0  0  0  0  0  0
    9.2051    6.9101   23.4604 C   0  0  0  0  0  0  0  0  0  0  0  0
   11.9646    6.0299   21.4251 C   0  0  0  0  0  0  0  0  0  0  0  0
  1  5  1  0
  1 13  1  0
  2 20  2  0
  2 28  1  0
  2 29  1  0
  3 19  4  0
  3 25  4  0
  4 23  4  0
  4 27  1  0
  4 30  4  0
  5 17  1  0
  6  8  1  0
  6 29  1  0
  7 24  4  0
  7 26  4  0
  8 28  1  0
  9 13  2  0
 10 18  1  0
 10 21  4  0
 10 30  4  0
 11 17  2  0
 12 18  1  0
 13 15  1  0
 14 24  1  0
 15 25  1  0
 16 28  2  0
 17 20  1  0
 19 24  4  0
 20 23  1  0
 21 22  4  0
 22 23  4  0
 25 26  4  0
 27 29  2  0
M  END
$$$$

 Created by Python create_sdf_string function

 30 33  0  0  0  0  0  0  0  0999 V2000
    8.3036    9.8571   18.4133 C   0  0  0  0  0  0  0  0  0  0  0  0
    8.3694    7.6612   22.6703 C   0  0  0  0  0  0  0  0  0  0  0  0
    8.4143    6.6863   16.2273 C   0  0  0  0  0  0  0  0  0  0  0  0
   10.7581    6.5674   21.7636 C   0  0  0  0  0  0  0  0  0  0  0  0
    8.4452    8.7960   19.2958 O   0  0  0  0  0  0  0  0  0  0  0  0
    8.7122    6.7842   24.8569 C   0  0  0  0  0  0  0  0  0  0  0  0
   10.3400    6.1726   14.3081 C   0  0  0  0  0  0  0  0  0  0  0  0
    7.4297    7.5873   24.8962 C   0  0  0  0  0  0  0  0  0  0  0  0
    8.1566   10.0536   16.0516 O   0  0  0  0  0  0  0  0  0  0  0  0
   12.4989    6.2074   20.1776 C   0  0  0  0  0  0  0  0  0  0  0  0
    6.9192    9.1053   20.9073 O   0  0  0  0  0  0  0  0  0  0  0  0
   14.3979    6.0729   18.7784 C   0  0  0  0  0  0  0  0  0  0  0  0
    8.6811    9.5354   16.9998 C   0  0  0  0  0  0  0  0  0  0  0  0
    9.2512    4.2713   13.7653 O   0  0  0  0  0  0  0  0  0  0  0  0
    9.6495    8.6317   16.8332 N   0  0  0  0  0  0  0  0  0  0  0  0
    6.2934    8.6988   23.1988 O   0  0  0  0  0  0  0  0  0  0  0  0
    7.9806    8.6543   20.5437 C   0  0  0  0  0  0  0  0  0  0  0  0
   13.7270    5.7144   19.8610 O   0  0  0  0  0  0  0  0  0  0  0  0
    8.3351    5.5235   15.4478 C   0  0  0  0  0  0  0  0  0  0  0  0
    8.7700    7.8434   21.3915 C   0  0  0  0  0  0  0  0  0  0  0  0
   11.7856    6.8851   19.2401 C   0  0  0  0  0  0  0  0  0  0  0  0
   10.5281    7.4276   19.5649 C   0  0  0  0  0  0  0  0  0  0  0  0
   10.0256    7.2907   20.8484 C   0  0  0  0  0  0  0  0  0  0  0  0
    9.3113    5.3049   14.4911 C   0  0  0  0  0  0  0  0  0  0  0  0
    9.4607    7.5646   16.0139 C   0  0  0  0  0  0  0  0  0  0  0  0
   10.4192    7.3157   15.0955 C   0  0  0  0  0  0  0  0  0  0  0  0
   10.2489    6.4227   23.0218 N   0  0  0  0  0  0  0  0  0  0  0  0
    7.2472    8.0746   23.5050 C   0  0  0  0  0  0  0  0  0  0  0  0
    9.2051    6.9101   23.4604 C   0  0  0  0  0  0  0  0  0  0  0  0
   11.9646    6.0299   21.4251 C   0  0  0  0  0  0  0  0  0  0  0  0
  1  5  1  0
  1 13  1  0
  2 20  2  0
  2 28  1  0
  2 29  1  0
  3 19  4  0
  3 25  4  0
  4 23  4  0
  4 27  1  0
  4 30  4  0
  5 17  1  0
  6  8  1  0
  6 29  1  0
  7 24  4  0
  7 26  4  0
  8 28  1  0
  9 13  2  0
 10 18  1  0
 10 21  4  0
 10 30  4  0
 11 17  2  0
 12 18  1  0
 13 15  1  0
 14 24  1  0
 15 25  1  0
 16 28  2  0
 17 20  1  0
 19 24  4  0
 20 23  1  0
 21 22  4  0
 22 23  4  0
 25 26  4  0
 27 29  2  0
M  END
